0:0:0
     RDKit          3D

 50 52  0  0  1  0  0  0  0  0999 V2000
    4.7443   -4.2445   -1.8726 C   0  0  0  0  0  0  0  0  0  0  0  0
    5.5360   -3.6012   -0.7099 C   0  0  2  0  0  0  0  0  0  0  0  0
    5.3882   -4.3717    0.4918 O   0  0  0  0  0  0  0  0  0  0  0  0
    4.1092   -4.4384    1.0458 C   0  0  1  0  0  0  0  0  0  0  0  0
    3.9946   -5.2833    2.1437 O   0  0  0  0  0  0  0  0  0  0  0  0
    4.5893   -6.5766    2.0383 C   0  0  2  0  0  0  0  0  0  0  0  0
    4.1912   -7.3438    0.7505 C   0  0  0  0  0  0  0  0  0  0  0  0
    4.4587   -8.8568    0.8378 C   0  0  1  0  0  0  0  0  0  0  0  0
    5.9238   -9.1508    1.2174 C   0  0  0  0  0  0  0  0  0  0  0  0
    5.9152   -9.2061    2.7556 C   0  0  0  0  0  0  0  0  0  0  0  0
    4.4530   -8.9143    3.1381 C   0  0  1  0  0  0  0  0  0  0  0  0
    4.2041   -7.3755    3.3133 C   0  0  1  0  0  0  0  0  0  0  0  0
    4.9272   -6.8438    4.5830 C   0  0  0  0  0  0  0  0  0  0  0  0
    4.3911   -5.6095    5.0090 O   0  0  0  0  0  0  0  0  0  0  0  0
    3.7252   -9.4399    1.9625 N   0  0  1  0  0  0  0  0  0  0  0  0
    2.2316   -9.3343    1.9613 C   0  0  0  0  0  0  0  0  0  0  0  0
    3.6179   -3.0139    1.4398 C   0  0  1  0  0  0  0  0  0  0  0  0
    4.3456   -2.4517    2.5126 O   0  0  0  0  0  0  0  0  0  0  0  0
    3.7322   -2.0885    0.2079 C   0  0  1  0  0  0  0  0  0  0  0  0
    3.3175   -0.7730    0.5078 O   0  0  0  0  0  0  0  0  0  0  0  0
    5.1321   -2.1369   -0.4415 C   0  0  1  0  0  0  0  0  0  0  0  0
    6.1310   -1.5717    0.3851 O   0  0  0  0  0  0  0  0  0  0  0  0
    4.9101   -3.7137   -2.8149 H   0  0  0  0  0  0  0  0  0  0  0  0
    3.6680   -4.2477   -1.6986 H   0  0  0  0  0  0  0  0  0  0  0  0
    5.0163   -5.2812   -2.0034 H   0  0  0  0  0  0  0  0  0  0  0  0
    6.5937   -3.6243   -0.9812 H   0  0  0  0  0  0  0  0  0  0  0  0
    3.4153   -4.8524    0.3084 H   0  0  0  0  0  0  0  0  0  0  0  0
    5.6698   -6.4470    2.0231 H   0  0  0  0  0  0  0  0  0  0  0  0
    3.1418   -7.1583    0.5222 H   0  0  0  0  0  0  0  0  0  0  0  0
    4.7647   -6.9367   -0.0876 H   0  0  0  0  0  0  0  0  0  0  0  0
    4.1793   -9.3499   -0.0942 H   0  0  0  0  0  0  0  0  0  0  0  0
    6.2371  -10.1171    0.8123 H   0  0  0  0  0  0  0  0  0  0  0  0
    6.6263   -8.3949    0.8685 H   0  0  0  0  0  0  0  0  0  0  0  0
    6.1943  -10.2116    3.0861 H   0  0  0  0  0  0  0  0  0  0  0  0
    6.6401   -8.5167    3.1876 H   0  0  0  0  0  0  0  0  0  0  0  0
    4.1562   -9.4600    4.0310 H   0  0  0  0  0  0  0  0  0  0  0  0
    3.1357   -7.2488    3.4864 H   0  0  0  0  0  0  0  0  0  0  0  0
    4.8216   -7.5500    5.4122 H   0  0  0  0  0  0  0  0  0  0  0  0
    5.9998   -6.7217    4.4041 H   0  0  0  0  0  0  0  0  0  0  0  0
    4.9240   -5.2775    5.7190 H   0  0  0  0  0  0  0  0  0  0  0  0
    1.8605   -8.3145    1.9471 H   0  0  0  0  0  0  0  0  0  0  0  0
    1.8116   -9.8162    2.8414 H   0  0  0  0  0  0  0  0  0  0  0  0
    1.8163   -9.8384    1.0902 H   0  0  0  0  0  0  0  0  0  0  0  0
    2.5758   -3.1111    1.7358 H   0  0  0  0  0  0  0  0  0  0  0  0
    4.0425   -1.5577    2.6000 H   0  0  0  0  0  0  0  0  0  0  0  0
    3.0209   -2.4331   -0.5453 H   0  0  0  0  0  0  0  0  0  0  0  0
    2.4141   -0.6807    0.2115 H   0  0  0  0  0  0  0  0  0  0  0  0
    5.1436   -1.5694   -1.3774 H   0  0  0  0  0  0  0  0  0  0  0  0
    5.9606   -1.9118    1.2562 H   0  0  0  0  0  0  0  0  0  0  0  0
    3.9421  -10.4323    1.9087 H   0  0  0  0  0  0  0  0  0  0  0  0
  1  2  1  0
  1 23  1  0
  1 24  1  0
  1 25  1  0
  2 21  1  0
  2  3  1  0
  2 26  1  6
  3  4  1  0
  4  5  1  0
  4 17  1  0
  4 27  1  6
  5  6  1  0
  6 12  1  0
  6  7  1  0
  6 28  1  6
  7  8  1  0
  7 29  1  0
  7 30  1  0
  8 15  1  0
  8  9  1  0
  8 31  1  6
  9 10  1  0
  9 32  1  0
  9 33  1  0
 10 11  1  0
 10 34  1  0
 10 35  1  0
 11 12  1  0
 11 15  1  0
 11 36  1  1
 12 13  1  0
 12 37  1  1
 13 14  1  0
 13 38  1  0
 13 39  1  0
 14 40  1  0
 15 16  1  0
 15 50  1  6
 16 41  1  0
 16 42  1  0
 16 43  1  0
 17 18  1  0
 17 19  1  0
 17 44  1  1
 18 45  1  0
 19 20  1  0
 19 21  1  0
 19 46  1  6
 20 47  1  0
 21 22  1  0
 21 48  1  6
 22 49  1  0
M  CHG  1  15   1
M  END
>  <i_m_ct_stereo_status>  (1) 
1

>  <s_m_source_file>  (1) 
/var/tmp/pbs.5076255.sched01/tmp9d3cgwpa/0mc_8ktg4.sdf

>  <i_m_source_file_index>  (1) 
1

>  <i_lp_mmshare_version>  (1) 
48012

>  <i_f3d_flags>  (1) 
0

>  <s_epik_input>  (1) 
W09IXVtDQEBIXTFbQ0BIXShbT0hdKVtDQEhdKFtPSF0pW0NAQEhdKE9bQ0BIXTFbQ0gzXSlPW0NASF0oW0NIMl1bQ0BASF0yMylbQ0BIXShbQ0gyXVtPSF0pW0NASF0oW0NIMl1bQ0gyXTIpTjNbQ0gzXQ==

>  <s_epik_cmdline>  (1) 
J2VwaWtfcHl0aG9uJywgJy1waHQnLCAnMi4wJywgJy1waCcsICc3LjAnLCAnLXRuJywgJzgnLCAnLW1hJywgJzIwMCcsICctaW1hZScsICc8aW5maWxlLm1hZT4nLCAnLW9tYWUnLCAnPG91dGZpbGUubWFlPic=

>  <r_epik_Ionization_Penalty>  (1) 
0.00242685

>  <r_epik_Ionization_Penalty_Charging>  (1) 
0.00242414

>  <r_epik_Ionization_Penalty_Neutral>  (1) 
2.71551e-06

>  <r_epik_State_Penalty>  (1) 
0.00167762

>  <r_epik_Charging_Adjusted_Penalty>  (1) 
0.00410176

>  <i_epik_Tot_Q>  (1) 
1

>  <i_epik_Tot_abs_Q>  (1) 
1

>  <s_epik_Chemistry_Notes>  (1) 
This compound contains an acetal/aminal-like group ( X-CH(R)-Y where X, Y are N, S, or O) that may be acid/base labile, releasing an aldehyde.

>  <s_lp_Force_Field>  (1) 
OPLS3e

>  <r_lp_Energy>  (1) 
36.1946

>  <b_lp_Chiralities_Consistent>  (1) 
1

>  <s_lp_Variant>  (1) 
0:0-1

>  <s_i_glide_gridfile>  (1) 
pfpi4k_grid

>  <i_i_glide_lignum>  (1) 
1

>  <i_i_glide_rotatable_bonds>  (1) 
7

>  <r_i_docking_score>  (1) 
-3.49831

>  <r_i_glide_ligand_efficiency>  (1) 
-0.159014

>  <r_i_glide_ligand_efficiency_sa>  (1) 
-0.445564

>  <r_i_glide_ligand_efficiency_ln>  (1) 
-0.855115

>  <r_i_glide_gscore>  (1) 
-3.49831

>  <r_i_glide_lipo>  (1) 
-0.355649

>  <r_i_glide_hbond>  (1) 
-0.0409264

>  <r_i_glide_metal>  (1) 
-0

>  <r_i_glide_rewards>  (1) 
-1.76781

>  <r_i_glide_evdw>  (1) 
-16.0166

>  <r_i_glide_ecoul>  (1) 
-6.88909

>  <r_i_glide_erotb>  (1) 
0.551768

>  <r_i_glide_esite>  (1) 
-0.0515034

>  <r_i_glide_emodel>  (1) 
-32.1635

>  <r_i_glide_energy>  (1) 
-22.9056

>  <r_i_glide_einternal>  (1) 
3.68508

>  <r_i_glide_intrahb_reward>  (1) 
-0.5

>  <i_i_glide_confnum>  (1) 
2

>  <i_i_glide_posenum>  (1) 
39

>  <r_i_glide_eff_state_penalty>  (1) 
0

>  <ligand_id>  (1) 
0

>  <original_smiles>  (1) 
CC1OC(OC2CC3CCC(C2CO)N3C)C(O)C(O)C1O

>  <smiles>  (1) 
[H]OC([H])([H])C1([H])C([H])(OC2([H])OC([H])(C([H])([H])[H])C([H])(O[H])C([H])(O[H])C2([H])O[H])C([H])([H])C2([H])C([H])([H])C([H])([H])C1([H])[N+]2([H])C([H])([H])[H]

$$$$
0:0:1
     RDKit          3D

 50 52  0  0  1  0  0  0  0  0999 V2000
    5.0265   -4.0407   -1.5938 C   0  0  0  0  0  0  0  0  0  0  0  0
    5.5621   -3.4302   -0.2811 C   0  0  2  0  0  0  0  0  0  0  0  0
    5.2593   -4.2820    0.8309 O   0  0  0  0  0  0  0  0  0  0  0  0
    3.9033   -4.4726    1.1230 C   0  0  1  0  0  0  0  0  0  0  0  0
    3.6928   -5.3620    2.1792 O   0  0  0  0  0  0  0  0  0  0  0  0
    4.2598   -6.6641    2.0330 C   0  0  2  0  0  0  0  0  0  0  0  0
    3.5422   -7.4965    0.9425 C   0  0  0  0  0  0  0  0  0  0  0  0
    3.8525   -9.0129    1.0558 C   0  0  1  0  0  0  0  0  0  0  0  0
    5.3629   -9.2844    1.0566 C   0  0  0  0  0  0  0  0  0  0  0  0
    5.7801   -9.2295    2.5318 C   0  0  0  0  0  0  0  0  0  0  0  0
    4.4683   -8.9125    3.2751 C   0  0  1  0  0  0  0  0  0  0  0  0
    4.2407   -7.3720    3.4161 C   0  0  1  0  0  0  0  0  0  0  0  0
    5.2706   -6.7500    4.3903 C   0  0  0  0  0  0  0  0  0  0  0  0
    4.8738   -5.4643    4.8185 O   0  0  0  0  0  0  0  0  0  0  0  0
    3.4622   -9.5256    2.3808 N   0  0  1  0  0  0  0  0  0  0  0  0
    2.0343   -9.4348    2.7736 C   0  0  0  0  0  0  0  0  0  0  0  0
    3.2595   -3.1075    1.4886 C   0  0  1  0  0  0  0  0  0  0  0  0
    3.7908   -2.5855    2.6867 O   0  0  0  0  0  0  0  0  0  0  0  0
    3.5176   -2.0903    0.3527 C   0  0  1  0  0  0  0  0  0  0  0  0
    3.0177   -0.7975    0.6306 O   0  0  0  0  0  0  0  0  0  0  0  0
    5.0053   -2.0123   -0.0287 C   0  0  1  0  0  0  0  0  0  0  0  0
    5.7651   -1.3572    0.9724 O   0  0  0  0  0  0  0  0  0  0  0  0
    5.3075   -3.4501   -2.4659 H   0  0  0  0  0  0  0  0  0  0  0  0
    3.9409   -4.1287   -1.6088 H   0  0  0  0  0  0  0  0  0  0  0  0
    5.4177   -5.0426   -1.7313 H   0  0  0  0  0  0  0  0  0  0  0  0
    6.6468   -3.3660   -0.3692 H   0  0  0  0  0  0  0  0  0  0  0  0
    3.3913   -4.8915    0.2544 H   0  0  0  0  0  0  0  0  0  0  0  0
    5.3025   -6.5557    1.7375 H   0  0  0  0  0  0  0  0  0  0  0  0
    2.4650   -7.3302    0.9947 H   0  0  0  0  0  0  0  0  0  0  0  0
    3.8754   -7.1351   -0.0349 H   0  0  0  0  0  0  0  0  0  0  0  0
    3.3495   -9.5736    0.2679 H   0  0  0  0  0  0  0  0  0  0  0  0
    5.5899  -10.2645    0.6316 H   0  0  0  0  0  0  0  0  0  0  0  0
    5.9086   -8.5335    0.4924 H   0  0  0  0  0  0  0  0  0  0  0  0
    6.1706  -10.2019    2.8434 H   0  0  0  0  0  0  0  0  0  0  0  0
    6.5740   -8.4975    2.6965 H   0  0  0  0  0  0  0  0  0  0  0  0
    4.4427   -9.3956    4.2521 H   0  0  0  0  0  0  0  0  0  0  0  0
    3.2569   -7.2267    3.8588 H   0  0  0  0  0  0  0  0  0  0  0  0
    5.3852   -7.3735    5.2775 H   0  0  0  0  0  0  0  0  0  0  0  0
    6.2557   -6.6701    3.9271 H   0  0  0  0  0  0  0  0  0  0  0  0
    5.5658   -5.0836    5.3288 H   0  0  0  0  0  0  0  0  0  0  0  0
    1.6534   -8.4186    2.7947 H   0  0  0  0  0  0  0  0  0  0  0  0
    1.8907   -9.8564    3.7666 H   0  0  0  0  0  0  0  0  0  0  0  0
    1.4119   -9.9998    2.0810 H   0  0  0  0  0  0  0  0  0  0  0  0
    2.1890   -3.2605    1.6215 H   0  0  0  0  0  0  0  0  0  0  0  0
    4.6796   -2.3126    2.5096 H   0  0  0  0  0  0  0  0  0  0  0  0
    2.9808   -2.4270   -0.5342 H   0  0  0  0  0  0  0  0  0  0  0  0
    2.0946   -0.7732    0.3291 H   0  0  0  0  0  0  0  0  0  0  0  0
    5.1322   -1.4000   -0.9263 H   0  0  0  0  0  0  0  0  0  0  0  0
    5.3026   -0.5628    1.1934 H   0  0  0  0  0  0  0  0  0  0  0  0
    3.6880  -10.5135    2.3422 H   0  0  0  0  0  0  0  0  0  0  0  0
  1  2  1  0
  1 23  1  0
  1 24  1  0
  1 25  1  0
  2 21  1  0
  2  3  1  0
  2 26  1  6
  3  4  1  0
  4  5  1  0
  4 17  1  0
  4 27  1  6
  5  6  1  0
  6 12  1  0
  6  7  1  0
  6 28  1  6
  7  8  1  0
  7 29  1  0
  7 30  1  0
  8 15  1  0
  8  9  1  0
  8 31  1  6
  9 10  1  0
  9 32  1  0
  9 33  1  0
 10 11  1  0
 10 34  1  0
 10 35  1  0
 11 12  1  0
 11 15  1  0
 11 36  1  1
 12 13  1  0
 12 37  1  1
 13 14  1  0
 13 38  1  0
 13 39  1  0
 14 40  1  0
 15 16  1  0
 15 50  1  6
 16 41  1  0
 16 42  1  0
 16 43  1  0
 17 18  1  0
 17 19  1  0
 17 44  1  1
 18 45  1  0
 19 20  1  0
 19 21  1  0
 19 46  1  6
 20 47  1  0
 21 22  1  0
 21 48  1  6
 22 49  1  0
M  CHG  1  15   1
M  END
>  <i_m_ct_stereo_status>  (2) 
1

>  <s_m_source_file>  (2) 
/var/tmp/pbs.5076255.sched01/tmp9d3cgwpa/0mc_8ktg4.sdf

>  <i_m_source_file_index>  (2) 
1

>  <i_lp_mmshare_version>  (2) 
48012

>  <i_f3d_flags>  (2) 
0

>  <s_epik_input>  (2) 
W09IXVtDQEBIXTFbQ0BIXShbT0hdKVtDQEhdKFtPSF0pW0NAQEhdKE9bQ0BIXTFbQ0gzXSlPW0NASF0oW0NIMl1bQ0BASF0yMylbQ0BIXShbQ0gyXVtPSF0pW0NASF0oW0NIMl1bQ0gyXTIpTjNbQ0gzXQ==

>  <s_epik_cmdline>  (2) 
J2VwaWtfcHl0aG9uJywgJy1waHQnLCAnMi4wJywgJy1waCcsICc3LjAnLCAnLXRuJywgJzgnLCAnLW1hJywgJzIwMCcsICctaW1hZScsICc8aW5maWxlLm1hZT4nLCAnLW9tYWUnLCAnPG91dGZpbGUubWFlPic=

>  <r_epik_Ionization_Penalty>  (2) 
0.00242685

>  <r_epik_Ionization_Penalty_Charging>  (2) 
0.00242414

>  <r_epik_Ionization_Penalty_Neutral>  (2) 
2.71551e-06

>  <r_epik_State_Penalty>  (2) 
0.00167762

>  <r_epik_Charging_Adjusted_Penalty>  (2) 
0.00410176

>  <i_epik_Tot_Q>  (2) 
1

>  <i_epik_Tot_abs_Q>  (2) 
1

>  <s_epik_Chemistry_Notes>  (2) 
This compound contains an acetal/aminal-like group ( X-CH(R)-Y where X, Y are N, S, or O) that may be acid/base labile, releasing an aldehyde.

>  <s_lp_Force_Field>  (2) 
OPLS3e

>  <r_lp_Energy>  (2) 
36.1946

>  <b_lp_Chiralities_Consistent>  (2) 
1

>  <s_lp_Variant>  (2) 
0:0-1

>  <s_i_glide_gridfile>  (2) 
pfpi4k_grid

>  <i_i_glide_lignum>  (2) 
1

>  <i_i_glide_rotatable_bonds>  (2) 
7

>  <r_i_docking_score>  (2) 
-2.68747

>  <r_i_glide_ligand_efficiency>  (2) 
-0.122158

>  <r_i_glide_ligand_efficiency_sa>  (2) 
-0.342291

>  <r_i_glide_ligand_efficiency_ln>  (2) 
-0.656915

>  <r_i_glide_gscore>  (2) 
-2.68747

>  <r_i_glide_lipo>  (2) 
-0.1856

>  <r_i_glide_hbond>  (2) 
0

>  <r_i_glide_metal>  (2) 
-0

>  <r_i_glide_rewards>  (2) 
-1.25773

>  <r_i_glide_evdw>  (2) 
-14.617

>  <r_i_glide_ecoul>  (2) 
-6.86046

>  <r_i_glide_erotb>  (2) 
0.551768

>  <r_i_glide_esite>  (2) 
-0.0359892

>  <r_i_glide_emodel>  (2) 
-25.763

>  <r_i_glide_energy>  (2) 
-21.4775

>  <r_i_glide_einternal>  (2) 
1.57869

>  <r_i_glide_intrahb_reward>  (2) 
-0

>  <i_i_glide_confnum>  (2) 
2

>  <i_i_glide_posenum>  (2) 
10

>  <r_i_glide_eff_state_penalty>  (2) 
0

>  <ligand_id>  (2) 
0

>  <original_smiles>  (2) 
CC1OC(OC2CC3CCC(C2CO)N3C)C(O)C(O)C1O

>  <smiles>  (2) 
[H]OC([H])([H])C1([H])C([H])(OC2([H])OC([H])(C([H])([H])[H])C([H])(O[H])C([H])(O[H])C2([H])O[H])C([H])([H])C2([H])C([H])([H])C([H])([H])C1([H])[N+]2([H])C([H])([H])[H]

$$$$
0:0:2
     RDKit          3D

 50 52  0  0  1  0  0  0  0  0999 V2000
    4.9578   -4.1849   -3.4950 C   0  0  0  0  0  0  0  0  0  0  0  0
    5.4513   -3.1697   -2.4496 C   0  0  2  0  0  0  0  0  0  0  0  0
    5.1525   -3.5654   -1.0999 O   0  0  0  0  0  0  0  0  0  0  0  0
    3.7738   -3.7406   -0.8085 C   0  0  1  0  0  0  0  0  0  0  0  0
    3.5712   -4.1627    0.5168 O   0  0  0  0  0  0  0  0  0  0  0  0
    4.4107   -5.1901    1.0061 C   0  0  2  0  0  0  0  0  0  0  0  0
    4.3608   -6.4496    0.1078 C   0  0  0  0  0  0  0  0  0  0  0  0
    4.9766   -7.6773    0.8602 C   0  0  1  0  0  0  0  0  0  0  0  0
    6.3926   -7.3709    1.4014 C   0  0  0  0  0  0  0  0  0  0  0  0
    6.1626   -6.8018    2.8150 C   0  0  0  0  0  0  0  0  0  0  0  0
    4.6245   -6.8058    2.9648 C   0  0  1  0  0  0  0  0  0  0  0  0
    3.9988   -5.4825    2.4675 C   0  0  1  0  0  0  0  0  0  0  0  0
    4.2405   -4.2719    3.4037 C   0  0  0  0  0  0  0  0  0  0  0  0
    5.4139   -3.5800    3.0078 O   0  0  0  0  0  0  0  0  0  0  0  0
    4.2329   -7.9448    2.1080 N   0  0  1  0  0  0  0  0  0  0  0  0
    2.7803   -8.3006    1.9804 C   0  0  0  0  0  0  0  0  0  0  0  0
    3.0324   -2.4199   -1.0226 C   0  0  1  0  0  0  0  0  0  0  0  0
    3.4080   -1.4842   -0.0521 O   0  0  0  0  0  0  0  0  0  0  0  0
    3.3210   -1.9187   -2.4455 C   0  0  1  0  0  0  0  0  0  0  0  0
    2.8276   -0.6683   -2.7447 O   0  0  0  0  0  0  0  0  0  0  0  0
    4.8136   -1.8435   -2.7402 C   0  0  1  0  0  0  0  0  0  0  0  0
    5.4361   -0.8849   -1.9022 O   0  0  0  0  0  0  0  0  0  0  0  0
    5.4009   -4.0281   -4.4924 H   0  0  0  0  0  0  0  0  0  0  0  0
    3.8647   -4.2318   -3.5799 H   0  0  0  0  0  0  0  0  0  0  0  0
    5.2283   -5.1387   -3.1139 H   0  0  0  0  0  0  0  0  0  0  0  0
    6.5379   -3.0812   -2.5124 H   0  0  0  0  0  0  0  0  0  0  0  0
    3.3688   -4.4915   -1.4806 H   0  0  0  0  0  0  0  0  0  0  0  0
    5.4248   -4.7936    1.0125 H   0  0  0  0  0  0  0  0  0  0  0  0
    3.3373   -6.6314   -0.2208 H   0  0  0  0  0  0  0  0  0  0  0  0
    4.9775   -6.2879   -0.7824 H   0  0  0  0  0  0  0  0  0  0  0  0
    4.9891   -8.5746    0.2261 H   0  0  0  0  0  0  0  0  0  0  0  0
    6.9927   -8.2842    1.4767 H   0  0  0  0  0  0  0  0  0  0  0  0
    6.9422   -6.6894    0.7654 H   0  0  0  0  0  0  0  0  0  0  0  0
    6.5828   -7.4912    3.5497 H   0  0  0  0  0  0  0  0  0  0  0  0
    6.6031   -5.8054    2.9715 H   0  0  0  0  0  0  0  0  0  0  0  0
    4.3121   -7.0111    3.9854 H   0  0  0  0  0  0  0  0  0  0  0  0
    2.9277   -5.6226    2.4924 H   0  0  0  0  0  0  0  0  0  0  0  0
    3.3910   -3.5717    3.4001 H   0  0  0  0  0  0  0  0  0  0  0  0
    4.3714   -4.5822    4.4475 H   0  0  0  0  0  0  0  0  0  0  0  0
    5.3459   -3.3114    2.0959 H   0  0  0  0  0  0  0  0  0  0  0  0
    2.1611   -7.5429    1.5073 H   0  0  0  0  0  0  0  0  0  0  0  0
    2.3301   -8.4922    2.9532 H   0  0  0  0  0  0  0  0  0  0  0  0
    2.6299   -9.2099    1.3915 H   0  0  0  0  0  0  0  0  0  0  0  0
    1.9574   -2.6620   -0.8882 H   0  0  0  0  0  0  0  0  0  0  0  0
    4.3829   -1.4779   -0.0114 H   0  0  0  0  0  0  0  0  0  0  0  0
    2.8211   -2.5777   -3.1474 H   0  0  0  0  0  0  0  0  0  0  0  0
    2.5779   -0.2589   -1.9233 H   0  0  0  0  0  0  0  0  0  0  0  0
    4.9779   -1.5494   -3.7836 H   0  0  0  0  0  0  0  0  0  0  0  0
    4.7510   -0.3208   -1.5349 H   0  0  0  0  0  0  0  0  0  0  0  0
    4.6978   -8.7437    2.5096 H   0  0  0  0  0  0  0  0  0  0  0  0
  1  2  1  0
  1 23  1  0
  1 24  1  0
  1 25  1  0
  2 21  1  0
  2  3  1  0
  2 26  1  1
  3  4  1  0
  4  5  1  0
  4 17  1  0
  4 27  1  6
  5  6  1  0
  6 12  1  0
  6  7  1  0
  6 28  1  1
  7  8  1  0
  7 29  1  0
  7 30  1  0
  8 15  1  0
  8  9  1  0
  8 31  1  6
  9 10  1  0
  9 32  1  0
  9 33  1  0
 10 11  1  0
 10 34  1  0
 10 35  1  0
 11 12  1  0
 11 15  1  0
 11 36  1  1
 12 13  1  0
 12 37  1  6
 13 14  1  0
 13 38  1  0
 13 39  1  0
 14 40  1  0
 15 16  1  0
 15 50  1  1
 16 41  1  0
 16 42  1  0
 16 43  1  0
 17 18  1  0
 17 19  1  0
 17 44  1  6
 18 45  1  0
 19 20  1  0
 19 21  1  0
 19 46  1  6
 20 47  1  0
 21 22  1  0
 21 48  1  6
 22 49  1  0
M  CHG  1  15   1
M  END
>  <i_m_ct_stereo_status>  (3) 
1

>  <s_m_source_file>  (3) 
/var/tmp/pbs.5076255.sched01/tmp9d3cgwpa/0mc_8ktg4.sdf

>  <i_m_source_file_index>  (3) 
1

>  <i_lp_mmshare_version>  (3) 
48012

>  <i_f3d_flags>  (3) 
0

>  <s_epik_input>  (3) 
W09IXVtDQEBIXTFbQ0BIXShbT0hdKVtDQEhdKFtPSF0pW0NAQEhdKE9bQ0BIXTFbQ0gzXSlPW0NASF0oW0NIMl1bQ0BASF0yMylbQ0BIXShbQ0gyXVtPSF0pW0NASF0oW0NIMl1bQ0gyXTIpTjNbQ0gzXQ==

>  <s_epik_cmdline>  (3) 
J2VwaWtfcHl0aG9uJywgJy1waHQnLCAnMi4wJywgJy1waCcsICc3LjAnLCAnLXRuJywgJzgnLCAnLW1hJywgJzIwMCcsICctaW1hZScsICc8aW5maWxlLm1hZT4nLCAnLW9tYWUnLCAnPG91dGZpbGUubWFlPic=

>  <r_epik_Ionization_Penalty>  (3) 
0.00242685

>  <r_epik_Ionization_Penalty_Charging>  (3) 
0.00242414

>  <r_epik_Ionization_Penalty_Neutral>  (3) 
2.71551e-06

>  <r_epik_State_Penalty>  (3) 
0.00167762

>  <r_epik_Charging_Adjusted_Penalty>  (3) 
0.00410176

>  <i_epik_Tot_Q>  (3) 
1

>  <i_epik_Tot_abs_Q>  (3) 
1

>  <s_epik_Chemistry_Notes>  (3) 
This compound contains an acetal/aminal-like group ( X-CH(R)-Y where X, Y are N, S, or O) that may be acid/base labile, releasing an aldehyde.

>  <s_lp_Force_Field>  (3) 
OPLS3e

>  <r_lp_Energy>  (3) 
36.1946

>  <b_lp_Chiralities_Consistent>  (3) 
1

>  <s_lp_Variant>  (3) 
0:0-1

>  <s_i_glide_gridfile>  (3) 
pfpi4k_grid

>  <i_i_glide_lignum>  (3) 
1

>  <i_i_glide_rotatable_bonds>  (3) 
7

>  <r_i_docking_score>  (3) 
-2.47758

>  <r_i_glide_ligand_efficiency>  (3) 
-0.112617

>  <r_i_glide_ligand_efficiency_sa>  (3) 
-0.315558

>  <r_i_glide_ligand_efficiency_ln>  (3) 
-0.605611

>  <r_i_glide_gscore>  (3) 
-2.47758

>  <r_i_glide_lipo>  (3) 
-0.493374

>  <r_i_glide_hbond>  (3) 
0

>  <r_i_glide_metal>  (3) 
-0

>  <r_i_glide_rewards>  (3) 
-1.23828

>  <r_i_glide_evdw>  (3) 
-11.4164

>  <r_i_glide_ecoul>  (3) 
-4.79489

>  <r_i_glide_erotb>  (3) 
0.551768

>  <r_i_glide_esite>  (3) 
-0.00764153

>  <r_i_glide_emodel>  (3) 
-13.4545

>  <r_i_glide_energy>  (3) 
-16.2113

>  <r_i_glide_einternal>  (3) 
10.0089

>  <r_i_glide_intrahb_reward>  (3) 
-0

>  <i_i_glide_confnum>  (3) 
2

>  <i_i_glide_posenum>  (3) 
3

>  <r_i_glide_eff_state_penalty>  (3) 
0

>  <ligand_id>  (3) 
0

>  <original_smiles>  (3) 
CC1OC(OC2CC3CCC(C2CO)N3C)C(O)C(O)C1O

>  <smiles>  (3) 
[H]OC([H])([H])C1([H])C([H])(OC2([H])OC([H])(C([H])([H])[H])C([H])(O[H])C([H])(O[H])C2([H])O[H])C([H])([H])C2([H])C([H])([H])C([H])([H])C1([H])[N+]2([H])C([H])([H])[H]

$$$$
1:0:0
     RDKit          3D

 61 65  0  0  1  0  0  0  0  0999 V2000
    8.9675   -3.4284    0.2101 C   0  0  0  0  0  0  0  0  0  0  0  0
    7.5642   -3.0801   -0.2637 C   0  0  0  0  0  0  0  0  0  0  0  0
    7.3827   -2.2572   -1.1526 O   0  0  0  0  0  0  0  0  0  0  0  0
    6.6097   -3.7895    0.3935 O   0  0  0  0  0  0  0  0  0  0  0  0
    5.2028   -3.7659    0.0799 C   0  0  2  0  0  0  0  0  0  0  0  0
    5.0068   -4.1409   -1.3967 C   0  0  0  0  0  0  0  0  0  0  0  0
    4.4447   -3.3662   -2.3458 C   0  0  0  0  0  0  0  0  0  0  0  0
    3.9217   -2.0372   -2.0209 C   0  0  0  0  0  0  0  0  0  0  0  0
    3.3922   -1.3377   -2.8812 O   0  0  0  0  0  0  0  0  0  0  0  0
    4.0563   -1.5828   -0.6280 C   0  0  0  0  0  0  0  0  0  0  0  0
    4.6449   -2.3511    0.3173 C   0  0  0  0  0  0  0  0  0  0  0  0
    4.7526   -1.8778    1.7495 C   0  0  0  0  0  0  0  0  0  0  0  0
    3.9885   -2.8371    2.6570 C   0  0  0  0  0  0  0  0  0  0  0  0
    4.4636   -4.3094    2.5483 C   0  0  1  0  0  0  0  0  0  0  0  0
    3.6209   -5.1665    3.5567 C   0  0  2  0  0  0  0  0  0  0  0  0
    4.3429   -6.4166    4.1209 C   0  0  0  0  0  0  0  0  0  0  0  0
    3.4428   -7.2763    4.9808 C   0  0  0  0  0  0  0  0  0  0  0  0
    2.0990   -7.1943    4.9982 C   0  0  0  0  0  0  0  0  0  0  0  0
    1.2874   -7.9000    6.0779 C   0  0  0  0  0  0  0  0  0  0  0  0
    0.6582   -6.8294    6.9777 C   0  0  0  0  0  0  0  0  0  0  0  0
    0.3603   -7.1200    8.1376 O   0  0  0  0  0  0  0  0  0  0  0  0
    0.4004   -5.4900    6.4015 C   0  0  0  0  0  0  0  0  0  0  0  0
    0.6788   -5.2224    5.1049 C   0  0  0  0  0  0  0  0  0  0  0  0
    1.3018   -6.2193    4.1192 C   0  0  2  0  0  0  0  0  0  0  0  0
    0.1149   -6.9447    3.4393 C   0  0  0  0  0  0  0  0  0  0  0  0
    2.1955   -5.4809    3.0460 C   0  0  2  0  0  0  0  0  0  0  0  0
    2.3040   -6.1445    1.6461 C   0  0  0  0  0  0  0  0  0  0  0  0
    3.0782   -5.2817    0.6086 C   0  0  1  0  0  0  0  0  0  0  0  0
    2.2387   -4.2016    0.2818 O   0  0  0  0  0  0  0  0  0  0  0  0
    4.5147   -4.8361    1.0564 C   0  0  1  0  0  0  0  0  0  0  0  0
    5.3892   -6.1229    0.9889 C   0  0  0  0  0  0  0  0  0  0  0  0
    9.0734   -3.2362    1.2761 H   0  0  0  0  0  0  0  0  0  0  0  0
    9.7098   -2.8280   -0.3175 H   0  0  0  0  0  0  0  0  0  0  0  0
    9.1716   -4.4836    0.0297 H   0  0  0  0  0  0  0  0  0  0  0  0
    5.3924   -5.0937   -1.7049 H   0  0  0  0  0  0  0  0  0  0  0  0
    4.3545   -3.7080   -3.3671 H   0  0  0  0  0  0  0  0  0  0  0  0
    3.6432   -0.6164   -0.3823 H   0  0  0  0  0  0  0  0  0  0  0  0
    5.8042   -1.8354    2.0344 H   0  0  0  0  0  0  0  0  0  0  0  0
    4.3463   -0.8680    1.8445 H   0  0  0  0  0  0  0  0  0  0  0  0
    4.0906   -2.4874    3.6855 H   0  0  0  0  0  0  0  0  0  0  0  0
    2.9273   -2.7558    2.4158 H   0  0  0  0  0  0  0  0  0  0  0  0
    5.4889   -4.2954    2.9199 H   0  0  0  0  0  0  0  0  0  0  0  0
    3.4804   -4.5443    4.4419 H   0  0  0  0  0  0  0  0  0  0  0  0
    4.7677   -7.0689    3.3664 H   0  0  0  0  0  0  0  0  0  0  0  0
    5.1751   -6.0883    4.7465 H   0  0  0  0  0  0  0  0  0  0  0  0
    3.9478   -7.9484    5.6619 H   0  0  0  0  0  0  0  0  0  0  0  0
    0.5078   -8.5254    5.6437 H   0  0  0  0  0  0  0  0  0  0  0  0
    1.9249   -8.5545    6.6729 H   0  0  0  0  0  0  0  0  0  0  0  0
   -0.0285   -4.7433    7.0574 H   0  0  0  0  0  0  0  0  0  0  0  0
    0.4645   -4.2363    4.7174 H   0  0  0  0  0  0  0  0  0  0  0  0
   -0.6143   -7.3159    4.1625 H   0  0  0  0  0  0  0  0  0  0  0  0
    0.4394   -7.8024    2.8458 H   0  0  0  0  0  0  0  0  0  0  0  0
   -0.4251   -6.2642    2.7839 H   0  0  0  0  0  0  0  0  0  0  0  0
    1.6936   -4.5323    2.8641 H   0  0  0  0  0  0  0  0  0  0  0  0
    2.7643   -7.1245    1.7468 H   0  0  0  0  0  0  0  0  0  0  0  0
    1.3176   -6.3371    1.2251 H   0  0  0  0  0  0  0  0  0  0  0  0
    3.1638   -5.8632   -0.3104 H   0  0  0  0  0  0  0  0  0  0  0  0
    2.6206   -3.7181   -0.4344 H   0  0  0  0  0  0  0  0  0  0  0  0
    4.8596   -7.0276    1.2706 H   0  0  0  0  0  0  0  0  0  0  0  0
    6.2778   -6.0584    1.6165 H   0  0  0  0  0  0  0  0  0  0  0  0
    5.7386   -6.3221   -0.0185 H   0  0  0  0  0  0  0  0  0  0  0  0
  1  2  1  0
  1 32  1  0
  1 33  1  0
  1 34  1  0
  2  3  2  0
  2  4  1  0
  5  4  1  1
  5 11  1  0
  5 30  1  0
  5  6  1  0
  6  7  2  0
  6 35  1  0
  7  8  1  0
  7 36  1  0
  8  9  2  0
  8 10  1  0
 10 11  2  0
 10 37  1  0
 11 12  1  0
 12 13  1  0
 12 38  1  0
 12 39  1  0
 13 14  1  0
 13 40  1  0
 13 41  1  0
 14 30  1  0
 14 15  1  0
 14 42  1  1
 15 26  1  0
 15 16  1  0
 15 43  1  1
 16 17  1  0
 16 44  1  0
 16 45  1  0
 17 18  2  0
 17 46  1  0
 18 24  1  0
 18 19  1  0
 19 20  1  0
 19 47  1  0
 19 48  1  0
 20 21  2  0
 20 22  1  0
 22 23  2  0
 22 49  1  0
 23 24  1  0
 23 50  1  0
 24 25  1  6
 24 26  1  0
 25 51  1  0
 25 52  1  0
 25 53  1  0
 26 27  1  0
 26 54  1  6
 27 28  1  0
 27 55  1  0
 27 56  1  0
 28 29  1  0
 28 30  1  0
 28 57  1  6
 29 58  1  0
 30 31  1  1
 31 59  1  0
 31 60  1  0
 31 61  1  0
M  END
>  <i_m_ct_stereo_status>  (4) 
1

>  <s_m_source_file>  (4) 
/var/tmp/pbs.5076255.sched01/tmp9d3cgwpa/0mc_8ktg4.sdf

>  <i_m_source_file_index>  (4) 
2

>  <i_lp_mmshare_version>  (4) 
48012

>  <i_f3d_flags>  (4) 
0

>  <s_epik_input>  (4) 
W0NIM11DKD1PKU9bQ0BAXTEyQyg9W0NIXUMoPU8pW0NIXT1bQ0hdMSlbQ0gyXVtDSDJdW0NASF0zW0NASF00W0NAQEhdKFtDSDJdW0NAQEhdKFtPSF0pW0NAQF0yM1tDSDNdKVtDQEBdNShbQ0gzXSlDKD1bQ0hdW0NIMl00KVtDSDJdQyg9TylbQ0hdPVtDSF01

>  <s_epik_cmdline>  (4) 
J2VwaWtfcHl0aG9uJywgJy1waHQnLCAnMi4wJywgJy1waCcsICc3LjAnLCAnLXRuJywgJzgnLCAnLW1hJywgJzIwMCcsICctaW1hZScsICc8aW5maWxlLm1hZT4nLCAnLW9tYWUnLCAnPG91dGZpbGUubWFlPic=

>  <r_lp_tautomer_probability>  (4) 
1

>  <r_epik_Ionization_Penalty>  (4) 
4.31455e-08

>  <r_epik_Ionization_Penalty_Charging>  (4) 
0

>  <r_epik_Ionization_Penalty_Neutral>  (4) 
4.31455e-08

>  <r_epik_State_Penalty>  (4) 
-0

>  <r_epik_Charging_Adjusted_Penalty>  (4) 
0

>  <i_epik_Tot_Q>  (4) 
0

>  <i_epik_Tot_abs_Q>  (4) 
0

>  <s_epik_Chemistry_Notes>  (4) 
This compound has an ester and may undergo hydrolysis at high or low pH.

>  <s_lp_Force_Field>  (4) 
OPLS3e

>  <r_lp_Energy>  (4) 
54.9358

>  <b_lp_Chiralities_Consistent>  (4) 
1

>  <s_lp_Variant>  (4) 
1:0-1

>  <s_i_glide_gridfile>  (4) 
pfpi4k_grid

>  <i_i_glide_lignum>  (4) 
2

>  <i_i_glide_rotatable_bonds>  (4) 
3

>  <r_i_docking_score>  (4) 
-3.35155

>  <r_i_glide_ligand_efficiency>  (4) 
-0.108115

>  <r_i_glide_ligand_efficiency_sa>  (4) 
-0.339629

>  <r_i_glide_ligand_efficiency_ln>  (4) 
-0.755878

>  <r_i_glide_gscore>  (4) 
-3.35155

>  <r_i_glide_lipo>  (4) 
-0.350496

>  <r_i_glide_hbond>  (4) 
-0.160066

>  <r_i_glide_metal>  (4) 
-0

>  <r_i_glide_rewards>  (4) 
-0.700847

>  <r_i_glide_evdw>  (4) 
-31.7474

>  <r_i_glide_ecoul>  (4) 
-4.20344

>  <r_i_glide_erotb>  (4) 
0.110976

>  <r_i_glide_esite>  (4) 
-0.0332343

>  <r_i_glide_emodel>  (4) 
-43.369

>  <r_i_glide_energy>  (4) 
-35.9508

>  <r_i_glide_einternal>  (4) 
0.691429

>  <r_i_glide_intrahb_reward>  (4) 
-0

>  <i_i_glide_confnum>  (4) 
1

>  <i_i_glide_posenum>  (4) 
35

>  <r_i_glide_eff_state_penalty>  (4) 
0

>  <ligand_id>  (4) 
1

>  <original_smiles>  (4) 
CC(=O)OC12C=CC(=O)C=C1CCC1C3CC=C4CC(=O)C=CC4(C)C3CC(O)C12C

>  <smiles>  (4) 
[H]OC1([H])C([H])([H])C2([H])C3(C([H])([H])[H])C([H])=C([H])C(=O)C([H])([H])C3=C([H])C([H])([H])C2([H])C2([H])C([H])([H])C([H])([H])C3=C([H])C(=O)C([H])=C([H])C3(OC(=O)C([H])([H])[H])C12C([H])([H])[H]

$$$$
1:0:1
     RDKit          3D

 61 65  0  0  1  0  0  0  0  0999 V2000
   -0.1191    2.0676    8.7603 C   0  0  0  0  0  0  0  0  0  0  0  0
   -0.4593    2.4311    7.3182 C   0  0  0  0  0  0  0  0  0  0  0  0
   -1.4715    3.0782    7.0456 O   0  0  0  0  0  0  0  0  0  0  0  0
    0.4592    1.9445    6.4340 O   0  0  0  0  0  0  0  0  0  0  0  0
    0.4027    2.1354    5.0034 C   0  0  2  0  0  0  0  0  0  0  0  0
    0.4915    3.6397    4.6880 C   0  0  0  0  0  0  0  0  0  0  0  0
   -0.4396    4.3589    4.0285 C   0  0  0  0  0  0  0  0  0  0  0  0
   -1.6754    3.7318    3.5403 C   0  0  0  0  0  0  0  0  0  0  0  0
   -2.5294    4.3873    2.9428 O   0  0  0  0  0  0  0  0  0  0  0  0
   -1.8542    2.3007    3.8103 C   0  0  0  0  0  0  0  0  0  0  0  0
   -0.9288    1.5731    4.4707 C   0  0  0  0  0  0  0  0  0  0  0  0
   -1.1274    0.0990    4.7357 C   0  0  0  0  0  0  0  0  0  0  0  0
   -0.0041   -0.6772    4.0597 C   0  0  0  0  0  0  0  0  0  0  0  0
    1.4176   -0.2401    4.5002 C   0  0  1  0  0  0  0  0  0  0  0  0
    2.4579   -1.1433    3.7494 C   0  0  2  0  0  0  0  0  0  0  0  0
    3.7860   -1.3824    4.5103 C   0  0  0  0  0  0  0  0  0  0  0  0
    4.8018   -2.1431    3.6887 C   0  0  0  0  0  0  0  0  0  0  0  0
    4.7406   -2.3009    2.3551 C   0  0  0  0  0  0  0  0  0  0  0  0
    5.6422   -3.2971    1.6397 C   0  0  0  0  0  0  0  0  0  0  0  0
    4.7773   -4.4497    1.1130 C   0  0  0  0  0  0  0  0  0  0  0  0
    5.2919   -5.5502    0.9405 O   0  0  0  0  0  0  0  0  0  0  0  0
    3.3579   -4.1714    0.8120 C   0  0  0  0  0  0  0  0  0  0  0  0
    2.8499   -2.9280    0.9696 C   0  0  0  0  0  0  0  0  0  0  0  0
    3.6233   -1.7098    1.4860 C   0  0  2  0  0  0  0  0  0  0  0  0
    4.2116   -1.0256    0.2318 C   0  0  0  0  0  0  0  0  0  0  0  0
    2.6748   -0.7226    2.2766 C   0  0  2  0  0  0  0  0  0  0  0  0
    3.0397    0.7833    2.2438 C   0  0  0  0  0  0  0  0  0  0  0  0
    1.9857    1.7133    2.9104 C   0  0  1  0  0  0  0  0  0  0  0  0
    0.8529    1.7447    2.0602 O   0  0  0  0  0  0  0  0  0  0  0  0
    1.6457    1.3280    4.3981 C   0  0  1  0  0  0  0  0  0  0  0  0
    2.8923    1.7324    5.2478 C   0  0  0  0  0  0  0  0  0  0  0  0
   -0.0310    0.9867    8.8749 H   0  0  0  0  0  0  0  0  0  0  0  0
   -0.8926    2.4218    9.4417 H   0  0  0  0  0  0  0  0  0  0  0  0
    0.8272    2.5245    9.0539 H   0  0  0  0  0  0  0  0  0  0  0  0
    1.3633    4.1663    5.0474 H   0  0  0  0  0  0  0  0  0  0  0  0
   -0.3028    5.4151    3.8372 H   0  0  0  0  0  0  0  0  0  0  0  0
   -2.7611    1.8422    3.4545 H   0  0  0  0  0  0  0  0  0  0  0  0
   -1.1231   -0.0870    5.8095 H   0  0  0  0  0  0  0  0  0  0  0  0
   -2.0965   -0.2296    4.3549 H   0  0  0  0  0  0  0  0  0  0  0  0
   -0.1477   -1.7411    4.2555 H   0  0  0  0  0  0  0  0  0  0  0  0
   -0.1153   -0.5526    2.9819 H   0  0  0  0  0  0  0  0  0  0  0  0
    1.4689   -0.5015    5.5572 H   0  0  0  0  0  0  0  0  0  0  0  0
    2.0177   -2.1395    3.7020 H   0  0  0  0  0  0  0  0  0  0  0  0
    4.2728   -0.4785    4.8586 H   0  0  0  0  0  0  0  0  0  0  0  0
    3.5770   -1.9787    5.3988 H   0  0  0  0  0  0  0  0  0  0  0  0
    5.5873   -2.6349    4.2472 H   0  0  0  0  0  0  0  0  0  0  0  0
    6.1774   -2.8306    0.8114 H   0  0  0  0  0  0  0  0  0  0  0  0
    6.3927   -3.7008    2.3203 H   0  0  0  0  0  0  0  0  0  0  0  0
    2.7539   -4.9880    0.4388 H   0  0  0  0  0  0  0  0  0  0  0  0
    1.8168   -2.7428    0.7114 H   0  0  0  0  0  0  0  0  0  0  0  0
    4.7227   -1.7263   -0.4305 H   0  0  0  0  0  0  0  0  0  0  0  0
    4.9228   -0.2355    0.4797 H   0  0  0  0  0  0  0  0  0  0  0  0
    3.4068   -0.5995   -0.3651 H   0  0  0  0  0  0  0  0  0  0  0  0
    1.7135   -0.7755    1.7656 H   0  0  0  0  0  0  0  0  0  0  0  0
    4.0140    0.9159    2.7080 H   0  0  0  0  0  0  0  0  0  0  0  0
    3.1668    1.1255    1.2182 H   0  0  0  0  0  0  0  0  0  0  0  0
    2.3949    2.7271    2.8954 H   0  0  0  0  0  0  0  0  0  0  0  0
    0.7479    2.6224    1.6900 H   0  0  0  0  0  0  0  0  0  0  0  0
    3.8356    1.5704    4.7384 H   0  0  0  0  0  0  0  0  0  0  0  0
    2.9371    1.1864    6.1908 H   0  0  0  0  0  0  0  0  0  0  0  0
    2.9097    2.7898    5.5022 H   0  0  0  0  0  0  0  0  0  0  0  0
  1  2  1  0
  1 32  1  0
  1 33  1  0
  1 34  1  0
  2  3  2  0
  2  4  1  0
  5  4  1  1
  5 11  1  0
  5 30  1  0
  5  6  1  0
  6  7  2  0
  6 35  1  0
  7  8  1  0
  7 36  1  0
  8  9  2  0
  8 10  1  0
 10 11  2  0
 10 37  1  0
 11 12  1  0
 12 13  1  0
 12 38  1  0
 12 39  1  0
 13 14  1  0
 13 40  1  0
 13 41  1  0
 14 30  1  0
 14 15  1  0
 14 42  1  1
 15 26  1  0
 15 16  1  0
 15 43  1  6
 16 17  1  0
 16 44  1  0
 16 45  1  0
 17 18  2  0
 17 46  1  0
 18 24  1  0
 18 19  1  0
 19 20  1  0
 19 47  1  0
 19 48  1  0
 20 21  2  0
 20 22  1  0
 22 23  2  0
 22 49  1  0
 23 24  1  0
 23 50  1  0
 24 25  1  6
 24 26  1  0
 25 51  1  0
 25 52  1  0
 25 53  1  0
 26 27  1  0
 26 54  1  6
 27 28  1  0
 27 55  1  0
 27 56  1  0
 28 29  1  0
 28 30  1  0
 28 57  1  1
 29 58  1  0
 30 31  1  1
 31 59  1  0
 31 60  1  0
 31 61  1  0
M  END
>  <i_m_ct_stereo_status>  (5) 
1

>  <s_m_source_file>  (5) 
/var/tmp/pbs.5076255.sched01/tmp9d3cgwpa/0mc_8ktg4.sdf

>  <i_m_source_file_index>  (5) 
2

>  <i_lp_mmshare_version>  (5) 
48012

>  <i_f3d_flags>  (5) 
0

>  <s_epik_input>  (5) 
W0NIM11DKD1PKU9bQ0BAXTEyQyg9W0NIXUMoPU8pW0NIXT1bQ0hdMSlbQ0gyXVtDSDJdW0NASF0zW0NASF00W0NAQEhdKFtDSDJdW0NAQEhdKFtPSF0pW0NAQF0yM1tDSDNdKVtDQEBdNShbQ0gzXSlDKD1bQ0hdW0NIMl00KVtDSDJdQyg9TylbQ0hdPVtDSF01

>  <s_epik_cmdline>  (5) 
J2VwaWtfcHl0aG9uJywgJy1waHQnLCAnMi4wJywgJy1waCcsICc3LjAnLCAnLXRuJywgJzgnLCAnLW1hJywgJzIwMCcsICctaW1hZScsICc8aW5maWxlLm1hZT4nLCAnLW9tYWUnLCAnPG91dGZpbGUubWFlPic=

>  <r_lp_tautomer_probability>  (5) 
1

>  <r_epik_Ionization_Penalty>  (5) 
4.31455e-08

>  <r_epik_Ionization_Penalty_Charging>  (5) 
0

>  <r_epik_Ionization_Penalty_Neutral>  (5) 
4.31455e-08

>  <r_epik_State_Penalty>  (5) 
-0

>  <r_epik_Charging_Adjusted_Penalty>  (5) 
0

>  <i_epik_Tot_Q>  (5) 
0

>  <i_epik_Tot_abs_Q>  (5) 
0

>  <s_epik_Chemistry_Notes>  (5) 
This compound has an ester and may undergo hydrolysis at high or low pH.

>  <s_lp_Force_Field>  (5) 
OPLS3e

>  <r_lp_Energy>  (5) 
54.9358

>  <b_lp_Chiralities_Consistent>  (5) 
1

>  <s_lp_Variant>  (5) 
1:0-1

>  <s_i_glide_gridfile>  (5) 
pfpi4k_grid

>  <i_i_glide_lignum>  (5) 
2

>  <i_i_glide_rotatable_bonds>  (5) 
3

>  <r_i_docking_score>  (5) 
-3.3134

>  <r_i_glide_ligand_efficiency>  (5) 
-0.106884

>  <r_i_glide_ligand_efficiency_sa>  (5) 
-0.335763

>  <r_i_glide_ligand_efficiency_ln>  (5) 
-0.747274

>  <r_i_glide_gscore>  (5) 
-3.3134

>  <r_i_glide_lipo>  (5) 
-0.220349

>  <r_i_glide_hbond>  (5) 
-0.267673

>  <r_i_glide_metal>  (5) 
-0

>  <r_i_glide_rewards>  (5) 
-0.574694

>  <r_i_glide_evdw>  (5) 
-30.1873

>  <r_i_glide_ecoul>  (5) 
-5.13534

>  <r_i_glide_erotb>  (5) 
0.110976

>  <r_i_glide_esite>  (5) 
-0.0819993

>  <r_i_glide_emodel>  (5) 
-42.2336

>  <r_i_glide_energy>  (5) 
-35.3226

>  <r_i_glide_einternal>  (5) 
1.46456

>  <r_i_glide_intrahb_reward>  (5) 
-0

>  <i_i_glide_confnum>  (5) 
2

>  <i_i_glide_posenum>  (5) 
2

>  <r_i_glide_eff_state_penalty>  (5) 
0

>  <ligand_id>  (5) 
1

>  <original_smiles>  (5) 
CC(=O)OC12C=CC(=O)C=C1CCC1C3CC=C4CC(=O)C=CC4(C)C3CC(O)C12C

>  <smiles>  (5) 
[H]OC1([H])C([H])([H])C2([H])C3(C([H])([H])[H])C([H])=C([H])C(=O)C([H])([H])C3=C([H])C([H])([H])C2([H])C2([H])C([H])([H])C([H])([H])C3=C([H])C(=O)C([H])=C([H])C3(OC(=O)C([H])([H])[H])C12C([H])([H])[H]

$$$$
1:0:2
     RDKit          3D

 61 65  0  0  1  0  0  0  0  0999 V2000
   -1.4313    2.6491    7.0656 C   0  0  0  0  0  0  0  0  0  0  0  0
   -0.4231    1.5358    7.3977 C   0  0  0  0  0  0  0  0  0  0  0  0
   -0.4761    0.9599    8.4877 O   0  0  0  0  0  0  0  0  0  0  0  0
    0.5149    1.2075    6.4722 O   0  0  0  0  0  0  0  0  0  0  0  0
    0.6422    1.6105    5.1016 C   0  0  2  0  0  0  0  0  0  0  0  0
    0.8686    3.1117    5.0424 C   0  0  0  0  0  0  0  0  0  0  0  0
    0.0383    3.9929    4.4169 C   0  0  0  0  0  0  0  0  0  0  0  0
   -1.1811    3.5593    3.7715 C   0  0  0  0  0  0  0  0  0  0  0  0
   -1.9880    4.3779    3.3171 O   0  0  0  0  0  0  0  0  0  0  0  0
   -1.4751    2.1426    3.7762 C   0  0  0  0  0  0  0  0  0  0  0  0
   -0.6547    1.2371    4.3957 C   0  0  0  0  0  0  0  0  0  0  0  0
   -0.9668   -0.2453    4.4175 C   0  0  0  0  0  0  0  0  0  0  0  0
    0.1562   -0.9905    3.7077 C   0  0  0  0  0  0  0  0  0  0  0  0
    1.5562   -0.7400    4.3046 C   0  0  1  0  0  0  0  0  0  0  0  0
    2.5863   -1.5767    3.4674 C   0  0  2  0  0  0  0  0  0  0  0  0
    3.8344   -2.0293    4.2605 C   0  0  0  0  0  0  0  0  0  0  0  0
    4.8583   -2.7104    3.3854 C   0  0  0  0  0  0  0  0  0  0  0  0
    4.8793   -2.6298    2.0418 C   0  0  0  0  0  0  0  0  0  0  0  0
    5.7597   -3.5578    1.2179 C   0  0  0  0  0  0  0  0  0  0  0  0
    4.8716   -4.5361    0.4511 C   0  0  0  0  0  0  0  0  0  0  0  0
    5.3189   -5.6349    0.1339 O   0  0  0  0  0  0  0  0  0  0  0  0
    3.4979   -4.1082    0.1207 C   0  0  0  0  0  0  0  0  0  0  0  0
    3.0401   -2.8811    0.4575 C   0  0  0  0  0  0  0  0  0  0  0  0
    3.8573   -1.8280    1.2116 C   0  0  2  0  0  0  0  0  0  0  0  0
    4.5765   -0.9818    0.1373 C   0  0  0  0  0  0  0  0  0  0  0  0
    2.9300   -0.9292    2.1039 C   0  0  2  0  0  0  0  0  0  0  0  0
    3.4097    0.5218    2.3533 C   0  0  0  0  0  0  0  0  0  0  0  0
    2.3683    1.3939    3.0916 C   0  0  1  0  0  0  0  0  0  0  0  0
    1.3267    1.6523    2.1666 O   0  0  0  0  0  0  0  0  0  0  0  0
    1.8834    0.8043    4.4684 C   0  0  1  0  0  0  0  0  0  0  0  0
    3.0805    0.9698    5.4654 C   0  0  0  0  0  0  0  0  0  0  0  0
   -0.9070    3.5789    6.8219 H   0  0  0  0  0  0  0  0  0  0  0  0
   -2.1104    2.8722    7.9291 H   0  0  0  0  0  0  0  0  0  0  0  0
   -2.0460    2.3326    6.2067 H   0  0  0  0  0  0  0  0  0  0  0  0
    1.7379    3.5034    5.5520 H   0  0  0  0  0  0  0  0  0  0  0  0
    0.2644    5.0519    4.4416 H   0  0  0  0  0  0  0  0  0  0  0  0
   -2.3610    1.7885    3.2702 H   0  0  0  0  0  0  0  0  0  0  0  0
   -1.0429   -0.5694    5.4509 H   0  0  0  0  0  0  0  0  0  0  0  0
   -1.9190   -0.4449    3.9389 H   0  0  0  0  0  0  0  0  0  0  0  0
   -0.0728   -2.0596    3.7144 H   0  0  0  0  0  0  0  0  0  0  0  0
    0.1439   -0.6796    2.6650 H   0  0  0  0  0  0  0  0  0  0  0  0
    1.5190   -1.1764    5.3058 H   0  0  0  0  0  0  0  0  0  0  0  0
    2.0824   -2.5180    3.2229 H   0  0  0  0  0  0  0  0  0  0  0  0
    4.3529   -1.2282    4.7708 H   0  0  0  0  0  0  0  0  0  0  0  0
    3.5245   -2.7471    5.0193 H   0  0  0  0  0  0  0  0  0  0  0  0
    5.5647   -3.3430    3.8948 H   0  0  0  0  0  0  0  0  0  0  0  0
    6.3852   -2.9956    0.5195 H   0  0  0  0  0  0  0  0  0  0  0  0
    6.4368   -4.1142    1.8651 H   0  0  0  0  0  0  0  0  0  0  0  0
    2.8655   -4.8073   -0.4229 H   0  0  0  0  0  0  0  0  0  0  0  0
    2.0400   -2.5859    0.1702 H   0  0  0  0  0  0  0  0  0  0  0  0
    5.0855   -1.6003   -0.6019 H   0  0  0  0  0  0  0  0  0  0  0  0
    5.3224   -0.3079    0.5696 H   0  0  0  0  0  0  0  0  0  0  0  0
    3.8514   -0.3833   -0.4100 H   0  0  0  0  0  0  0  0  0  0  0  0
    2.0062   -0.8297    1.5359 H   0  0  0  0  0  0  0  0  0  0  0  0
    4.3537    0.5205    2.8902 H   0  0  0  0  0  0  0  0  0  0  0  0
    3.6136    1.0313    1.4032 H   0  0  0  0  0  0  0  0  0  0  0  0
    2.8258    2.3610    3.2854 H   0  0  0  0  0  0  0  0  0  0  0  0
    1.0230    0.8265    1.8152 H   0  0  0  0  0  0  0  0  0  0  0  0
    4.0577    0.8292    5.0080 H   0  0  0  0  0  0  0  0  0  0  0  0
    3.0181    0.2780    6.3085 H   0  0  0  0  0  0  0  0  0  0  0  0
    3.1427    1.9649    5.9014 H   0  0  0  0  0  0  0  0  0  0  0  0
  1  2  1  0
  1 32  1  0
  1 33  1  0
  1 34  1  0
  2  3  2  0
  2  4  1  0
  5  4  1  1
  5 11  1  0
  5 30  1  0
  5  6  1  0
  6  7  2  0
  6 35  1  0
  7  8  1  0
  7 36  1  0
  8  9  2  0
  8 10  1  0
 10 11  2  0
 10 37  1  0
 11 12  1  0
 12 13  1  0
 12 38  1  0
 12 39  1  0
 13 14  1  0
 13 40  1  0
 13 41  1  0
 14 30  1  0
 14 15  1  0
 14 42  1  1
 15 26  1  0
 15 16  1  0
 15 43  1  6
 16 17  1  0
 16 44  1  0
 16 45  1  0
 17 18  2  0
 17 46  1  0
 18 24  1  0
 18 19  1  0
 19 20  1  0
 19 47  1  0
 19 48  1  0
 20 21  2  0
 20 22  1  0
 22 23  2  0
 22 49  1  0
 23 24  1  0
 23 50  1  0
 24 25  1  6
 24 26  1  0
 25 51  1  0
 25 52  1  0
 25 53  1  0
 26 27  1  0
 26 54  1  6
 27 28  1  0
 27 55  1  0
 27 56  1  0
 28 29  1  0
 28 30  1  0
 28 57  1  1
 29 58  1  0
 30 31  1  1
 31 59  1  0
 31 60  1  0
 31 61  1  0
M  END
>  <i_m_ct_stereo_status>  (6) 
1

>  <s_m_source_file>  (6) 
/var/tmp/pbs.5076255.sched01/tmp9d3cgwpa/0mc_8ktg4.sdf

>  <i_m_source_file_index>  (6) 
2

>  <i_lp_mmshare_version>  (6) 
48012

>  <i_f3d_flags>  (6) 
0

>  <s_epik_input>  (6) 
W0NIM11DKD1PKU9bQ0BAXTEyQyg9W0NIXUMoPU8pW0NIXT1bQ0hdMSlbQ0gyXVtDSDJdW0NASF0zW0NASF00W0NAQEhdKFtDSDJdW0NAQEhdKFtPSF0pW0NAQF0yM1tDSDNdKVtDQEBdNShbQ0gzXSlDKD1bQ0hdW0NIMl00KVtDSDJdQyg9TylbQ0hdPVtDSF01

>  <s_epik_cmdline>  (6) 
J2VwaWtfcHl0aG9uJywgJy1waHQnLCAnMi4wJywgJy1waCcsICc3LjAnLCAnLXRuJywgJzgnLCAnLW1hJywgJzIwMCcsICctaW1hZScsICc8aW5maWxlLm1hZT4nLCAnLW9tYWUnLCAnPG91dGZpbGUubWFlPic=

>  <r_lp_tautomer_probability>  (6) 
1

>  <r_epik_Ionization_Penalty>  (6) 
4.31455e-08

>  <r_epik_Ionization_Penalty_Charging>  (6) 
0

>  <r_epik_Ionization_Penalty_Neutral>  (6) 
4.31455e-08

>  <r_epik_State_Penalty>  (6) 
-0

>  <r_epik_Charging_Adjusted_Penalty>  (6) 
0

>  <i_epik_Tot_Q>  (6) 
0

>  <i_epik_Tot_abs_Q>  (6) 
0

>  <s_epik_Chemistry_Notes>  (6) 
This compound has an ester and may undergo hydrolysis at high or low pH.

>  <s_lp_Force_Field>  (6) 
OPLS3e

>  <r_lp_Energy>  (6) 
54.9358

>  <b_lp_Chiralities_Consistent>  (6) 
1

>  <s_lp_Variant>  (6) 
1:0-1

>  <s_i_glide_gridfile>  (6) 
pfpi4k_grid

>  <i_i_glide_lignum>  (6) 
2

>  <i_i_glide_rotatable_bonds>  (6) 
3

>  <r_i_docking_score>  (6) 
-3.14717

>  <r_i_glide_ligand_efficiency>  (6) 
-0.101521

>  <r_i_glide_ligand_efficiency_sa>  (6) 
-0.318918

>  <r_i_glide_ligand_efficiency_ln>  (6) 
-0.709782

>  <r_i_glide_gscore>  (6) 
-3.14717

>  <r_i_glide_lipo>  (6) 
-0.239459

>  <r_i_glide_hbond>  (6) 
-0.140907

>  <r_i_glide_metal>  (6) 
-0

>  <r_i_glide_rewards>  (6) 
-0.598785

>  <r_i_glide_evdw>  (6) 
-30.3155

>  <r_i_glide_ecoul>  (6) 
-4.50971

>  <r_i_glide_erotb>  (6) 
0.110976

>  <r_i_glide_esite>  (6) 
-0.0867576

>  <r_i_glide_emodel>  (6) 
-39.2506

>  <r_i_glide_energy>  (6) 
-34.8252

>  <r_i_glide_einternal>  (6) 
4.94519

>  <r_i_glide_intrahb_reward>  (6) 
-0

>  <i_i_glide_confnum>  (6) 
1

>  <i_i_glide_posenum>  (6) 
19

>  <r_i_glide_eff_state_penalty>  (6) 
0

>  <ligand_id>  (6) 
1

>  <original_smiles>  (6) 
CC(=O)OC12C=CC(=O)C=C1CCC1C3CC=C4CC(=O)C=CC4(C)C3CC(O)C12C

>  <smiles>  (6) 
[H]OC1([H])C([H])([H])C2([H])C3(C([H])([H])[H])C([H])=C([H])C(=O)C([H])([H])C3=C([H])C([H])([H])C2([H])C2([H])C([H])([H])C([H])([H])C3=C([H])C(=O)C([H])=C([H])C3(OC(=O)C([H])([H])[H])C12C([H])([H])[H]

$$$$
2:0:0
     RDKit          3D

 49 51  0  0  1  0  0  0  0  0999 V2000
   -2.5293    4.1112    2.8976 C   0  0  0  0  0  0  0  0  0  0  0  0
   -2.8537    2.9579    3.6634 O   0  0  0  0  0  0  0  0  0  0  0  0
   -1.7729    2.3009    4.2041 C   0  0  0  0  0  0  0  0  0  0  0  0
   -1.6613    2.2947    5.6742 C   0  0  0  0  0  0  0  0  0  0  0  0
   -2.7580    3.0319    6.4637 C   0  0  0  0  0  0  0  0  0  0  0  0
   -0.5869    1.6162    6.2984 C   0  0  0  0  0  0  0  0  0  0  0  0
   -0.4982    1.6203    7.5487 O   0  0  0  0  0  0  0  0  0  0  0  0
    0.3530    0.9753    5.4740 C   0  0  0  0  0  0  0  0  0  0  0  0
    0.2731    1.0668    4.0490 C   0  0  0  0  0  0  0  0  0  0  0  0
   -0.8510    1.6889    3.4102 C   0  0  0  0  0  0  0  0  0  0  0  0
   -0.9701    1.6484    2.0833 O   0  0  0  0  0  0  0  0  0  0  0  0
    1.3569    0.4589    3.5297 C   0  0  0  0  0  0  0  0  0  0  0  0
    1.7323    0.0064    2.1450 C   0  0  0  0  0  0  0  0  0  0  0  0
    2.7291   -1.1463    2.4129 C   0  0  1  0  0  0  0  0  0  0  0  0
    4.0326   -0.6324    2.1900 O   0  0  0  0  0  0  0  0  0  0  0  0
    2.5004   -1.5521    3.9129 C   0  0  0  0  0  0  0  0  0  0  0  0
    1.3791   -2.3832    4.0120 O   0  0  0  0  0  0  0  0  0  0  0  0
    1.4808   -3.7041    3.4409 C   0  0  0  0  0  0  0  0  0  0  0  0
    3.6523   -2.1874    4.3623 O   0  0  0  0  0  0  0  0  0  0  0  0
    3.6768   -2.7260    5.6779 C   0  0  0  0  0  0  0  0  0  0  0  0
    2.2553   -0.1391    4.5557 C   0  0  2  0  0  0  0  0  0  0  0  0
    1.4430    0.2325    5.8089 C   0  0  0  0  0  0  0  0  0  0  0  0
    2.0347   -0.0030    7.1857 C   0  0  0  0  0  0  0  0  0  0  0  0
    1.5436   -1.2286    7.7482 O   0  0  0  0  0  0  0  0  0  0  0  0
    0.6144   -1.2964    8.7225 C   0  0  0  0  0  0  0  0  0  0  0  0
    0.6077   -0.1753    9.5193 N   0  0  0  0  0  0  0  0  0  0  0  0
   -0.1332   -2.2616    8.8681 O   0  0  0  0  0  0  0  0  0  0  0  0
   -3.4404    4.5358    2.4823 H   0  0  0  0  0  0  0  0  0  0  0  0
   -1.8450    3.9175    2.0787 H   0  0  0  0  0  0  0  0  0  0  0  0
   -2.0592    4.8567    3.5385 H   0  0  0  0  0  0  0  0  0  0  0  0
   -2.5655    3.0998    7.5348 H   0  0  0  0  0  0  0  0  0  0  0  0
   -3.7296    2.5422    6.3585 H   0  0  0  0  0  0  0  0  0  0  0  0
   -2.8697    4.0526    6.0896 H   0  0  0  0  0  0  0  0  0  0  0  0
   -0.1355    1.3888    1.7368 H   0  0  0  0  0  0  0  0  0  0  0  0
    0.8494   -0.3605    1.6267 H   0  0  0  0  0  0  0  0  0  0  0  0
    2.1698    0.8272    1.5750 H   0  0  0  0  0  0  0  0  0  0  0  0
    2.6043   -1.9714    1.7238 H   0  0  0  0  0  0  0  0  0  0  0  0
    4.1587    0.1159    2.7460 H   0  0  0  0  0  0  0  0  0  0  0  0
    0.5848   -4.2953    3.6538 H   0  0  0  0  0  0  0  0  0  0  0  0
    2.3205   -4.2527    3.8629 H   0  0  0  0  0  0  0  0  0  0  0  0
    1.6120   -3.7244    2.3583 H   0  0  0  0  0  0  0  0  0  0  0  0
    4.5552   -3.3720    5.7739 H   0  0  0  0  0  0  0  0  0  0  0  0
    2.8008   -3.3319    5.9111 H   0  0  0  0  0  0  0  0  0  0  0  0
    3.7738   -1.9394    6.4183 H   0  0  0  0  0  0  0  0  0  0  0  0
    3.1967    0.4053    4.5695 H   0  0  0  0  0  0  0  0  0  0  0  0
    3.1218   -0.0478    7.0834 H   0  0  0  0  0  0  0  0  0  0  0  0
    1.8601    0.8926    7.7799 H   0  0  0  0  0  0  0  0  0  0  0  0
    1.1502    0.6225    9.2013 H   0  0  0  0  0  0  0  0  0  0  0  0
   -0.1407   -0.0503   10.1728 H   0  0  0  0  0  0  0  0  0  0  0  0
  1  2  1  0
  1 28  1  0
  1 29  1  0
  1 30  1  0
  2  3  1  0
  3 10  2  0
  3  4  1  0
  4  5  1  0
  4  6  2  0
  5 31  1  0
  5 32  1  0
  5 33  1  0
  6  7  1  0
  6  8  1  0
  8 22  2  0
  8  9  1  0
  9 10  1  0
  9 12  2  0
 10 11  1  0
 11 34  1  0
 12 21  1  0
 12 13  1  0
 13 14  1  0
 13 35  1  0
 13 36  1  0
 14 15  1  0
 14 16  1  0
 14 37  1  6
 15 38  1  0
 16 17  1  0
 16 19  1  0
 16 21  1  0
 17 18  1  0
 18 39  1  0
 18 40  1  0
 18 41  1  0
 19 20  1  0
 20 42  1  0
 20 43  1  0
 20 44  1  0
 21 22  1  0
 21 45  1  1
 22 23  1  0
 23 24  1  0
 23 46  1  0
 23 47  1  0
 24 25  1  0
 25 26  1  0
 25 27  2  0
 26 48  1  0
 26 49  1  0
M  CHG  1   7  -1
M  END
>  <i_m_ct_stereo_status>  (7) 
1

>  <s_m_source_file>  (7) 
/var/tmp/pbs.5076255.sched01/tmp9d3cgwpa/0mc_8ktg4.sdf

>  <i_m_source_file_index>  (7) 
3

>  <i_lp_mmshare_version>  (7) 
48012

>  <i_f3d_flags>  (7) 
0

>  <s_epik_input>  (7) 
W09IXWMxYyhbQ0gzXSljKE9bQ0gzXSljKFtPSF0pYyhjMT0yKT1DM1tDQEhdKEMoW0NAQEhdKFtDSDJdMylbT0hdKShPW0NIM10pT1tDSDNdKUMyW0NIMl1PQyg9TylbTkgyXQ==

>  <s_epik_cmdline>  (7) 
J2VwaWtfcHl0aG9uJywgJy1waHQnLCAnMi4wJywgJy1waCcsICc3LjAnLCAnLXRuJywgJzgnLCAnLW1hJywgJzIwMCcsICctaW1hZScsICc8aW5maWxlLm1hZT4nLCAnLW9tYWUnLCAnPG91dGZpbGUubWFlPic=

>  <r_epik_Ionization_Penalty>  (7) 
0.0990167

>  <r_epik_Ionization_Penalty_Charging>  (7) 
0.0989303

>  <r_epik_Ionization_Penalty_Neutral>  (7) 
8.64468e-05

>  <r_epik_State_Penalty>  (7) 
0.228212

>  <r_epik_Charging_Adjusted_Penalty>  (7) 
0.327142

>  <i_epik_Tot_Q>  (7) 
-1

>  <i_epik_Tot_abs_Q>  (7) 
1

>  <s_epik_Chemistry_Notes>  (7) 
This compound has an ester and may undergo hydrolysis at high or low pH.

>  <s_lp_Force_Field>  (7) 
OPLS3e

>  <r_lp_Energy>  (7) 
25.9368

>  <b_lp_Chiralities_Consistent>  (7) 
1

>  <s_lp_Variant>  (7) 
2:0-1

>  <s_i_glide_gridfile>  (7) 
pfpi4k_grid

>  <i_i_glide_lignum>  (7) 
3

>  <i_i_glide_rotatable_bonds>  (7) 
8

>  <r_i_docking_score>  (7) 
-2.22626

>  <r_i_glide_ligand_efficiency>  (7) 
-0.0824541

>  <r_i_glide_ligand_efficiency_sa>  (7) 
-0.247362

>  <r_i_glide_ligand_efficiency_ln>  (7) 
-0.518236

>  <r_i_glide_gscore>  (7) 
-2.22626

>  <r_i_glide_lipo>  (7) 
-0.180824

>  <r_i_glide_hbond>  (7) 
-0.16

>  <r_i_glide_metal>  (7) 
-0

>  <r_i_glide_rewards>  (7) 
-0.815665

>  <r_i_glide_evdw>  (7) 
-20.0044

>  <r_i_glide_ecoul>  (7) 
-1.80863

>  <r_i_glide_erotb>  (7) 
0.268173

>  <r_i_glide_esite>  (7) 
-0.066431

>  <r_i_glide_emodel>  (7) 
-20.3228

>  <r_i_glide_energy>  (7) 
-21.813

>  <r_i_glide_einternal>  (7) 
6.81246

>  <r_i_glide_intrahb_reward>  (7) 
-0

>  <i_i_glide_confnum>  (7) 
2

>  <i_i_glide_posenum>  (7) 
2

>  <r_i_glide_eff_state_penalty>  (7) 
0

>  <ligand_id>  (7) 
2

>  <original_smiles>  (7) 
COc1c(C)c(O)c2c(c1O)=C1CC(O)C(OC)(OC)C1C=2COC(N)=O

>  <smiles>  (7) 
[H]Oc1c(OC([H])([H])[H])c(C([H])([H])[H])c([O-])c2c1=C1C([H])([H])C([H])(O[H])C(OC([H])([H])[H])(OC([H])([H])[H])C1([H])C=2C([H])([H])OC(=O)N([H])[H]

$$$$
2:0:1
     RDKit          3D

 49 51  0  0  1  0  0  0  0  0999 V2000
    2.2246   -3.6186   -4.2747 C   0  0  0  0  0  0  0  0  0  0  0  0
    1.8342   -2.7321   -3.2391 O   0  0  0  0  0  0  0  0  0  0  0  0
    2.6399   -2.7887   -2.1257 C   0  0  0  0  0  0  0  0  0  0  0  0
    3.7819   -1.8789   -2.0521 C   0  0  0  0  0  0  0  0  0  0  0  0
    3.9881   -0.8860   -3.2073 C   0  0  0  0  0  0  0  0  0  0  0  0
    4.5951   -1.8805   -0.8937 C   0  0  0  0  0  0  0  0  0  0  0  0
    5.5608   -1.0967   -0.8117 O   0  0  0  0  0  0  0  0  0  0  0  0
    4.2697   -2.7817    0.1266 C   0  0  0  0  0  0  0  0  0  0  0  0
    3.2163   -3.7226   -0.0020 C   0  0  0  0  0  0  0  0  0  0  0  0
    2.3424   -3.6606   -1.1397 C   0  0  0  0  0  0  0  0  0  0  0  0
    1.2846   -4.4502   -1.2708 O   0  0  0  0  0  0  0  0  0  0  0  0
    3.2273   -4.5240    1.0748 C   0  0  0  0  0  0  0  0  0  0  0  0
    2.2443   -5.5312    1.6207 C   0  0  0  0  0  0  0  0  0  0  0  0
    2.5682   -5.5321    3.1293 C   0  0  1  0  0  0  0  0  0  0  0  0
    3.3821   -6.6622    3.3537 O   0  0  0  0  0  0  0  0  0  0  0  0
    3.3770   -4.2176    3.3960 C   0  0  0  0  0  0  0  0  0  0  0  0
    2.5221   -3.1173    3.4977 O   0  0  0  0  0  0  0  0  0  0  0  0
    1.5921   -3.1031    4.6059 C   0  0  0  0  0  0  0  0  0  0  0  0
    4.0810   -4.4240    4.5776 O   0  0  0  0  0  0  0  0  0  0  0  0
    4.9145   -3.4087    5.1025 C   0  0  0  0  0  0  0  0  0  0  0  0
    4.2645   -4.1678    2.0896 C   0  0  2  0  0  0  0  0  0  0  0  0
    4.8478   -2.9447    1.3405 C   0  0  0  0  0  0  0  0  0  0  0  0
    6.0802   -2.2324    1.8794 C   0  0  0  0  0  0  0  0  0  0  0  0
    5.8006   -1.4951    3.0744 O   0  0  0  0  0  0  0  0  0  0  0  0
    5.0147   -0.3763    3.1125 C   0  0  0  0  0  0  0  0  0  0  0  0
    4.4641   -0.0189    1.8827 N   0  0  0  0  0  0  0  0  0  0  0  0
    4.8356    0.2534    4.1480 O   0  0  0  0  0  0  0  0  0  0  0  0
    1.5026   -3.5606   -5.0896 H   0  0  0  0  0  0  0  0  0  0  0  0
    2.2180   -4.6473   -3.9229 H   0  0  0  0  0  0  0  0  0  0  0  0
    3.2252   -3.4043   -4.6529 H   0  0  0  0  0  0  0  0  0  0  0  0
    4.8808   -0.2749   -3.0737 H   0  0  0  0  0  0  0  0  0  0  0  0
    3.1418   -0.1868   -3.2820 H   0  0  0  0  0  0  0  0  0  0  0  0
    4.0691   -1.3995   -4.1748 H   0  0  0  0  0  0  0  0  0  0  0  0
    1.0259   -4.3851   -2.1840 H   0  0  0  0  0  0  0  0  0  0  0  0
    1.2289   -5.1900    1.4395 H   0  0  0  0  0  0  0  0  0  0  0  0
    2.4075   -6.4933    1.1287 H   0  0  0  0  0  0  0  0  0  0  0  0
    1.6833   -5.6448    3.7440 H   0  0  0  0  0  0  0  0  0  0  0  0
    2.8465   -7.4265    3.3094 H   0  0  0  0  0  0  0  0  0  0  0  0
    1.0058   -2.1751    4.6634 H   0  0  0  0  0  0  0  0  0  0  0  0
    2.1306   -3.1942    5.5501 H   0  0  0  0  0  0  0  0  0  0  0  0
    0.8514   -3.9074    4.6010 H   0  0  0  0  0  0  0  0  0  0  0  0
    5.1814   -3.6013    6.1512 H   0  0  0  0  0  0  0  0  0  0  0  0
    4.4182   -2.4441    5.0755 H   0  0  0  0  0  0  0  0  0  0  0  0
    5.8339   -3.3750    4.5242 H   0  0  0  0  0  0  0  0  0  0  0  0
    4.9980   -4.9749    2.1196 H   0  0  0  0  0  0  0  0  0  0  0  0
    6.7849   -3.0200    2.0915 H   0  0  0  0  0  0  0  0  0  0  0  0
    6.5858   -1.5812    1.1619 H   0  0  0  0  0  0  0  0  0  0  0  0
    4.6252   -0.6557    1.1171 H   0  0  0  0  0  0  0  0  0  0  0  0
    3.8269    0.7641    1.7891 H   0  0  0  0  0  0  0  0  0  0  0  0
  1  2  1  0
  1 28  1  0
  1 29  1  0
  1 30  1  0
  2  3  1  0
  3 10  2  0
  3  4  1  0
  4  5  1  0
  4  6  2  0
  5 31  1  0
  5 32  1  0
  5 33  1  0
  6  7  1  0
  6  8  1  0
  8 22  2  0
  8  9  1  0
  9 10  1  0
  9 12  2  0
 10 11  1  0
 11 34  1  0
 12 21  1  0
 12 13  1  0
 13 14  1  0
 13 35  1  0
 13 36  1  0
 14 15  1  0
 14 16  1  0
 14 37  1  1
 15 38  1  0
 16 17  1  0
 16 19  1  0
 16 21  1  0
 17 18  1  0
 18 39  1  0
 18 40  1  0
 18 41  1  0
 19 20  1  0
 20 42  1  0
 20 43  1  0
 20 44  1  0
 21 22  1  0
 21 45  1  1
 22 23  1  0
 23 24  1  0
 23 46  1  0
 23 47  1  0
 24 25  1  0
 25 26  1  0
 25 27  2  0
 26 48  1  0
 26 49  1  0
M  CHG  1   7  -1
M  END
>  <i_m_ct_stereo_status>  (8) 
1

>  <s_m_source_file>  (8) 
/var/tmp/pbs.5076255.sched01/tmp9d3cgwpa/0mc_8ktg4.sdf

>  <i_m_source_file_index>  (8) 
3

>  <i_lp_mmshare_version>  (8) 
48012

>  <i_f3d_flags>  (8) 
0

>  <s_epik_input>  (8) 
W09IXWMxYyhbQ0gzXSljKE9bQ0gzXSljKFtPSF0pYyhjMT0yKT1DM1tDQEhdKEMoW0NAQEhdKFtDSDJdMylbT0hdKShPW0NIM10pT1tDSDNdKUMyW0NIMl1PQyg9TylbTkgyXQ==

>  <s_epik_cmdline>  (8) 
J2VwaWtfcHl0aG9uJywgJy1waHQnLCAnMi4wJywgJy1waCcsICc3LjAnLCAnLXRuJywgJzgnLCAnLW1hJywgJzIwMCcsICctaW1hZScsICc8aW5maWxlLm1hZT4nLCAnLW9tYWUnLCAnPG91dGZpbGUubWFlPic=

>  <r_epik_Ionization_Penalty>  (8) 
0.0990167

>  <r_epik_Ionization_Penalty_Charging>  (8) 
0.0989303

>  <r_epik_Ionization_Penalty_Neutral>  (8) 
8.64468e-05

>  <r_epik_State_Penalty>  (8) 
0.228212

>  <r_epik_Charging_Adjusted_Penalty>  (8) 
0.327142

>  <i_epik_Tot_Q>  (8) 
-1

>  <i_epik_Tot_abs_Q>  (8) 
1

>  <s_epik_Chemistry_Notes>  (8) 
This compound has an ester and may undergo hydrolysis at high or low pH.

>  <s_lp_Force_Field>  (8) 
OPLS3e

>  <r_lp_Energy>  (8) 
25.9368

>  <b_lp_Chiralities_Consistent>  (8) 
1

>  <s_lp_Variant>  (8) 
2:0-1

>  <s_i_glide_gridfile>  (8) 
pfpi4k_grid

>  <i_i_glide_lignum>  (8) 
3

>  <i_i_glide_rotatable_bonds>  (8) 
8

>  <r_i_docking_score>  (8) 
-1.9459

>  <r_i_glide_ligand_efficiency>  (8) 
-0.0720704

>  <r_i_glide_ligand_efficiency_sa>  (8) 
-0.216211

>  <r_i_glide_ligand_efficiency_ln>  (8) 
-0.452973

>  <r_i_glide_gscore>  (8) 
-1.9459

>  <r_i_glide_lipo>  (8) 
-0.285197

>  <r_i_glide_hbond>  (8) 
-0.00691629

>  <r_i_glide_metal>  (8) 
-0

>  <r_i_glide_rewards>  (8) 
-1.00285

>  <r_i_glide_evdw>  (8) 
-15.5083

>  <r_i_glide_ecoul>  (8) 
-0.957961

>  <r_i_glide_erotb>  (8) 
0.268173

>  <r_i_glide_esite>  (8) 
0

>  <r_i_glide_emodel>  (8) 
-15.7093

>  <r_i_glide_energy>  (8) 
-16.4663

>  <r_i_glide_einternal>  (8) 
6.26017

>  <r_i_glide_intrahb_reward>  (8) 
-0

>  <i_i_glide_confnum>  (8) 
2

>  <i_i_glide_posenum>  (8) 
5

>  <r_i_glide_eff_state_penalty>  (8) 
0

>  <ligand_id>  (8) 
2

>  <original_smiles>  (8) 
COc1c(C)c(O)c2c(c1O)=C1CC(O)C(OC)(OC)C1C=2COC(N)=O

>  <smiles>  (8) 
[H]Oc1c(OC([H])([H])[H])c(C([H])([H])[H])c([O-])c2c1=C1C([H])([H])C([H])(O[H])C(OC([H])([H])[H])(OC([H])([H])[H])C1([H])C=2C([H])([H])OC(=O)N([H])[H]

$$$$
2:0:2
     RDKit          3D

 49 51  0  0  1  0  0  0  0  0999 V2000
    2.6628   -0.8471    3.4116 C   0  0  0  0  0  0  0  0  0  0  0  0
    1.3668   -1.4129    3.2442 O   0  0  0  0  0  0  0  0  0  0  0  0
    1.2448   -2.6977    3.7109 C   0  0  0  0  0  0  0  0  0  0  0  0
    0.4184   -2.9038    4.9111 C   0  0  0  0  0  0  0  0  0  0  0  0
   -0.1955   -1.6471    5.5521 C   0  0  0  0  0  0  0  0  0  0  0  0
    0.2134   -4.2019    5.4265 C   0  0  0  0  0  0  0  0  0  0  0  0
   -0.4943   -4.3589    6.4454 O   0  0  0  0  0  0  0  0  0  0  0  0
    0.8451   -5.2797    4.7536 C   0  0  0  0  0  0  0  0  0  0  0  0
    1.7087   -5.0501    3.6391 C   0  0  0  0  0  0  0  0  0  0  0  0
    1.8677   -3.7271    3.0808 C   0  0  0  0  0  0  0  0  0  0  0  0
    2.5991   -3.5399    1.9772 O   0  0  0  0  0  0  0  0  0  0  0  0
    2.2379   -6.2260    3.2595 C   0  0  0  0  0  0  0  0  0  0  0  0
    2.9889   -6.7021    2.0427 C   0  0  0  0  0  0  0  0  0  0  0  0
    2.6653   -8.2170    2.0016 C   0  0  1  0  0  0  0  0  0  0  0  0
    3.7981   -8.9169    2.4903 O   0  0  0  0  0  0  0  0  0  0  0  0
    1.4045   -8.3765    2.9259 C   0  0  0  0  0  0  0  0  0  0  0  0
    0.3437   -7.9333    2.1195 O   0  0  0  0  0  0  0  0  0  0  0  0
   -0.9913   -8.2970    2.4360 C   0  0  0  0  0  0  0  0  0  0  0  0
    1.3277   -9.7381    3.2645 O   0  0  0  0  0  0  0  0  0  0  0  0
    0.4937  -10.2247    4.3189 C   0  0  0  0  0  0  0  0  0  0  0  0
    1.7563   -7.3781    4.0822 C   0  0  2  0  0  0  0  0  0  0  0  0
    0.8083   -6.6181    5.0284 C   0  0  0  0  0  0  0  0  0  0  0  0
    0.1700   -7.3351    6.2122 C   0  0  0  0  0  0  0  0  0  0  0  0
    1.1362   -8.0599    6.9686 O   0  0  0  0  0  0  0  0  0  0  0  0
    0.8382   -8.4999    8.2081 C   0  0  0  0  0  0  0  0  0  0  0  0
    1.8368   -9.3304    8.6524 N   0  0  0  0  0  0  0  0  0  0  0  0
   -0.1744   -8.2229    8.8500 O   0  0  0  0  0  0  0  0  0  0  0  0
    2.6837    0.1527    2.9811 H   0  0  0  0  0  0  0  0  0  0  0  0
    3.4577   -1.4218    2.9364 H   0  0  0  0  0  0  0  0  0  0  0  0
    2.8963   -0.7638    4.4744 H   0  0  0  0  0  0  0  0  0  0  0  0
   -0.6840   -1.8395    6.5033 H   0  0  0  0  0  0  0  0  0  0  0  0
   -0.9314   -1.2008    4.8826 H   0  0  0  0  0  0  0  0  0  0  0  0
    0.5782   -0.8980    5.7307 H   0  0  0  0  0  0  0  0  0  0  0  0
    3.0199   -4.3614    1.7754 H   0  0  0  0  0  0  0  0  0  0  0  0
    2.6195   -6.2117    1.1456 H   0  0  0  0  0  0  0  0  0  0  0  0
    4.0539   -6.5000    2.1400 H   0  0  0  0  0  0  0  0  0  0  0  0
    2.4520   -8.5862    0.9980 H   0  0  0  0  0  0  0  0  0  0  0  0
    3.6133   -9.8418    2.4085 H   0  0  0  0  0  0  0  0  0  0  0  0
   -1.7017   -7.7860    1.7858 H   0  0  0  0  0  0  0  0  0  0  0  0
   -1.2212   -8.0194    3.4656 H   0  0  0  0  0  0  0  0  0  0  0  0
   -1.1555   -9.3716    2.3007 H   0  0  0  0  0  0  0  0  0  0  0  0
    0.5475  -11.3248    4.3321 H   0  0  0  0  0  0  0  0  0  0  0  0
   -0.5469   -9.9497    4.1706 H   0  0  0  0  0  0  0  0  0  0  0  0
    0.8392   -9.8773    5.2945 H   0  0  0  0  0  0  0  0  0  0  0  0
    2.5965   -7.7689    4.6553 H   0  0  0  0  0  0  0  0  0  0  0  0
   -0.3619   -6.6445    6.8655 H   0  0  0  0  0  0  0  0  0  0  0  0
   -0.5731   -8.0376    5.8299 H   0  0  0  0  0  0  0  0  0  0  0  0
    2.5789   -9.5735    8.0145 H   0  0  0  0  0  0  0  0  0  0  0  0
    1.7082   -9.8042    9.5340 H   0  0  0  0  0  0  0  0  0  0  0  0
  1  2  1  0
  1 28  1  0
  1 29  1  0
  1 30  1  0
  2  3  1  0
  3 10  2  0
  3  4  1  0
  4  5  1  0
  4  6  2  0
  5 31  1  0
  5 32  1  0
  5 33  1  0
  6  7  1  0
  6  8  1  0
  8 22  2  0
  8  9  1  0
  9 10  1  0
  9 12  2  0
 10 11  1  0
 11 34  1  0
 12 21  1  0
 12 13  1  0
 13 14  1  0
 13 35  1  0
 13 36  1  0
 14 15  1  0
 14 16  1  0
 14 37  1  6
 15 38  1  0
 16 17  1  0
 16 19  1  0
 16 21  1  0
 17 18  1  0
 18 39  1  0
 18 40  1  0
 18 41  1  0
 19 20  1  0
 20 42  1  0
 20 43  1  0
 20 44  1  0
 21 22  1  0
 21 45  1  1
 22 23  1  0
 23 24  1  0
 23 46  1  0
 23 47  1  0
 24 25  1  0
 25 26  1  0
 25 27  2  0
 26 48  1  0
 26 49  1  0
M  CHG  1   7  -1
M  END
>  <i_m_ct_stereo_status>  (9) 
1

>  <s_m_source_file>  (9) 
/var/tmp/pbs.5076255.sched01/tmp9d3cgwpa/0mc_8ktg4.sdf

>  <i_m_source_file_index>  (9) 
3

>  <i_lp_mmshare_version>  (9) 
48012

>  <i_f3d_flags>  (9) 
0

>  <s_epik_input>  (9) 
W09IXWMxYyhbQ0gzXSljKE9bQ0gzXSljKFtPSF0pYyhjMT0yKT1DM1tDQEhdKEMoW0NAQEhdKFtDSDJdMylbT0hdKShPW0NIM10pT1tDSDNdKUMyW0NIMl1PQyg9TylbTkgyXQ==

>  <s_epik_cmdline>  (9) 
J2VwaWtfcHl0aG9uJywgJy1waHQnLCAnMi4wJywgJy1waCcsICc3LjAnLCAnLXRuJywgJzgnLCAnLW1hJywgJzIwMCcsICctaW1hZScsICc8aW5maWxlLm1hZT4nLCAnLW9tYWUnLCAnPG91dGZpbGUubWFlPic=

>  <r_epik_Ionization_Penalty>  (9) 
0.0990167

>  <r_epik_Ionization_Penalty_Charging>  (9) 
0.0989303

>  <r_epik_Ionization_Penalty_Neutral>  (9) 
8.64468e-05

>  <r_epik_State_Penalty>  (9) 
0.228212

>  <r_epik_Charging_Adjusted_Penalty>  (9) 
0.327142

>  <i_epik_Tot_Q>  (9) 
-1

>  <i_epik_Tot_abs_Q>  (9) 
1

>  <s_epik_Chemistry_Notes>  (9) 
This compound has an ester and may undergo hydrolysis at high or low pH.

>  <s_lp_Force_Field>  (9) 
OPLS3e

>  <r_lp_Energy>  (9) 
25.9368

>  <b_lp_Chiralities_Consistent>  (9) 
1

>  <s_lp_Variant>  (9) 
2:0-1

>  <s_i_glide_gridfile>  (9) 
pfpi4k_grid

>  <i_i_glide_lignum>  (9) 
3

>  <i_i_glide_rotatable_bonds>  (9) 
8

>  <r_i_docking_score>  (9) 
-1.86697

>  <r_i_glide_ligand_efficiency>  (9) 
-0.069147

>  <r_i_glide_ligand_efficiency_sa>  (9) 
-0.207441

>  <r_i_glide_ligand_efficiency_ln>  (9) 
-0.4346

>  <r_i_glide_gscore>  (9) 
-1.86697

>  <r_i_glide_lipo>  (9) 
-0.0626783

>  <r_i_glide_hbond>  (9) 
-0.148999

>  <r_i_glide_metal>  (9) 
-0

>  <r_i_glide_rewards>  (9) 
-0.815665

>  <r_i_glide_evdw>  (9) 
-21.3605

>  <r_i_glide_ecoul>  (9) 
0.516449

>  <r_i_glide_erotb>  (9) 
0.268173

>  <r_i_glide_esite>  (9) 
-0.117245

>  <r_i_glide_emodel>  (9) 
-22.5367

>  <r_i_glide_energy>  (9) 
-20.844

>  <r_i_glide_einternal>  (9) 
1.90729

>  <r_i_glide_intrahb_reward>  (9) 
-0

>  <i_i_glide_confnum>  (9) 
3

>  <i_i_glide_posenum>  (9) 
4

>  <r_i_glide_eff_state_penalty>  (9) 
0

>  <ligand_id>  (9) 
2

>  <original_smiles>  (9) 
COc1c(C)c(O)c2c(c1O)=C1CC(O)C(OC)(OC)C1C=2COC(N)=O

>  <smiles>  (9) 
[H]Oc1c(OC([H])([H])[H])c(C([H])([H])[H])c([O-])c2c1=C1C([H])([H])C([H])(O[H])C(OC([H])([H])[H])(OC([H])([H])[H])C1([H])C=2C([H])([H])OC(=O)N([H])[H]

$$$$
2:1:0
     RDKit          3D

 49 51  0  0  1  0  0  0  0  0999 V2000
    3.5287   -3.9424    2.5607 C   0  0  0  0  0  0  0  0  0  0  0  0
    2.2931   -3.4043    2.1200 O   0  0  0  0  0  0  0  0  0  0  0  0
    1.9878   -2.1420    2.5706 C   0  0  0  0  0  0  0  0  0  0  0  0
    2.6116   -0.9984    1.8711 C   0  0  0  0  0  0  0  0  0  0  0  0
    3.5693   -1.1972    0.6800 C   0  0  0  0  0  0  0  0  0  0  0  0
    2.2813    0.2614    2.2694 C   0  0  0  0  0  0  0  0  0  0  0  0
    2.8483    1.3247    1.6951 O   0  0  0  0  0  0  0  0  0  0  0  0
    1.3709    0.4657    3.3721 C   0  0  0  0  0  0  0  0  0  0  0  0
    0.8364   -0.6613    4.0820 C   0  0  0  0  0  0  0  0  0  0  0  0
    1.0924   -1.9875    3.6699 C   0  0  0  0  0  0  0  0  0  0  0  0
    0.5734   -2.9665    4.2550 O   0  0  0  0  0  0  0  0  0  0  0  0
    0.0771   -0.1979    5.0856 C   0  0  0  0  0  0  0  0  0  0  0  0
   -0.9623   -0.7723    6.0071 C   0  0  0  0  0  0  0  0  0  0  0  0
   -1.7784    0.4878    6.3915 C   0  0  1  0  0  0  0  0  0  0  0  0
   -1.3871    0.9133    7.6815 O   0  0  0  0  0  0  0  0  0  0  0  0
   -1.4221    1.5754    5.3386 C   0  0  0  0  0  0  0  0  0  0  0  0
   -2.1752    1.3300    4.1957 O   0  0  0  0  0  0  0  0  0  0  0  0
   -2.2803    2.3018    3.1529 C   0  0  0  0  0  0  0  0  0  0  0  0
   -1.6107    2.8626    5.8197 O   0  0  0  0  0  0  0  0  0  0  0  0
   -2.9009    3.2105    6.3231 C   0  0  0  0  0  0  0  0  0  0  0  0
    0.0757    1.2913    5.1538 C   0  0  2  0  0  0  0  0  0  0  0  0
    0.9089    1.6198    3.9290 C   0  0  0  0  0  0  0  0  0  0  0  0
    1.2105    3.0631    3.5562 C   0  0  0  0  0  0  0  0  0  0  0  0
    1.0552    3.9363    4.6761 O   0  0  0  0  0  0  0  0  0  0  0  0
    0.6794    5.2621    4.5847 C   0  0  0  0  0  0  0  0  0  0  0  0
    0.4589    5.6862    3.2772 N   0  0  0  0  0  0  0  0  0  0  0  0
    0.5440    5.9793    5.5650 O   0  0  0  0  0  0  0  0  0  0  0  0
    3.6029   -4.9573    2.1733 H   0  0  0  0  0  0  0  0  0  0  0  0
    3.5503   -3.9855    3.6434 H   0  0  0  0  0  0  0  0  0  0  0  0
    4.4092   -3.4055    2.2146 H   0  0  0  0  0  0  0  0  0  0  0  0
    3.9758   -0.2618    0.2823 H   0  0  0  0  0  0  0  0  0  0  0  0
    3.0139   -1.6794   -0.1250 H   0  0  0  0  0  0  0  0  0  0  0  0
    4.4348   -1.8024    0.9582 H   0  0  0  0  0  0  0  0  0  0  0  0
    2.5183    2.1103    2.1094 H   0  0  0  0  0  0  0  0  0  0  0  0
   -1.5723   -1.5107    5.4962 H   0  0  0  0  0  0  0  0  0  0  0  0
   -0.4947   -1.2432    6.8616 H   0  0  0  0  0  0  0  0  0  0  0  0
   -2.8455    0.3303    6.3698 H   0  0  0  0  0  0  0  0  0  0  0  0
   -0.5408    1.3255    7.5964 H   0  0  0  0  0  0  0  0  0  0  0  0
   -2.6517    1.8701    2.2079 H   0  0  0  0  0  0  0  0  0  0  0  0
   -1.3093    2.7113    2.9292 H   0  0  0  0  0  0  0  0  0  0  0  0
   -2.9332    3.1230    3.4590 H   0  0  0  0  0  0  0  0  0  0  0  0
   -2.7964    4.1610    6.8340 H   0  0  0  0  0  0  0  0  0  0  0  0
   -3.2854    2.5441    7.0950 H   0  0  0  0  0  0  0  0  0  0  0  0
   -3.6560    3.3174    5.5412 H   0  0  0  0  0  0  0  0  0  0  0  0
    0.6169    1.5961    6.0507 H   0  0  0  0  0  0  0  0  0  0  0  0
    2.2054    3.1617    3.1166 H   0  0  0  0  0  0  0  0  0  0  0  0
    0.4955    3.2937    2.7706 H   0  0  0  0  0  0  0  0  0  0  0  0
    0.5576    5.0074    2.5165 H   0  0  0  0  0  0  0  0  0  0  0  0
    0.2429    6.6655    3.0730 H   0  0  0  0  0  0  0  0  0  0  0  0
  1  2  1  0
  1 28  1  0
  1 29  1  0
  1 30  1  0
  2  3  1  0
  3 10  2  0
  3  4  1  0
  4  5  1  0
  4  6  2  0
  5 31  1  0
  5 32  1  0
  5 33  1  0
  6  7  1  0
  6  8  1  0
  7 34  1  0
  8 22  2  0
  8  9  1  0
  9 10  1  0
  9 12  2  0
 10 11  1  0
 12 21  1  0
 12 13  1  0
 13 14  1  0
 13 35  1  0
 13 36  1  0
 14 15  1  0
 14 16  1  0
 14 37  1  1
 15 38  1  0
 16 17  1  0
 16 19  1  0
 16 21  1  0
 17 18  1  0
 18 39  1  0
 18 40  1  0
 18 41  1  0
 19 20  1  0
 20 42  1  0
 20 43  1  0
 20 44  1  0
 21 22  1  0
 21 45  1  1
 22 23  1  0
 23 24  1  0
 23 46  1  0
 23 47  1  0
 24 25  1  0
 25 26  1  0
 25 27  2  0
 26 48  1  0
 26 49  1  0
M  CHG  1  11  -1
M  END
>  <i_m_ct_stereo_status>  (10) 
1

>  <s_m_source_file>  (10) 
/var/tmp/pbs.5076255.sched01/tmp9d3cgwpa/0mc_8ktg4.sdf

>  <i_m_source_file_index>  (10) 
4

>  <i_lp_mmshare_version>  (10) 
48012

>  <i_f3d_flags>  (10) 
0

>  <s_epik_input>  (10) 
W09IXWMxYyhbQ0gzXSljKE9bQ0gzXSljKFtPSF0pYyhjMT0yKT1DM1tDQEhdKEMoW0NAQEhdKFtDSDJdMylbT0hdKShPW0NIM10pT1tDSDNdKUMyW0NIMl1PQyg9TylbTkgyXQ==

>  <s_epik_cmdline>  (10) 
J2VwaWtfcHl0aG9uJywgJy1waHQnLCAnMi4wJywgJy1waCcsICc3LjAnLCAnLXRuJywgJzgnLCAnLW1hJywgJzIwMCcsICctaW1hZScsICc8aW5maWxlLm1hZT4nLCAnLW9tYWUnLCAnPG91dGZpbGUubWFlPic=

>  <r_epik_Ionization_Penalty>  (10) 
0.184817

>  <r_epik_Ionization_Penalty_Charging>  (10) 
0.184666

>  <r_epik_Ionization_Penalty_Neutral>  (10) 
0.000150589

>  <r_epik_State_Penalty>  (10) 
0.772755

>  <r_epik_Charging_Adjusted_Penalty>  (10) 
0.957421

>  <i_epik_Tot_Q>  (10) 
-1

>  <i_epik_Tot_abs_Q>  (10) 
1

>  <s_epik_Chemistry_Notes>  (10) 
This compound has an ester and may undergo hydrolysis at high or low pH.

>  <s_lp_Force_Field>  (10) 
OPLS3e

>  <r_lp_Energy>  (10) 
26.1819

>  <b_lp_Chiralities_Consistent>  (10) 
1

>  <s_lp_Variant>  (10) 
2:0-2

>  <s_i_glide_gridfile>  (10) 
pfpi4k_grid

>  <i_i_glide_lignum>  (10) 
4

>  <i_i_glide_rotatable_bonds>  (10) 
8

>  <r_i_docking_score>  (10) 
-2.96474

>  <r_i_glide_ligand_efficiency>  (10) 
-0.109805

>  <r_i_glide_ligand_efficiency_sa>  (10) 
-0.329416

>  <r_i_glide_ligand_efficiency_ln>  (10) 
-0.690143

>  <r_i_glide_gscore>  (10) 
-2.96474

>  <r_i_glide_lipo>  (10) 
-0.166973

>  <r_i_glide_hbond>  (10) 
-0.304

>  <r_i_glide_metal>  (10) 
-0

>  <r_i_glide_rewards>  (10) 
-0.815665

>  <r_i_glide_evdw>  (10) 
-19.2351

>  <r_i_glide_ecoul>  (10) 
-5.52425

>  <r_i_glide_erotb>  (10) 
0.268173

>  <r_i_glide_esite>  (10) 
-0.155882

>  <r_i_glide_emodel>  (10) 
-26.1577

>  <r_i_glide_energy>  (10) 
-24.7594

>  <r_i_glide_einternal>  (10) 
7.97084

>  <r_i_glide_intrahb_reward>  (10) 
-0

>  <i_i_glide_confnum>  (10) 
1

>  <i_i_glide_posenum>  (10) 
26

>  <r_i_glide_eff_state_penalty>  (10) 
0

>  <ligand_id>  (10) 
2

>  <original_smiles>  (10) 
COc1c(C)c(O)c2c(c1O)=C1CC(O)C(OC)(OC)C1C=2COC(N)=O

>  <smiles>  (10) 
[H]Oc1c(C([H])([H])[H])c(OC([H])([H])[H])c([O-])c2c1=C(C([H])([H])OC(=O)N([H])[H])C1([H])C=2C([H])([H])C([H])(O[H])C1(OC([H])([H])[H])OC([H])([H])[H]

$$$$
2:1:1
     RDKit          3D

 49 51  0  0  1  0  0  0  0  0999 V2000
    3.9583   -5.0745    2.6495 C   0  0  0  0  0  0  0  0  0  0  0  0
    2.8485   -4.4515    2.0421 O   0  0  0  0  0  0  0  0  0  0  0  0
    2.6131   -3.1395    2.3857 C   0  0  0  0  0  0  0  0  0  0  0  0
    3.4175   -2.0924    1.7226 C   0  0  0  0  0  0  0  0  0  0  0  0
    4.4936   -2.4345    0.6773 C   0  0  0  0  0  0  0  0  0  0  0  0
    3.1660   -0.7918    2.0000 C   0  0  0  0  0  0  0  0  0  0  0  0
    3.9049    0.1729    1.4374 O   0  0  0  0  0  0  0  0  0  0  0  0
    2.1507   -0.4363    2.9821 C   0  0  0  0  0  0  0  0  0  0  0  0
    1.4247   -1.4756    3.6678 C   0  0  0  0  0  0  0  0  0  0  0  0
    1.6056   -2.8391    3.3535 C   0  0  0  0  0  0  0  0  0  0  0  0
    0.9314   -3.7366    3.9210 O   0  0  0  0  0  0  0  0  0  0  0  0
    0.5894   -0.8902    4.5448 C   0  0  0  0  0  0  0  0  0  0  0  0
   -0.6195   -1.3331    5.3334 C   0  0  0  0  0  0  0  0  0  0  0  0
   -1.3835    0.0058    5.5511 C   0  0  1  0  0  0  0  0  0  0  0  0
   -1.1420    0.4120    6.8826 O   0  0  0  0  0  0  0  0  0  0  0  0
   -0.7739    1.0112    4.5080 C   0  0  0  0  0  0  0  0  0  0  0  0
   -1.3839    0.7475    3.2878 O   0  0  0  0  0  0  0  0  0  0  0  0
   -1.2960    1.6552    2.1952 C   0  0  0  0  0  0  0  0  0  0  0  0
   -0.9094    2.3411    4.8956 O   0  0  0  0  0  0  0  0  0  0  0  0
   -2.2153    2.9031    5.0834 C   0  0  0  0  0  0  0  0  0  0  0  0
    0.7110    0.5890    4.5536 C   0  0  2  0  0  0  0  0  0  0  0  0
    1.7233    0.7723    3.4178 C   0  0  0  0  0  0  0  0  0  0  0  0
    2.2093    2.1501    3.0255 C   0  0  0  0  0  0  0  0  0  0  0  0
    2.4310    3.0080    4.1358 O   0  0  0  0  0  0  0  0  0  0  0  0
    2.4631    4.3750    4.0409 C   0  0  0  0  0  0  0  0  0  0  0  0
    1.8552    4.8721    2.8901 N   0  0  0  0  0  0  0  0  0  0  0  0
    2.9597    5.0833    4.9153 O   0  0  0  0  0  0  0  0  0  0  0  0
    3.9693   -6.1093    2.3309 H   0  0  0  0  0  0  0  0  0  0  0  0
    3.8586   -5.0563    3.7174 H   0  0  0  0  0  0  0  0  0  0  0  0
    4.9244   -4.6603    2.3831 H   0  0  0  0  0  0  0  0  0  0  0  0
    5.0136   -1.5628    0.2804 H   0  0  0  0  0  0  0  0  0  0  0  0
    4.0135   -2.9183   -0.1633 H   0  0  0  0  0  0  0  0  0  0  0  0
    5.2795   -3.0708    1.0877 H   0  0  0  0  0  0  0  0  0  0  0  0
    3.6624    0.9977    1.8267 H   0  0  0  0  0  0  0  0  0  0  0  0
   -1.2252   -2.0445    4.7777 H   0  0  0  0  0  0  0  0  0  0  0  0
   -0.3203   -1.7941    6.2737 H   0  0  0  0  0  0  0  0  0  0  0  0
   -2.4534   -0.0569    5.3957 H   0  0  0  0  0  0  0  0  0  0  0  0
   -0.2622    0.7614    6.8915 H   0  0  0  0  0  0  0  0  0  0  0  0
   -1.6380    1.1647    1.2890 H   0  0  0  0  0  0  0  0  0  0  0  0
   -0.2780    1.9483    2.0236 H   0  0  0  0  0  0  0  0  0  0  0  0
   -1.8765    2.5501    2.3333 H   0  0  0  0  0  0  0  0  0  0  0  0
   -2.1162    3.8996    5.5243 H   0  0  0  0  0  0  0  0  0  0  0  0
   -2.8305    2.3073    5.7502 H   0  0  0  0  0  0  0  0  0  0  0  0
   -2.7729    3.0395    4.1607 H   0  0  0  0  0  0  0  0  0  0  0  0
    1.1582    0.8982    5.5025 H   0  0  0  0  0  0  0  0  0  0  0  0
    3.1249    2.1132    2.4458 H   0  0  0  0  0  0  0  0  0  0  0  0
    1.4550    2.5903    2.3854 H   0  0  0  0  0  0  0  0  0  0  0  0
    1.3422    4.2787    2.2419 H   0  0  0  0  0  0  0  0  0  0  0  0
    1.8787    5.8636    2.7258 H   0  0  0  0  0  0  0  0  0  0  0  0
  1  2  1  0
  1 28  1  0
  1 29  1  0
  1 30  1  0
  2  3  1  0
  3 10  2  0
  3  4  1  0
  4  5  1  0
  4  6  2  0
  5 31  1  0
  5 32  1  0
  5 33  1  0
  6  7  1  0
  6  8  1  0
  7 34  1  0
  8 22  2  0
  8  9  1  0
  9 10  1  0
  9 12  2  0
 10 11  1  0
 12 21  1  0
 12 13  1  0
 13 14  1  0
 13 35  1  0
 13 36  1  0
 14 15  1  0
 14 16  1  0
 14 37  1  6
 15 38  1  0
 16 17  1  0
 16 19  1  0
 16 21  1  0
 17 18  1  0
 18 39  1  0
 18 40  1  0
 18 41  1  0
 19 20  1  0
 20 42  1  0
 20 43  1  0
 20 44  1  0
 21 22  1  0
 21 45  1  1
 22 23  1  0
 23 24  1  0
 23 46  1  0
 23 47  1  0
 24 25  1  0
 25 26  1  0
 25 27  2  0
 26 48  1  0
 26 49  1  0
M  CHG  1  11  -1
M  END
>  <i_m_ct_stereo_status>  (11) 
1

>  <s_m_source_file>  (11) 
/var/tmp/pbs.5076255.sched01/tmp9d3cgwpa/0mc_8ktg4.sdf

>  <i_m_source_file_index>  (11) 
4

>  <i_lp_mmshare_version>  (11) 
48012

>  <i_f3d_flags>  (11) 
0

>  <s_epik_input>  (11) 
W09IXWMxYyhbQ0gzXSljKE9bQ0gzXSljKFtPSF0pYyhjMT0yKT1DM1tDQEhdKEMoW0NAQEhdKFtDSDJdMylbT0hdKShPW0NIM10pT1tDSDNdKUMyW0NIMl1PQyg9TylbTkgyXQ==

>  <s_epik_cmdline>  (11) 
J2VwaWtfcHl0aG9uJywgJy1waHQnLCAnMi4wJywgJy1waCcsICc3LjAnLCAnLXRuJywgJzgnLCAnLW1hJywgJzIwMCcsICctaW1hZScsICc8aW5maWxlLm1hZT4nLCAnLW9tYWUnLCAnPG91dGZpbGUubWFlPic=

>  <r_epik_Ionization_Penalty>  (11) 
0.184817

>  <r_epik_Ionization_Penalty_Charging>  (11) 
0.184666

>  <r_epik_Ionization_Penalty_Neutral>  (11) 
0.000150589

>  <r_epik_State_Penalty>  (11) 
0.772755

>  <r_epik_Charging_Adjusted_Penalty>  (11) 
0.957421

>  <i_epik_Tot_Q>  (11) 
-1

>  <i_epik_Tot_abs_Q>  (11) 
1

>  <s_epik_Chemistry_Notes>  (11) 
This compound has an ester and may undergo hydrolysis at high or low pH.

>  <s_lp_Force_Field>  (11) 
OPLS3e

>  <r_lp_Energy>  (11) 
26.1819

>  <b_lp_Chiralities_Consistent>  (11) 
1

>  <s_lp_Variant>  (11) 
2:0-2

>  <s_i_glide_gridfile>  (11) 
pfpi4k_grid

>  <i_i_glide_lignum>  (11) 
4

>  <i_i_glide_rotatable_bonds>  (11) 
8

>  <r_i_docking_score>  (11) 
-2.68686

>  <r_i_glide_ligand_efficiency>  (11) 
-0.0995134

>  <r_i_glide_ligand_efficiency_sa>  (11) 
-0.29854

>  <r_i_glide_ligand_efficiency_ln>  (11) 
-0.625457

>  <r_i_glide_gscore>  (11) 
-2.68686

>  <r_i_glide_lipo>  (11) 
-0.0330333

>  <r_i_glide_hbond>  (11) 
-0.134026

>  <r_i_glide_metal>  (11) 
-0

>  <r_i_glide_rewards>  (11) 
-0.815665

>  <r_i_glide_evdw>  (11) 
-22.8352

>  <r_i_glide_ecoul>  (11) 
-4.72495

>  <r_i_glide_erotb>  (11) 
0.268173

>  <r_i_glide_esite>  (11) 
-0.121812

>  <r_i_glide_emodel>  (11) 
-28.6649

>  <r_i_glide_energy>  (11) 
-27.5601

>  <r_i_glide_einternal>  (11) 
6.90291

>  <r_i_glide_intrahb_reward>  (11) 
-0

>  <i_i_glide_confnum>  (11) 
1

>  <i_i_glide_posenum>  (11) 
1

>  <r_i_glide_eff_state_penalty>  (11) 
0

>  <ligand_id>  (11) 
2

>  <original_smiles>  (11) 
COc1c(C)c(O)c2c(c1O)=C1CC(O)C(OC)(OC)C1C=2COC(N)=O

>  <smiles>  (11) 
[H]Oc1c(C([H])([H])[H])c(OC([H])([H])[H])c([O-])c2c1=C(C([H])([H])OC(=O)N([H])[H])C1([H])C=2C([H])([H])C([H])(O[H])C1(OC([H])([H])[H])OC([H])([H])[H]

$$$$
2:1:2
     RDKit          3D

 49 51  0  0  1  0  0  0  0  0999 V2000
    3.9420   -5.0061    2.5435 C   0  0  0  0  0  0  0  0  0  0  0  0
    2.8035   -4.3895    1.9531 O   0  0  0  0  0  0  0  0  0  0  0  0
    2.5864   -3.0751    2.2936 C   0  0  0  0  0  0  0  0  0  0  0  0
    3.3490   -2.0286    1.5864 C   0  0  0  0  0  0  0  0  0  0  0  0
    4.3736   -2.4008    0.4976 C   0  0  0  0  0  0  0  0  0  0  0  0
    3.1063   -0.7220    1.8738 C   0  0  0  0  0  0  0  0  0  0  0  0
    3.7967    0.2331    1.2512 O   0  0  0  0  0  0  0  0  0  0  0  0
    2.1457   -0.3770    2.8925 C   0  0  0  0  0  0  0  0  0  0  0  0
    1.4563   -1.4069    3.6075 C   0  0  0  0  0  0  0  0  0  0  0  0
    1.6230   -2.7733    3.3069 C   0  0  0  0  0  0  0  0  0  0  0  0
    0.9873   -3.6704    3.9062 O   0  0  0  0  0  0  0  0  0  0  0  0
    0.6530   -0.8156    4.5250 C   0  0  0  0  0  0  0  0  0  0  0  0
   -0.5055   -1.2457    5.3746 C   0  0  0  0  0  0  0  0  0  0  0  0
   -1.2656    0.1024    5.6031 C   0  0  1  0  0  0  0  0  0  0  0  0
   -0.9651    0.5201    6.9302 O   0  0  0  0  0  0  0  0  0  0  0  0
   -0.7185    1.0901    4.5042 C   0  0  0  0  0  0  0  0  0  0  0  0
   -1.3796    0.7932    3.3010 O   0  0  0  0  0  0  0  0  0  0  0  0
   -1.2663    1.6267    2.1554 C   0  0  0  0  0  0  0  0  0  0  0  0
   -0.8545    2.4338    4.8710 O   0  0  0  0  0  0  0  0  0  0  0  0
   -2.1524    3.0299    4.9857 C   0  0  0  0  0  0  0  0  0  0  0  0
    0.7726    0.6690    4.5006 C   0  0  2  0  0  0  0  0  0  0  0  0
    1.7385    0.8368    3.3357 C   0  0  0  0  0  0  0  0  0  0  0  0
    2.1883    2.2162    2.8900 C   0  0  0  0  0  0  0  0  0  0  0  0
    2.6496    3.0366    3.9598 O   0  0  0  0  0  0  0  0  0  0  0  0
    2.6358    4.4083    3.8964 C   0  0  0  0  0  0  0  0  0  0  0  0
    1.8216    4.9294    2.9000 N   0  0  0  0  0  0  0  0  0  0  0  0
    3.2979    5.1000    4.6798 O   0  0  0  0  0  0  0  0  0  0  0  0
    3.9625   -6.0483    2.2285 H   0  0  0  0  0  0  0  0  0  0  0  0
    3.8778   -4.9736    3.6224 H   0  0  0  0  0  0  0  0  0  0  0  0
    4.9003   -4.5709    2.2413 H   0  0  0  0  0  0  0  0  0  0  0  0
    4.9107   -1.5493    0.0700 H   0  0  0  0  0  0  0  0  0  0  0  0
    3.8609   -2.9075   -0.3196 H   0  0  0  0  0  0  0  0  0  0  0  0
    5.1658   -3.0623    0.8885 H   0  0  0  0  0  0  0  0  0  0  0  0
    4.3607   -0.1973    0.6295 H   0  0  0  0  0  0  0  0  0  0  0  0
   -1.1379   -1.9678    4.8653 H   0  0  0  0  0  0  0  0  0  0  0  0
   -0.1573   -1.6907    6.3077 H   0  0  0  0  0  0  0  0  0  0  0  0
   -2.3456    0.0226    5.5220 H   0  0  0  0  0  0  0  0  0  0  0  0
   -0.0791    0.8554    6.9024 H   0  0  0  0  0  0  0  0  0  0  0  0
   -1.6852    1.1000    1.2887 H   0  0  0  0  0  0  0  0  0  0  0  0
   -0.2408    1.8317    1.9044 H   0  0  0  0  0  0  0  0  0  0  0  0
   -1.7965    2.5899    2.2460 H   0  0  0  0  0  0  0  0  0  0  0  0
   -2.0475    4.0124    5.4575 H   0  0  0  0  0  0  0  0  0  0  0  0
   -2.8397    2.4334    5.5759 H   0  0  0  0  0  0  0  0  0  0  0  0
   -2.6293    3.2304    4.0150 H   0  0  0  0  0  0  0  0  0  0  0  0
    1.2636    1.0002    5.4244 H   0  0  0  0  0  0  0  0  0  0  0  0
    2.9382    2.1878    2.0933 H   0  0  0  0  0  0  0  0  0  0  0  0
    1.2996    2.6784    2.4859 H   0  0  0  0  0  0  0  0  0  0  0  0
    1.2712    4.3380    2.2858 H   0  0  0  0  0  0  0  0  0  0  0  0
    1.7943    5.9230    2.7613 H   0  0  0  0  0  0  0  0  0  0  0  0
  1  2  1  0
  1 28  1  0
  1 29  1  0
  1 30  1  0
  2  3  1  0
  3 10  2  0
  3  4  1  0
  4  5  1  0
  4  6  2  0
  5 31  1  0
  5 32  1  0
  5 33  1  0
  6  7  1  0
  6  8  1  0
  7 34  1  0
  8 22  2  0
  8  9  1  0
  9 10  1  0
  9 12  2  0
 10 11  1  0
 12 21  1  0
 12 13  1  0
 13 14  1  0
 13 35  1  0
 13 36  1  0
 14 15  1  0
 14 16  1  0
 14 37  1  1
 15 38  1  0
 16 17  1  0
 16 19  1  0
 16 21  1  0
 17 18  1  0
 18 39  1  0
 18 40  1  0
 18 41  1  0
 19 20  1  0
 20 42  1  0
 20 43  1  0
 20 44  1  0
 21 22  1  0
 21 45  1  1
 22 23  1  0
 23 24  1  0
 23 46  1  0
 23 47  1  0
 24 25  1  0
 25 26  1  0
 25 27  2  0
 26 48  1  0
 26 49  1  0
M  CHG  1  11  -1
M  END
>  <i_m_ct_stereo_status>  (12) 
1

>  <s_m_source_file>  (12) 
/var/tmp/pbs.5076255.sched01/tmp9d3cgwpa/0mc_8ktg4.sdf

>  <i_m_source_file_index>  (12) 
4

>  <i_lp_mmshare_version>  (12) 
48012

>  <i_f3d_flags>  (12) 
0

>  <s_epik_input>  (12) 
W09IXWMxYyhbQ0gzXSljKE9bQ0gzXSljKFtPSF0pYyhjMT0yKT1DM1tDQEhdKEMoW0NAQEhdKFtDSDJdMylbT0hdKShPW0NIM10pT1tDSDNdKUMyW0NIMl1PQyg9TylbTkgyXQ==

>  <s_epik_cmdline>  (12) 
J2VwaWtfcHl0aG9uJywgJy1waHQnLCAnMi4wJywgJy1waCcsICc3LjAnLCAnLXRuJywgJzgnLCAnLW1hJywgJzIwMCcsICctaW1hZScsICc8aW5maWxlLm1hZT4nLCAnLW9tYWUnLCAnPG91dGZpbGUubWFlPic=

>  <r_epik_Ionization_Penalty>  (12) 
0.184817

>  <r_epik_Ionization_Penalty_Charging>  (12) 
0.184666

>  <r_epik_Ionization_Penalty_Neutral>  (12) 
0.000150589

>  <r_epik_State_Penalty>  (12) 
0.772755

>  <r_epik_Charging_Adjusted_Penalty>  (12) 
0.957421

>  <i_epik_Tot_Q>  (12) 
-1

>  <i_epik_Tot_abs_Q>  (12) 
1

>  <s_epik_Chemistry_Notes>  (12) 
This compound has an ester and may undergo hydrolysis at high or low pH.

>  <s_lp_Force_Field>  (12) 
OPLS3e

>  <r_lp_Energy>  (12) 
26.1819

>  <b_lp_Chiralities_Consistent>  (12) 
1

>  <s_lp_Variant>  (12) 
2:0-2

>  <s_i_glide_gridfile>  (12) 
pfpi4k_grid

>  <i_i_glide_lignum>  (12) 
4

>  <i_i_glide_rotatable_bonds>  (12) 
8

>  <r_i_docking_score>  (12) 
-2.56325

>  <r_i_glide_ligand_efficiency>  (12) 
-0.0949351

>  <r_i_glide_ligand_efficiency_sa>  (12) 
-0.284805

>  <r_i_glide_ligand_efficiency_ln>  (12) 
-0.596682

>  <r_i_glide_gscore>  (12) 
-2.56325

>  <r_i_glide_lipo>  (12) 
-0.0296382

>  <r_i_glide_hbond>  (12) 
-0.138609

>  <r_i_glide_metal>  (12) 
-0

>  <r_i_glide_rewards>  (12) 
-0.815665

>  <r_i_glide_evdw>  (12) 
-24.1405

>  <r_i_glide_ecoul>  (12) 
-3.50304

>  <r_i_glide_erotb>  (12) 
0.268173

>  <r_i_glide_esite>  (12) 
-0.115026

>  <r_i_glide_emodel>  (12) 
-28.1902

>  <r_i_glide_energy>  (12) 
-27.6436

>  <r_i_glide_einternal>  (12) 
6.80125

>  <r_i_glide_intrahb_reward>  (12) 
-0

>  <i_i_glide_confnum>  (12) 
1

>  <i_i_glide_posenum>  (12) 
13

>  <r_i_glide_eff_state_penalty>  (12) 
0

>  <ligand_id>  (12) 
2

>  <original_smiles>  (12) 
COc1c(C)c(O)c2c(c1O)=C1CC(O)C(OC)(OC)C1C=2COC(N)=O

>  <smiles>  (12) 
[H]Oc1c(C([H])([H])[H])c(OC([H])([H])[H])c([O-])c2c1=C(C([H])([H])OC(=O)N([H])[H])C1([H])C=2C([H])([H])C([H])(O[H])C1(OC([H])([H])[H])OC([H])([H])[H]

$$$$
2:2:0
     RDKit          3D

 50 52  0  0  1  0  0  0  0  0999 V2000
    3.3751   -2.5529    0.8137 C   0  0  0  0  0  0  0  0  0  0  0  0
    2.2594   -2.8431    1.6532 O   0  0  0  0  0  0  0  0  0  0  0  0
    2.3965   -3.9282    2.4841 C   0  0  0  0  0  0  0  0  0  0  0  0
    2.2579   -3.6520    3.9235 C   0  0  0  0  0  0  0  0  0  0  0  0
    2.0108   -2.2092    4.3568 C   0  0  0  0  0  0  0  0  0  0  0  0
    2.3314   -4.6712    4.8201 C   0  0  0  0  0  0  0  0  0  0  0  0
    2.2596   -4.4121    6.1302 O   0  0  0  0  0  0  0  0  0  0  0  0
    2.5671   -6.0321    4.3521 C   0  0  0  0  0  0  0  0  0  0  0  0
    2.7914   -6.2739    2.9560 C   0  0  0  0  0  0  0  0  0  0  0  0
    2.6090   -5.1909    2.0048 C   0  0  0  0  0  0  0  0  0  0  0  0
    2.6244   -5.4634    0.6994 O   0  0  0  0  0  0  0  0  0  0  0  0
    3.0574   -7.5799    2.7952 C   0  0  0  0  0  0  0  0  0  0  0  0
    3.0469   -8.5413    1.6287 C   0  0  0  0  0  0  0  0  0  0  0  0
    2.8063   -9.9199    2.3213 C   0  0  1  0  0  0  0  0  0  0  0  0
    4.0609  -10.5546    2.4759 O   0  0  0  0  0  0  0  0  0  0  0  0
    2.2269   -9.5837    3.7341 C   0  0  0  0  0  0  0  0  0  0  0  0
    0.8649   -9.2448    3.7135 O   0  0  0  0  0  0  0  0  0  0  0  0
   -0.1572  -10.0551    3.1049 C   0  0  0  0  0  0  0  0  0  0  0  0
    2.5326  -10.5544    4.6814 O   0  0  0  0  0  0  0  0  0  0  0  0
    1.9784  -11.8668    4.6190 C   0  0  0  0  0  0  0  0  0  0  0  0
    3.0745   -8.3224    4.0839 C   0  0  2  0  0  0  0  0  0  0  0  0
    2.6455   -7.1954    5.0296 C   0  0  0  0  0  0  0  0  0  0  0  0
    2.6025   -7.4216    6.5237 C   0  0  0  0  0  0  0  0  0  0  0  0
    1.2732   -7.6111    7.0227 O   0  0  0  0  0  0  0  0  0  0  0  0
    0.7989   -8.8018    7.4870 C   0  0  0  0  0  0  0  0  0  0  0  0
    1.6223   -9.8467    7.1166 N   0  0  0  0  0  0  0  0  0  0  0  0
   -0.2455   -8.8894    8.1132 O   0  0  0  0  0  0  0  0  0  0  0  0
    3.1341   -1.6923    0.1916 H   0  0  0  0  0  0  0  0  0  0  0  0
    3.6753   -3.3474    0.1323 H   0  0  0  0  0  0  0  0  0  0  0  0
    4.2395   -2.2897    1.4249 H   0  0  0  0  0  0  0  0  0  0  0  0
    1.8650   -2.0849    5.4275 H   0  0  0  0  0  0  0  0  0  0  0  0
    1.1168   -1.8301    3.8640 H   0  0  0  0  0  0  0  0  0  0  0  0
    2.8502   -1.5795    4.0699 H   0  0  0  0  0  0  0  0  0  0  0  0
    2.3455   -5.2214    6.6100 H   0  0  0  0  0  0  0  0  0  0  0  0
    2.8890   -6.3647    0.6072 H   0  0  0  0  0  0  0  0  0  0  0  0
    2.2243   -8.3034    0.9532 H   0  0  0  0  0  0  0  0  0  0  0  0
    3.9876   -8.4954    1.0815 H   0  0  0  0  0  0  0  0  0  0  0  0
    2.1363  -10.5669    1.7732 H   0  0  0  0  0  0  0  0  0  0  0  0
    4.1703  -11.1546    1.7568 H   0  0  0  0  0  0  0  0  0  0  0  0
   -1.1365   -9.6495    3.3754 H   0  0  0  0  0  0  0  0  0  0  0  0
   -0.1298  -11.0681    3.4695 H   0  0  0  0  0  0  0  0  0  0  0  0
   -0.1213  -10.0482    2.0174 H   0  0  0  0  0  0  0  0  0  0  0  0
    2.5753  -12.5455    5.2443 H   0  0  0  0  0  0  0  0  0  0  0  0
    1.9851  -12.2647    3.6071 H   0  0  0  0  0  0  0  0  0  0  0  0
    0.9479  -11.8531    4.9795 H   0  0  0  0  0  0  0  0  0  0  0  0
    4.1061   -8.6285    4.2822 H   0  0  0  0  0  0  0  0  0  0  0  0
    3.3166   -8.2268    6.7109 H   0  0  0  0  0  0  0  0  0  0  0  0
    3.0262   -6.5725    7.0431 H   0  0  0  0  0  0  0  0  0  0  0  0
    2.3022   -9.6898    6.3739 H   0  0  0  0  0  0  0  0  0  0  0  0
    1.3639  -10.8025    7.3443 H   0  0  0  0  0  0  0  0  0  0  0  0
  1  2  1  0
  1 28  1  0
  1 29  1  0
  1 30  1  0
  2  3  1  0
  3 10  2  0
  3  4  1  0
  4  5  1  0
  4  6  2  0
  5 31  1  0
  5 32  1  0
  5 33  1  0
  6  7  1  0
  6  8  1  0
  7 34  1  0
  8 22  2  0
  8  9  1  0
  9 10  1  0
  9 12  2  0
 10 11  1  0
 11 35  1  0
 12 21  1  0
 12 13  1  0
 13 14  1  0
 13 36  1  0
 13 37  1  0
 14 15  1  0
 14 16  1  0
 14 38  1  6
 15 39  1  0
 16 17  1  0
 16 19  1  0
 16 21  1  0
 17 18  1  0
 18 40  1  0
 18 41  1  0
 18 42  1  0
 19 20  1  0
 20 43  1  0
 20 44  1  0
 20 45  1  0
 21 22  1  0
 21 46  1  1
 22 23  1  0
 23 24  1  0
 23 47  1  0
 23 48  1  0
 24 25  1  0
 25 26  1  0
 25 27  2  0
 26 49  1  0
 26 50  1  0
M  END
>  <i_m_ct_stereo_status>  (13) 
1

>  <s_m_source_file>  (13) 
/var/tmp/pbs.5076255.sched01/tmp9d3cgwpa/0mc_8ktg4.sdf

>  <i_m_source_file_index>  (13) 
5

>  <i_lp_mmshare_version>  (13) 
48012

>  <i_f3d_flags>  (13) 
0

>  <s_epik_input>  (13) 
W09IXWMxYyhbQ0gzXSljKE9bQ0gzXSljKFtPSF0pYyhjMT0yKT1DM1tDQEhdKEMoW0NAQEhdKFtDSDJdMylbT0hdKShPW0NIM10pT1tDSDNdKUMyW0NIMl1PQyg9TylbTkgyXQ==

>  <s_epik_cmdline>  (13) 
J2VwaWtfcHl0aG9uJywgJy1waHQnLCAnMi4wJywgJy1waCcsICc3LjAnLCAnLXRuJywgJzgnLCAnLW1hJywgJzIwMCcsICctaW1hZScsICc8aW5maWxlLm1hZT4nLCAnLW9tYWUnLCAnPG91dGZpbGUubWFlPic=

>  <r_epik_Ionization_Penalty>  (13) 
1.93595

>  <r_epik_Ionization_Penalty_Charging>  (13) 
0

>  <r_epik_Ionization_Penalty_Neutral>  (13) 
1.93595

>  <r_epik_State_Penalty>  (13) 
1.80646

>  <r_epik_Charging_Adjusted_Penalty>  (13) 
1.80646

>  <i_epik_Tot_Q>  (13) 
0

>  <i_epik_Tot_abs_Q>  (13) 
0

>  <s_epik_Chemistry_Notes>  (13) 
This compound has an ester and may undergo hydrolysis at high or low pH.

>  <s_lp_Force_Field>  (13) 
OPLS3e

>  <r_lp_Energy>  (13) 
20.2483

>  <b_lp_Chiralities_Consistent>  (13) 
1

>  <s_lp_Variant>  (13) 
2:0-3

>  <s_i_glide_gridfile>  (13) 
pfpi4k_grid

>  <i_i_glide_lignum>  (13) 
5

>  <i_i_glide_rotatable_bonds>  (13) 
9

>  <r_i_docking_score>  (13) 
-3.74311

>  <r_i_glide_ligand_efficiency>  (13) 
-0.138634

>  <r_i_glide_ligand_efficiency_sa>  (13) 
-0.415901

>  <r_i_glide_ligand_efficiency_ln>  (13) 
-0.871335

>  <r_i_glide_gscore>  (13) 
-3.74311

>  <r_i_glide_lipo>  (13) 
-0.00129381

>  <r_i_glide_hbond>  (13) 
-0.152

>  <r_i_glide_metal>  (13) 
-0

>  <r_i_glide_rewards>  (13) 
-1.30879

>  <r_i_glide_evdw>  (13) 
-16.1755

>  <r_i_glide_ecoul>  (13) 
-10.5019

>  <r_i_glide_erotb>  (13) 
0.266905

>  <r_i_glide_esite>  (13) 
-0.163881

>  <r_i_glide_emodel>  (13) 
-35.4927

>  <r_i_glide_energy>  (13) 
-26.6773

>  <r_i_glide_einternal>  (13) 
6.01776

>  <r_i_glide_intrahb_reward>  (13) 
-0.5

>  <i_i_glide_confnum>  (13) 
2

>  <i_i_glide_posenum>  (13) 
28

>  <r_i_glide_eff_state_penalty>  (13) 
0

>  <ligand_id>  (13) 
2

>  <original_smiles>  (13) 
COc1c(C)c(O)c2c(c1O)=C1CC(O)C(OC)(OC)C1C=2COC(N)=O

>  <smiles>  (13) 
[H]Oc1c(OC([H])([H])[H])c(C([H])([H])[H])c(O[H])c2c1=C1C([H])([H])C([H])(O[H])C(OC([H])([H])[H])(OC([H])([H])[H])C1([H])C=2C([H])([H])OC(=O)N([H])[H]

$$$$
2:2:1
     RDKit          3D

 50 52  0  0  1  0  0  0  0  0999 V2000
    3.8397   -1.0075   -0.2670 C   0  0  0  0  0  0  0  0  0  0  0  0
    3.9175   -0.4037    1.0262 O   0  0  0  0  0  0  0  0  0  0  0  0
    2.8401   -0.6149    1.8711 C   0  0  0  0  0  0  0  0  0  0  0  0
    2.5903   -1.9756    2.4183 C   0  0  0  0  0  0  0  0  0  0  0  0
    3.5560   -3.1241    2.1073 C   0  0  0  0  0  0  0  0  0  0  0  0
    1.5646   -2.1475    3.2842 C   0  0  0  0  0  0  0  0  0  0  0  0
    1.3447   -3.3686    3.7967 O   0  0  0  0  0  0  0  0  0  0  0  0
    0.7095   -1.0342    3.6848 C   0  0  0  0  0  0  0  0  0  0  0  0
    0.9035    0.2422    3.0663 C   0  0  0  0  0  0  0  0  0  0  0  0
    2.0610    0.4377    2.2003 C   0  0  0  0  0  0  0  0  0  0  0  0
    2.3446    1.6812    1.7318 O   0  0  0  0  0  0  0  0  0  0  0  0
   -0.0239    1.0923    3.4827 C   0  0  0  0  0  0  0  0  0  0  0  0
   -0.2491    2.5940    3.4813 C   0  0  0  0  0  0  0  0  0  0  0  0
   -1.2226    2.7926    4.6806 C   0  0  1  0  0  0  0  0  0  0  0  0
   -2.5385    2.9592    4.1633 O   0  0  0  0  0  0  0  0  0  0  0  0
   -1.0797    1.4827    5.5508 C   0  0  0  0  0  0  0  0  0  0  0  0
    0.1210    1.6307    6.3047 O   0  0  0  0  0  0  0  0  0  0  0  0
    0.3132    0.7204    7.3853 C   0  0  0  0  0  0  0  0  0  0  0  0
   -2.1857    1.1855    6.3149 O   0  0  0  0  0  0  0  0  0  0  0  0
   -2.5854    2.1232    7.3110 C   0  0  0  0  0  0  0  0  0  0  0  0
   -0.9716    0.4317    4.4329 C   0  0  2  0  0  0  0  0  0  0  0  0
   -0.3247   -0.9458    4.5548 C   0  0  0  0  0  0  0  0  0  0  0  0
   -1.0637   -2.0680    5.3073 C   0  0  0  0  0  0  0  0  0  0  0  0
   -0.8954   -2.1249    6.7173 O   0  0  0  0  0  0  0  0  0  0  0  0
   -0.2066   -3.0430    7.4138 C   0  0  0  0  0  0  0  0  0  0  0  0
    0.3558   -4.0133    6.6399 N   0  0  0  0  0  0  0  0  0  0  0  0
   -0.1610   -3.0163    8.6693 O   0  0  0  0  0  0  0  0  0  0  0  0
    4.7753   -0.8567   -0.8039 H   0  0  0  0  0  0  0  0  0  0  0  0
    3.0209   -0.6622   -0.8329 H   0  0  0  0  0  0  0  0  0  0  0  0
    3.7004   -2.0943   -0.3091 H   0  0  0  0  0  0  0  0  0  0  0  0
    3.3653   -4.0421    2.6468 H   0  0  0  0  0  0  0  0  0  0  0  0
    4.5832   -2.8088    2.2786 H   0  0  0  0  0  0  0  0  0  0  0  0
    3.4615   -3.4698    1.0767 H   0  0  0  0  0  0  0  0  0  0  0  0
    0.5868   -3.2749    4.3410 H   0  0  0  0  0  0  0  0  0  0  0  0
    1.5959    2.2390    1.9473 H   0  0  0  0  0  0  0  0  0  0  0  0
    0.6763    3.1471    3.6482 H   0  0  0  0  0  0  0  0  0  0  0  0
   -0.6676    2.9326    2.5330 H   0  0  0  0  0  0  0  0  0  0  0  0
   -0.9913    3.6866    5.2642 H   0  0  0  0  0  0  0  0  0  0  0  0
   -2.7556    2.2022    3.6198 H   0  0  0  0  0  0  0  0  0  0  0  0
    1.3472    0.5885    7.7186 H   0  0  0  0  0  0  0  0  0  0  0  0
    0.1256   -0.2072    6.9972 H   0  0  0  0  0  0  0  0  0  0  0  0
   -0.3526    0.8149    8.2505 H   0  0  0  0  0  0  0  0  0  0  0  0
   -3.5730    1.8487    7.6432 H   0  0  0  0  0  0  0  0  0  0  0  0
   -2.6371    3.1497    6.9624 H   0  0  0  0  0  0  0  0  0  0  0  0
   -1.9525    2.0889    8.1902 H   0  0  0  0  0  0  0  0  0  0  0  0
   -1.9371    0.3505    3.9290 H   0  0  0  0  0  0  0  0  0  0  0  0
   -2.1332   -1.9146    5.2483 H   0  0  0  0  0  0  0  0  0  0  0  0
   -0.8573   -3.0280    4.8295 H   0  0  0  0  0  0  0  0  0  0  0  0
    0.2572   -3.8497    5.6523 H   0  0  0  0  0  0  0  0  0  0  0  0
    0.6953   -4.8607    7.0305 H   0  0  0  0  0  0  0  0  0  0  0  0
  1  2  1  0
  1 28  1  0
  1 29  1  0
  1 30  1  0
  2  3  1  0
  3 10  2  0
  3  4  1  0
  4  5  1  0
  4  6  2  0
  5 31  1  0
  5 32  1  0
  5 33  1  0
  6  7  1  0
  6  8  1  0
  7 34  1  0
  8 22  2  0
  8  9  1  0
  9 10  1  0
  9 12  2  0
 10 11  1  0
 11 35  1  0
 12 21  1  0
 12 13  1  0
 13 14  1  0
 13 36  1  0
 13 37  1  0
 14 15  1  0
 14 16  1  0
 14 38  1  1
 15 39  1  0
 16 17  1  0
 16 19  1  0
 16 21  1  0
 17 18  1  0
 18 40  1  0
 18 41  1  0
 18 42  1  0
 19 20  1  0
 20 43  1  0
 20 44  1  0
 20 45  1  0
 21 22  1  0
 21 46  1  6
 22 23  1  0
 23 24  1  0
 23 47  1  0
 23 48  1  0
 24 25  1  0
 25 26  1  0
 25 27  2  0
 26 49  1  0
 26 50  1  0
M  END
>  <i_m_ct_stereo_status>  (14) 
1

>  <s_m_source_file>  (14) 
/var/tmp/pbs.5076255.sched01/tmp9d3cgwpa/0mc_8ktg4.sdf

>  <i_m_source_file_index>  (14) 
5

>  <i_lp_mmshare_version>  (14) 
48012

>  <i_f3d_flags>  (14) 
0

>  <s_epik_input>  (14) 
W09IXWMxYyhbQ0gzXSljKE9bQ0gzXSljKFtPSF0pYyhjMT0yKT1DM1tDQEhdKEMoW0NAQEhdKFtDSDJdMylbT0hdKShPW0NIM10pT1tDSDNdKUMyW0NIMl1PQyg9TylbTkgyXQ==

>  <s_epik_cmdline>  (14) 
J2VwaWtfcHl0aG9uJywgJy1waHQnLCAnMi4wJywgJy1waCcsICc3LjAnLCAnLXRuJywgJzgnLCAnLW1hJywgJzIwMCcsICctaW1hZScsICc8aW5maWxlLm1hZT4nLCAnLW9tYWUnLCAnPG91dGZpbGUubWFlPic=

>  <r_epik_Ionization_Penalty>  (14) 
1.93595

>  <r_epik_Ionization_Penalty_Charging>  (14) 
0

>  <r_epik_Ionization_Penalty_Neutral>  (14) 
1.93595

>  <r_epik_State_Penalty>  (14) 
1.80646

>  <r_epik_Charging_Adjusted_Penalty>  (14) 
1.80646

>  <i_epik_Tot_Q>  (14) 
0

>  <i_epik_Tot_abs_Q>  (14) 
0

>  <s_epik_Chemistry_Notes>  (14) 
This compound has an ester and may undergo hydrolysis at high or low pH.

>  <s_lp_Force_Field>  (14) 
OPLS3e

>  <r_lp_Energy>  (14) 
20.2483

>  <b_lp_Chiralities_Consistent>  (14) 
1

>  <s_lp_Variant>  (14) 
2:0-3

>  <s_i_glide_gridfile>  (14) 
pfpi4k_grid

>  <i_i_glide_lignum>  (14) 
5

>  <i_i_glide_rotatable_bonds>  (14) 
9

>  <r_i_docking_score>  (14) 
-2.83884

>  <r_i_glide_ligand_efficiency>  (14) 
-0.105142

>  <r_i_glide_ligand_efficiency_sa>  (14) 
-0.315426

>  <r_i_glide_ligand_efficiency_ln>  (14) 
-0.660835

>  <r_i_glide_gscore>  (14) 
-2.83884

>  <r_i_glide_lipo>  (14) 
-0.0214807

>  <r_i_glide_hbond>  (14) 
-0.151109

>  <r_i_glide_metal>  (14) 
-0

>  <r_i_glide_rewards>  (14) 
-0.808792

>  <r_i_glide_evdw>  (14) 
-20.031

>  <r_i_glide_ecoul>  (14) 
-7.03857

>  <r_i_glide_erotb>  (14) 
0.266905

>  <r_i_glide_esite>  (14) 
-0.0670238

>  <r_i_glide_emodel>  (14) 
-26.1407

>  <r_i_glide_energy>  (14) 
-27.0696

>  <r_i_glide_einternal>  (14) 
7.61482

>  <r_i_glide_intrahb_reward>  (14) 
-0

>  <i_i_glide_confnum>  (14) 
2

>  <i_i_glide_posenum>  (14) 
3

>  <r_i_glide_eff_state_penalty>  (14) 
0

>  <ligand_id>  (14) 
2

>  <original_smiles>  (14) 
COc1c(C)c(O)c2c(c1O)=C1CC(O)C(OC)(OC)C1C=2COC(N)=O

>  <smiles>  (14) 
[H]Oc1c(OC([H])([H])[H])c(C([H])([H])[H])c(O[H])c2c1=C1C([H])([H])C([H])(O[H])C(OC([H])([H])[H])(OC([H])([H])[H])C1([H])C=2C([H])([H])OC(=O)N([H])[H]

$$$$
2:2:2
     RDKit          3D

 50 52  0  0  1  0  0  0  0  0999 V2000
    3.1755   -4.6739    2.8978 C   0  0  0  0  0  0  0  0  0  0  0  0
    2.5564   -3.7797    1.9764 O   0  0  0  0  0  0  0  0  0  0  0  0
    2.2372   -2.5312    2.4628 C   0  0  0  0  0  0  0  0  0  0  0  0
    2.8759   -1.3961    1.7702 C   0  0  0  0  0  0  0  0  0  0  0  0
    3.8354   -1.7013    0.6261 C   0  0  0  0  0  0  0  0  0  0  0  0
    2.6191   -0.1146    2.1640 C   0  0  0  0  0  0  0  0  0  0  0  0
    3.2675    0.8855    1.5896 O   0  0  0  0  0  0  0  0  0  0  0  0
    1.7270    0.1344    3.2888 C   0  0  0  0  0  0  0  0  0  0  0  0
    1.1811   -0.9858    3.9949 C   0  0  0  0  0  0  0  0  0  0  0  0
    1.3935   -2.3372    3.5086 C   0  0  0  0  0  0  0  0  0  0  0  0
    0.7363   -3.3493    4.0860 O   0  0  0  0  0  0  0  0  0  0  0  0
    0.4533   -0.4911    5.0112 C   0  0  0  0  0  0  0  0  0  0  0  0
   -0.6413   -1.0534    5.8701 C   0  0  0  0  0  0  0  0  0  0  0  0
   -1.4304    0.2268    6.2836 C   0  0  1  0  0  0  0  0  0  0  0  0
   -0.9950    0.5290    7.5918 O   0  0  0  0  0  0  0  0  0  0  0  0
   -1.0051    1.3452    5.2488 C   0  0  0  0  0  0  0  0  0  0  0  0
   -1.7516    1.1036    4.0847 O   0  0  0  0  0  0  0  0  0  0  0  0
   -1.7850    2.0543    2.9848 C   0  0  0  0  0  0  0  0  0  0  0  0
   -1.1619    2.6085    5.8039 O   0  0  0  0  0  0  0  0  0  0  0  0
   -2.4599    3.0938    6.1222 C   0  0  0  0  0  0  0  0  0  0  0  0
    0.4957    0.9904    5.1054 C   0  0  2  0  0  0  0  0  0  0  0  0
    1.2946    1.2825    3.8531 C   0  0  0  0  0  0  0  0  0  0  0  0
    1.6753    2.7157    3.5203 C   0  0  0  0  0  0  0  0  0  0  0  0
    0.8102    3.6449    4.1826 O   0  0  0  0  0  0  0  0  0  0  0  0
    0.7903    4.9841    3.9452 C   0  0  0  0  0  0  0  0  0  0  0  0
    1.9156    5.4377    3.2843 N   0  0  0  0  0  0  0  0  0  0  0  0
   -0.1439    5.7001    4.3096 O   0  0  0  0  0  0  0  0  0  0  0  0
    3.3436   -5.6263    2.3956 H   0  0  0  0  0  0  0  0  0  0  0  0
    2.6098   -4.9041    3.7968 H   0  0  0  0  0  0  0  0  0  0  0  0
    4.1463   -4.2820    3.2008 H   0  0  0  0  0  0  0  0  0  0  0  0
    4.2329   -0.8148    0.1257 H   0  0  0  0  0  0  0  0  0  0  0  0
    3.3119   -2.2784   -0.1359 H   0  0  0  0  0  0  0  0  0  0  0  0
    4.6934   -2.2758    0.9779 H   0  0  0  0  0  0  0  0  0  0  0  0
    3.0532    1.6832    2.0441 H   0  0  0  0  0  0  0  0  0  0  0  0
    0.2362   -2.9782    4.7890 H   0  0  0  0  0  0  0  0  0  0  0  0
   -1.2754   -1.7465    5.3116 H   0  0  0  0  0  0  0  0  0  0  0  0
   -0.2158   -1.5742    6.7282 H   0  0  0  0  0  0  0  0  0  0  0  0
   -2.5098    0.1327    6.2404 H   0  0  0  0  0  0  0  0  0  0  0  0
   -0.1470    0.9463    7.5156 H   0  0  0  0  0  0  0  0  0  0  0  0
   -2.2703    1.6153    2.0915 H   0  0  0  0  0  0  0  0  0  0  0  0
   -0.8072    2.3193    2.6584 H   0  0  0  0  0  0  0  0  0  0  0  0
   -2.3434    2.9564    3.2468 H   0  0  0  0  0  0  0  0  0  0  0  0
   -2.3284    4.0566    6.6227 H   0  0  0  0  0  0  0  0  0  0  0  0
   -3.0035    2.4222    6.7898 H   0  0  0  0  0  0  0  0  0  0  0  0
   -3.0838    3.2809    5.2484 H   0  0  0  0  0  0  0  0  0  0  0  0
    1.0462    1.2752    6.0008 H   0  0  0  0  0  0  0  0  0  0  0  0
    2.6859    2.8285    3.9120 H   0  0  0  0  0  0  0  0  0  0  0  0
    1.6541    2.8545    2.4388 H   0  0  0  0  0  0  0  0  0  0  0  0
    2.5430    4.7505    2.9130 H   0  0  0  0  0  0  0  0  0  0  0  0
    1.9855    6.4183    3.0478 H   0  0  0  0  0  0  0  0  0  0  0  0
  1  2  1  0
  1 28  1  0
  1 29  1  0
  1 30  1  0
  2  3  1  0
  3 10  2  0
  3  4  1  0
  4  5  1  0
  4  6  2  0
  5 31  1  0
  5 32  1  0
  5 33  1  0
  6  7  1  0
  6  8  1  0
  7 34  1  0
  8 22  2  0
  8  9  1  0
  9 10  1  0
  9 12  2  0
 10 11  1  0
 11 35  1  0
 12 21  1  0
 12 13  1  0
 13 14  1  0
 13 36  1  0
 13 37  1  0
 14 15  1  0
 14 16  1  0
 14 38  1  1
 15 39  1  0
 16 17  1  0
 16 19  1  0
 16 21  1  0
 17 18  1  0
 18 40  1  0
 18 41  1  0
 18 42  1  0
 19 20  1  0
 20 43  1  0
 20 44  1  0
 20 45  1  0
 21 22  1  0
 21 46  1  1
 22 23  1  0
 23 24  1  0
 23 47  1  0
 23 48  1  0
 24 25  1  0
 25 26  1  0
 25 27  2  0
 26 49  1  0
 26 50  1  0
M  END
>  <i_m_ct_stereo_status>  (15) 
1

>  <s_m_source_file>  (15) 
/var/tmp/pbs.5076255.sched01/tmp9d3cgwpa/0mc_8ktg4.sdf

>  <i_m_source_file_index>  (15) 
5

>  <i_lp_mmshare_version>  (15) 
48012

>  <i_f3d_flags>  (15) 
0

>  <s_epik_input>  (15) 
W09IXWMxYyhbQ0gzXSljKE9bQ0gzXSljKFtPSF0pYyhjMT0yKT1DM1tDQEhdKEMoW0NAQEhdKFtDSDJdMylbT0hdKShPW0NIM10pT1tDSDNdKUMyW0NIMl1PQyg9TylbTkgyXQ==

>  <s_epik_cmdline>  (15) 
J2VwaWtfcHl0aG9uJywgJy1waHQnLCAnMi4wJywgJy1waCcsICc3LjAnLCAnLXRuJywgJzgnLCAnLW1hJywgJzIwMCcsICctaW1hZScsICc8aW5maWxlLm1hZT4nLCAnLW9tYWUnLCAnPG91dGZpbGUubWFlPic=

>  <r_epik_Ionization_Penalty>  (15) 
1.93595

>  <r_epik_Ionization_Penalty_Charging>  (15) 
0

>  <r_epik_Ionization_Penalty_Neutral>  (15) 
1.93595

>  <r_epik_State_Penalty>  (15) 
1.80646

>  <r_epik_Charging_Adjusted_Penalty>  (15) 
1.80646

>  <i_epik_Tot_Q>  (15) 
0

>  <i_epik_Tot_abs_Q>  (15) 
0

>  <s_epik_Chemistry_Notes>  (15) 
This compound has an ester and may undergo hydrolysis at high or low pH.

>  <s_lp_Force_Field>  (15) 
OPLS3e

>  <r_lp_Energy>  (15) 
20.2483

>  <b_lp_Chiralities_Consistent>  (15) 
1

>  <s_lp_Variant>  (15) 
2:0-3

>  <s_i_glide_gridfile>  (15) 
pfpi4k_grid

>  <i_i_glide_lignum>  (15) 
5

>  <i_i_glide_rotatable_bonds>  (15) 
9

>  <r_i_docking_score>  (15) 
-2.45526

>  <r_i_glide_ligand_efficiency>  (15) 
-0.0909357

>  <r_i_glide_ligand_efficiency_sa>  (15) 
-0.272807

>  <r_i_glide_ligand_efficiency_ln>  (15) 
-0.571545

>  <r_i_glide_gscore>  (15) 
-2.45526

>  <r_i_glide_lipo>  (15) 
-0.133243

>  <r_i_glide_hbond>  (15) 
-0.00367593

>  <r_i_glide_metal>  (15) 
-0

>  <r_i_glide_rewards>  (15) 
-0.808792

>  <r_i_glide_evdw>  (15) 
-22.2436

>  <r_i_glide_ecoul>  (15) 
-3.50568

>  <r_i_glide_erotb>  (15) 
0.266905

>  <r_i_glide_esite>  (15) 
-0.138427

>  <r_i_glide_emodel>  (15) 
-26.0079

>  <r_i_glide_energy>  (15) 
-25.7493

>  <r_i_glide_einternal>  (15) 
7.70653

>  <r_i_glide_intrahb_reward>  (15) 
-0

>  <i_i_glide_confnum>  (15) 
2

>  <i_i_glide_posenum>  (15) 
6

>  <r_i_glide_eff_state_penalty>  (15) 
0

>  <ligand_id>  (15) 
2

>  <original_smiles>  (15) 
COc1c(C)c(O)c2c(c1O)=C1CC(O)C(OC)(OC)C1C=2COC(N)=O

>  <smiles>  (15) 
[H]Oc1c(OC([H])([H])[H])c(C([H])([H])[H])c(O[H])c2c1=C1C([H])([H])C([H])(O[H])C(OC([H])([H])[H])(OC([H])([H])[H])C1([H])C=2C([H])([H])OC(=O)N([H])[H]

$$$$
3:0:0
     RDKit          3D

 58 63  0  0  1  0  0  0  0  0999 V2000
    2.3201    4.8251    7.3785 C   0  0  0  0  0  0  0  0  0  0  0  0
    1.7116    5.2064    8.6481 N   0  0  0  0  0  0  0  0  0  0  0  0
    1.6396    4.1568    9.6330 C   0  0  0  0  0  0  0  0  0  0  0  0
    0.8344    4.7533   10.7790 C   0  0  2  0  0  0  0  0  0  0  0  0
    0.4306    3.8176   11.9475 C   0  0  0  0  0  0  0  0  0  0  0  0
   -0.8839    3.1412   11.7788 N   0  0  2  0  0  0  0  0  0  0  0  0
   -0.8809    1.8677   10.9991 C   0  0  0  0  0  0  0  0  0  0  0  0
    0.2645    0.9263   11.3049 C   0  0  0  0  0  0  0  0  0  0  0  0
    0.2525    0.1436   12.4739 C   0  0  0  0  0  0  0  0  0  0  0  0
    1.3247   -0.7300   12.7519 C   0  0  0  0  0  0  0  0  0  0  0  0
    2.4288   -0.8095   11.8774 C   0  0  0  0  0  0  0  0  0  0  0  0
    2.4420   -0.0326   10.7058 C   0  0  0  0  0  0  0  0  0  0  0  0
    1.3509    0.8040   10.4054 C   0  0  0  0  0  0  0  0  0  0  0  0
   -1.9305    4.1072   11.3581 C   0  0  0  0  0  0  0  0  0  0  0  0
   -1.5904    4.6660    9.9841 C   0  0  2  0  0  0  0  0  0  0  0  0
   -2.6185    5.2053    9.1293 O   0  0  0  0  0  0  0  0  0  0  0  0
   -2.1921    3.8708    8.8443 C   0  0  1  0  0  0  0  0  0  0  0  0
   -1.5307    3.6027    7.4979 C   0  0  0  0  0  0  0  0  0  0  0  0
   -0.7993    4.5681    6.7867 C   0  0  0  0  0  0  0  0  0  0  0  0
   -0.3416    4.2939    5.4808 C   0  0  0  0  0  0  0  0  0  0  0  0
   -0.5157    3.0154    4.9303 C   0  0  0  0  0  0  0  0  0  0  0  0
   -1.1191    1.9643    5.6593 C   0  0  0  0  0  0  0  0  0  0  0  0
   -1.2167    0.5654    5.0333 C   0  0  0  0  0  0  0  0  0  0  0  0
   -0.5685    0.4025    3.8722 N   0  0  0  0  0  0  0  0  0  0  0  0
   -1.8182   -0.3859    5.5310 O   0  0  0  0  0  0  0  0  0  0  0  0
   -1.6250    2.2838    6.9588 C   0  0  0  0  0  0  0  0  0  0  0  0
   -2.1811    1.3384    7.7492 O   0  0  0  0  0  0  0  0  0  0  0  0
   -0.4567    5.9257    7.3825 C   0  0  0  0  0  0  0  0  0  0  0  0
    0.4052    5.8817    8.6674 C   0  0  1  0  0  0  0  0  0  0  0  0
   -0.2887    5.4962   10.0206 C   0  0  2  0  0  0  0  0  0  0  0  0
   -0.5601    6.6923   10.7441 O   0  0  0  0  0  0  0  0  0  0  0  0
    3.3593    4.5436    7.5353 H   0  0  0  0  0  0  0  0  0  0  0  0
    2.3116    5.6571    6.6795 H   0  0  0  0  0  0  0  0  0  0  0  0
    1.8322    3.9678    6.9187 H   0  0  0  0  0  0  0  0  0  0  0  0
    1.0779    3.3372    9.1870 H   0  0  0  0  0  0  0  0  0  0  0  0
    2.6370    3.8359    9.9509 H   0  0  0  0  0  0  0  0  0  0  0  0
    1.5016    5.4970   11.2134 H   0  0  0  0  0  0  0  0  0  0  0  0
    1.2388    3.1269   12.1764 H   0  0  0  0  0  0  0  0  0  0  0  0
    0.3461    4.4287   12.8415 H   0  0  0  0  0  0  0  0  0  0  0  0
   -1.8218    1.3553   11.1780 H   0  0  0  0  0  0  0  0  0  0  0  0
   -0.8180    2.0594    9.9356 H   0  0  0  0  0  0  0  0  0  0  0  0
   -0.5836    0.1958   13.1579 H   0  0  0  0  0  0  0  0  0  0  0  0
    1.2960   -1.3398   13.6458 H   0  0  0  0  0  0  0  0  0  0  0  0
    3.2516   -1.4687   12.0914 H   0  0  0  0  0  0  0  0  0  0  0  0
    3.2763   -0.0800   10.0175 H   0  0  0  0  0  0  0  0  0  0  0  0
    1.3749    1.3288    9.4612 H   0  0  0  0  0  0  0  0  0  0  0  0
   -2.8972    3.6124   11.3240 H   0  0  0  0  0  0  0  0  0  0  0  0
   -2.0389    4.9146   12.0803 H   0  0  0  0  0  0  0  0  0  0  0  0
   -2.9737    3.1575    9.0806 H   0  0  0  0  0  0  0  0  0  0  0  0
    0.1624    5.0467    4.9028 H   0  0  0  0  0  0  0  0  0  0  0  0
   -0.1316    2.8812    3.9242 H   0  0  0  0  0  0  0  0  0  0  0  0
   -0.0759    1.1803    3.4696 H   0  0  0  0  0  0  0  0  0  0  0  0
   -0.6252   -0.4782    3.3893 H   0  0  0  0  0  0  0  0  0  0  0  0
    0.0789    6.4997    6.6268 H   0  0  0  0  0  0  0  0  0  0  0  0
   -1.3692    6.4957    7.5613 H   0  0  0  0  0  0  0  0  0  0  0  0
    0.6623    6.9330    8.7852 H   0  0  0  0  0  0  0  0  0  0  0  0
   -0.9659    6.4884   11.5727 H   0  0  0  0  0  0  0  0  0  0  0  0
   -1.1940    2.8300   12.6949 H   0  0  0  0  0  0  0  0  0  0  0  0
  1  2  1  0
  1 32  1  0
  1 33  1  0
  1 34  1  0
  2 29  1  0
  2  3  1  0
  3  4  1  0
  3 35  1  0
  3 36  1  0
  4 30  1  0
  4  5  1  0
  4 37  1  1
  5  6  1  0
  5 38  1  0
  5 39  1  0
  6  7  1  0
  6 14  1  0
  6 58  1  1
  7  8  1  0
  7 40  1  0
  7 41  1  0
  8 13  1  0
  8  9  2  0
  9 10  1  0
  9 42  1  0
 10 11  2  0
 10 43  1  0
 11 12  1  0
 11 44  1  0
 12 13  2  0
 12 45  1  0
 13 46  1  0
 14 15  1  0
 14 47  1  0
 14 48  1  0
 15 17  1  0
 15 30  1  0
 15 16  1  1
 16 17  1  0
 17 18  1  0
 17 49  1  1
 18 26  1  0
 18 19  2  0
 19 20  1  0
 19 28  1  0
 20 21  2  0
 20 50  1  0
 21 22  1  0
 21 51  1  0
 22 23  1  0
 22 26  2  0
 23 24  1  0
 23 25  2  0
 24 52  1  0
 24 53  1  0
 26 27  1  0
 28 29  1  0
 28 54  1  0
 28 55  1  0
 29 30  1  0
 29 56  1  1
 30 31  1  1
 31 57  1  0
M  CHG  2   6   1  27  -1
M  END
>  <i_m_ct_stereo_status>  (16) 
1

>  <s_m_source_file>  (16) 
/var/tmp/pbs.5076255.sched01/tmp9d3cgwpa/0mc_8ktg4.sdf

>  <i_m_source_file_index>  (16) 
6

>  <i_lp_mmshare_version>  (16) 
48012

>  <i_f3d_flags>  (16) 
0

>  <s_epik_input>  (16) 
W05IMl1DKD1PKWMoYzFbT0hdKVtjSF1bY0hdYyhjMVtDQEBIXShbQ0BdMjM0KU8zKVtDSDJdW0NASF01W0NAXTQoW09IXSlbQ0BIXShbQ0gyXU41W0NIM10pW0NIMl1OKFtDSDJdMilbQ0gyXWM2W2NIXVtjSF1bY0hdW2NIXVtjSF02

>  <s_epik_cmdline>  (16) 
J2VwaWtfcHl0aG9uJywgJy1waHQnLCAnMi4wJywgJy1waCcsICc3LjAnLCAnLXRuJywgJzgnLCAnLW1hJywgJzIwMCcsICctaW1hZScsICc8aW5maWxlLm1hZT4nLCAnLW9tYWUnLCAnPG91dGZpbGUubWFlPic=

>  <r_epik_Ionization_Penalty>  (16) 
0.380572

>  <r_epik_Ionization_Penalty_Charging>  (16) 
0.0808407

>  <r_epik_Ionization_Penalty_Neutral>  (16) 
0.299731

>  <r_epik_State_Penalty>  (16) 
0.305638

>  <r_epik_Charging_Adjusted_Penalty>  (16) 
0.386479

>  <i_epik_Tot_Q>  (16) 
0

>  <i_epik_Tot_abs_Q>  (16) 
2

>  <s_lp_Force_Field>  (16) 
OPLS3e

>  <r_lp_Energy>  (16) 
46.6469

>  <b_lp_Chiralities_Consistent>  (16) 
1

>  <s_lp_Variant>  (16) 
3:0-1

>  <s_i_glide_gridfile>  (16) 
pfpi4k_grid

>  <i_i_glide_lignum>  (16) 
6

>  <i_i_glide_rotatable_bonds>  (16) 
4

>  <r_i_docking_score>  (16) 
-3.17736

>  <r_i_glide_ligand_efficiency>  (16) 
-0.102496

>  <r_i_glide_ligand_efficiency_sa>  (16) 
-0.321978

>  <r_i_glide_ligand_efficiency_ln>  (16) 
-0.716593

>  <r_i_glide_gscore>  (16) 
-3.17736

>  <r_i_glide_lipo>  (16) 
-0.0306334

>  <r_i_glide_hbond>  (16) 
-0.260452

>  <r_i_glide_metal>  (16) 
-0

>  <r_i_glide_rewards>  (16) 
-0.535303

>  <r_i_glide_evdw>  (16) 
-17.7087

>  <r_i_glide_ecoul>  (16) 
-10.3991

>  <r_i_glide_erotb>  (16) 
0.222928

>  <r_i_glide_esite>  (16) 
-0.128602

>  <r_i_glide_emodel>  (16) 
-36.2652

>  <r_i_glide_energy>  (16) 
-28.1078

>  <r_i_glide_einternal>  (16) 
2.6398

>  <r_i_glide_intrahb_reward>  (16) 
-0

>  <i_i_glide_confnum>  (16) 
4

>  <i_i_glide_posenum>  (16) 
19

>  <r_i_glide_eff_state_penalty>  (16) 
0

>  <ligand_id>  (16) 
3

>  <original_smiles>  (16) 
CN1CC2CN(Cc3ccccc3)CC34OC3c3c(ccc(C(N)=O)c3O)CC1C24O

>  <smiles>  (16) 
[H]OC12C3([H])N(C([H])([H])[H])C([H])([H])C1([H])C([H])([H])[N+]([H])(C([H])([H])c1c([H])c([H])c([H])c([H])c1[H])C([H])([H])C21OC1([H])c1c([O-])c(C(=O)N([H])[H])c([H])c([H])c1C3([H])[H]

$$$$
3:0:1
     RDKit          3D

 58 63  0  0  1  0  0  0  0  0999 V2000
    2.4850    4.6178    7.0458 C   0  0  0  0  0  0  0  0  0  0  0  0
    1.9211    4.9012    8.3610 N   0  0  0  0  0  0  0  0  0  0  0  0
    1.9668    3.8160    9.3107 C   0  0  0  0  0  0  0  0  0  0  0  0
    1.2017    4.3612   10.5083 C   0  0  2  0  0  0  0  0  0  0  0  0
    0.8988    3.3798   11.6762 C   0  0  0  0  0  0  0  0  0  0  0  0
   -0.4100    2.6745   11.5750 N   0  0  2  0  0  0  0  0  0  0  0  0
   -0.3908    1.4472   10.7272 C   0  0  0  0  0  0  0  0  0  0  0  0
    0.6231    0.3993   11.1455 C   0  0  0  0  0  0  0  0  0  0  0  0
    0.3538   -0.4567   12.2329 C   0  0  0  0  0  0  0  0  0  0  0  0
    1.2972   -1.4365   12.6031 C   0  0  0  0  0  0  0  0  0  0  0  0
    2.5069   -1.5659   11.8945 C   0  0  0  0  0  0  0  0  0  0  0  0
    2.7690   -0.7204   10.8015 C   0  0  0  0  0  0  0  0  0  0  0  0
    1.8294    0.2579   10.4240 C   0  0  0  0  0  0  0  0  0  0  0  0
   -1.5028    3.6243   11.2373 C   0  0  0  0  0  0  0  0  0  0  0  0
   -1.2505    4.2335    9.8626 C   0  0  2  0  0  0  0  0  0  0  0  0
   -2.3547    4.7476    9.0935 O   0  0  0  0  0  0  0  0  0  0  0  0
   -1.8811    3.4445    8.7373 C   0  0  1  0  0  0  0  0  0  0  0  0
   -1.3009    3.2411    7.3459 C   0  0  0  0  0  0  0  0  0  0  0  0
   -0.6589    4.2717    6.6139 C   0  0  0  0  0  0  0  0  0  0  0  0
   -0.2643    4.0538    5.2809 C   0  0  0  0  0  0  0  0  0  0  0  0
   -0.4185    2.7883    4.6987 C   0  0  0  0  0  0  0  0  0  0  0  0
   -0.9421    1.6938    5.4304 C   0  0  0  0  0  0  0  0  0  0  0  0
   -1.0178    0.3318    4.7543 C   0  0  0  0  0  0  0  0  0  0  0  0
   -0.1844    0.1330    3.7316 N   0  0  0  0  0  0  0  0  0  0  0  0
   -1.7922   -0.5675    5.0985 O   0  0  0  0  0  0  0  0  0  0  0  0
   -1.3789    1.9538    6.7592 C   0  0  0  0  0  0  0  0  0  0  0  0
   -1.8578    0.9504    7.5420 O   0  0  0  0  0  0  0  0  0  0  0  0
   -0.3291    5.6174    7.2452 C   0  0  0  0  0  0  0  0  0  0  0  0
    0.6072    5.5552    8.4792 C   0  0  1  0  0  0  0  0  0  0  0  0
    0.0147    5.1060    9.8529 C   0  0  2  0  0  0  0  0  0  0  0  0
   -0.2766    6.2469   10.6523 O   0  0  0  0  0  0  0  0  0  0  0  0
    3.5440    4.3791    7.1343 H   0  0  0  0  0  0  0  0  0  0  0  0
    2.4055    5.4806    6.3849 H   0  0  0  0  0  0  0  0  0  0  0  0
    2.0088    3.7619    6.5695 H   0  0  0  0  0  0  0  0  0  0  0  0
    1.4636    2.9455    8.8930 H   0  0  0  0  0  0  0  0  0  0  0  0
    3.0004    3.5652    9.5685 H   0  0  0  0  0  0  0  0  0  0  0  0
    1.8694    5.1120   10.9374 H   0  0  0  0  0  0  0  0  0  0  0  0
    1.7282    2.6886   11.8141 H   0  0  0  0  0  0  0  0  0  0  0  0
    0.8592    3.9571   12.5984 H   0  0  0  0  0  0  0  0  0  0  0  0
   -1.3787    0.9950   10.7689 H   0  0  0  0  0  0  0  0  0  0  0  0
   -0.2105    1.6951    9.6861 H   0  0  0  0  0  0  0  0  0  0  0  0
   -0.5845   -0.3758   12.7716 H   0  0  0  0  0  0  0  0  0  0  0  0
    1.0881   -2.0894   13.4354 H   0  0  0  0  0  0  0  0  0  0  0  0
    3.2302   -2.3115   12.1864 H   0  0  0  0  0  0  0  0  0  0  0  0
    3.6919   -0.8201   10.2494 H   0  0  0  0  0  0  0  0  0  0  0  0
    2.0399    0.8856    9.5663 H   0  0  0  0  0  0  0  0  0  0  0  0
   -2.4472    3.0901   11.2477 H   0  0  0  0  0  0  0  0  0  0  0  0
   -1.5911    4.3994   12.0028 H   0  0  0  0  0  0  0  0  0  0  0  0
   -2.6233    2.6902    8.9941 H   0  0  0  0  0  0  0  0  0  0  0  0
    0.1764    4.8544    4.6925 H   0  0  0  0  0  0  0  0  0  0  0  0
   -0.1045    2.6858    3.6643 H   0  0  0  0  0  0  0  0  0  0  0  0
    0.4387    0.8726    3.4464 H   0  0  0  0  0  0  0  0  0  0  0  0
   -0.2258   -0.7241    3.2013 H   0  0  0  0  0  0  0  0  0  0  0  0
    0.1440    6.2386    6.4789 H   0  0  0  0  0  0  0  0  0  0  0  0
   -1.2470    6.1438    7.4978 H   0  0  0  0  0  0  0  0  0  0  0  0
    0.8518    6.6075    8.6057 H   0  0  0  0  0  0  0  0  0  0  0  0
    0.4354    6.8648   10.5682 H   0  0  0  0  0  0  0  0  0  0  0  0
   -0.6472    2.3294   12.4983 H   0  0  0  0  0  0  0  0  0  0  0  0
  1  2  1  0
  1 32  1  0
  1 33  1  0
  1 34  1  0
  2 29  1  0
  2  3  1  0
  3  4  1  0
  3 35  1  0
  3 36  1  0
  4 30  1  0
  4  5  1  0
  4 37  1  1
  5  6  1  0
  5 38  1  0
  5 39  1  0
  6  7  1  0
  6 14  1  0
  6 58  1  1
  7  8  1  0
  7 40  1  0
  7 41  1  0
  8 13  1  0
  8  9  2  0
  9 10  1  0
  9 42  1  0
 10 11  2  0
 10 43  1  0
 11 12  1  0
 11 44  1  0
 12 13  2  0
 12 45  1  0
 13 46  1  0
 14 15  1  0
 14 47  1  0
 14 48  1  0
 15 17  1  0
 15 30  1  0
 15 16  1  1
 16 17  1  0
 17 18  1  0
 17 49  1  1
 18 26  1  0
 18 19  2  0
 19 20  1  0
 19 28  1  0
 20 21  2  0
 20 50  1  0
 21 22  1  0
 21 51  1  0
 22 23  1  0
 22 26  2  0
 23 24  1  0
 23 25  2  0
 24 52  1  0
 24 53  1  0
 26 27  1  0
 28 29  1  0
 28 54  1  0
 28 55  1  0
 29 30  1  0
 29 56  1  1
 30 31  1  1
 31 57  1  0
M  CHG  2   6   1  27  -1
M  END
>  <i_m_ct_stereo_status>  (17) 
1

>  <s_m_source_file>  (17) 
/var/tmp/pbs.5076255.sched01/tmp9d3cgwpa/0mc_8ktg4.sdf

>  <i_m_source_file_index>  (17) 
6

>  <i_lp_mmshare_version>  (17) 
48012

>  <i_f3d_flags>  (17) 
0

>  <s_epik_input>  (17) 
W05IMl1DKD1PKWMoYzFbT0hdKVtjSF1bY0hdYyhjMVtDQEBIXShbQ0BdMjM0KU8zKVtDSDJdW0NASF01W0NAXTQoW09IXSlbQ0BIXShbQ0gyXU41W0NIM10pW0NIMl1OKFtDSDJdMilbQ0gyXWM2W2NIXVtjSF1bY0hdW2NIXVtjSF02

>  <s_epik_cmdline>  (17) 
J2VwaWtfcHl0aG9uJywgJy1waHQnLCAnMi4wJywgJy1waCcsICc3LjAnLCAnLXRuJywgJzgnLCAnLW1hJywgJzIwMCcsICctaW1hZScsICc8aW5maWxlLm1hZT4nLCAnLW9tYWUnLCAnPG91dGZpbGUubWFlPic=

>  <r_epik_Ionization_Penalty>  (17) 
0.380572

>  <r_epik_Ionization_Penalty_Charging>  (17) 
0.0808407

>  <r_epik_Ionization_Penalty_Neutral>  (17) 
0.299731

>  <r_epik_State_Penalty>  (17) 
0.305638

>  <r_epik_Charging_Adjusted_Penalty>  (17) 
0.386479

>  <i_epik_Tot_Q>  (17) 
0

>  <i_epik_Tot_abs_Q>  (17) 
2

>  <s_lp_Force_Field>  (17) 
OPLS3e

>  <r_lp_Energy>  (17) 
46.6469

>  <b_lp_Chiralities_Consistent>  (17) 
1

>  <s_lp_Variant>  (17) 
3:0-1

>  <s_i_glide_gridfile>  (17) 
pfpi4k_grid

>  <i_i_glide_lignum>  (17) 
6

>  <i_i_glide_rotatable_bonds>  (17) 
4

>  <r_i_docking_score>  (17) 
-2.80528

>  <r_i_glide_ligand_efficiency>  (17) 
-0.0904929

>  <r_i_glide_ligand_efficiency_sa>  (17) 
-0.284273

>  <r_i_glide_ligand_efficiency_ln>  (17) 
-0.632677

>  <r_i_glide_gscore>  (17) 
-2.80528

>  <r_i_glide_lipo>  (17) 
-0.020151

>  <r_i_glide_hbond>  (17) 
-0.190331

>  <r_i_glide_metal>  (17) 
-0

>  <r_i_glide_rewards>  (17) 
-0.535303

>  <r_i_glide_evdw>  (17) 
-16.3795

>  <r_i_glide_ecoul>  (17) 
-9.00992

>  <r_i_glide_erotb>  (17) 
0.222928

>  <r_i_glide_esite>  (17) 
-0.111958

>  <r_i_glide_emodel>  (17) 
-33.3262

>  <r_i_glide_energy>  (17) 
-25.3895

>  <r_i_glide_einternal>  (17) 
0.93394

>  <r_i_glide_intrahb_reward>  (17) 
-0

>  <i_i_glide_confnum>  (17) 
4

>  <i_i_glide_posenum>  (17) 
1

>  <r_i_glide_eff_state_penalty>  (17) 
0

>  <ligand_id>  (17) 
3

>  <original_smiles>  (17) 
CN1CC2CN(Cc3ccccc3)CC34OC3c3c(ccc(C(N)=O)c3O)CC1C24O

>  <smiles>  (17) 
[H]OC12C3([H])N(C([H])([H])[H])C([H])([H])C1([H])C([H])([H])[N+]([H])(C([H])([H])c1c([H])c([H])c([H])c([H])c1[H])C([H])([H])C21OC1([H])c1c([O-])c(C(=O)N([H])[H])c([H])c([H])c1C3([H])[H]

$$$$
3:0:2
     RDKit          3D

 58 63  0  0  1  0  0  0  0  0999 V2000
    4.4288   -2.7640    6.0960 C   0  0  0  0  0  0  0  0  0  0  0  0
    4.1806   -4.0874    6.6495 N   0  0  0  0  0  0  0  0  0  0  0  0
    3.4331   -4.9929    5.8090 C   0  0  0  0  0  0  0  0  0  0  0  0
    3.2308   -6.2187    6.6937 C   0  0  2  0  0  0  0  0  0  0  0  0
    2.2965   -7.3428    6.1670 C   0  0  0  0  0  0  0  0  0  0  0  0
    0.8694   -7.2124    6.5654 N   0  0  2  0  0  0  0  0  0  0  0  0
    0.0496   -6.2979    5.7133 C   0  0  0  0  0  0  0  0  0  0  0  0
   -0.0310   -6.7150    4.2551 C   0  0  0  0  0  0  0  0  0  0  0  0
   -1.0598   -7.5805    3.8184 C   0  0  0  0  0  0  0  0  0  0  0  0
   -1.1333   -7.9438    2.4615 C   0  0  0  0  0  0  0  0  0  0  0  0
   -0.1881   -7.4546    1.5414 C   0  0  0  0  0  0  0  0  0  0  0  0
    0.8340   -6.5927    1.9701 C   0  0  0  0  0  0  0  0  0  0  0  0
    0.9038   -6.2145    3.3225 C   0  0  0  0  0  0  0  0  0  0  0  0
    0.7521   -6.9220    8.0177 C   0  0  0  0  0  0  0  0  0  0  0  0
    1.3899   -5.5719    8.3262 C   0  0  2  0  0  0  0  0  0  0  0  0
    0.9764   -4.8255    9.4833 O   0  0  0  0  0  0  0  0  0  0  0  0
    0.4188   -4.4168    8.2292 C   0  0  1  0  0  0  0  0  0  0  0  0
    0.7339   -3.0205    7.7276 C   0  0  0  0  0  0  0  0  0  0  0  0
    1.9333   -2.3344    8.0484 C   0  0  0  0  0  0  0  0  0  0  0  0
    2.1042   -0.9897    7.6622 C   0  0  0  0  0  0  0  0  0  0  0  0
    1.1491   -0.3542    6.8653 C   0  0  0  0  0  0  0  0  0  0  0  0
    0.0020   -1.0448    6.4174 C   0  0  0  0  0  0  0  0  0  0  0  0
   -0.9736   -0.3045    5.5325 C   0  0  0  0  0  0  0  0  0  0  0  0
   -0.4331    0.4556    4.5765 N   0  0  0  0  0  0  0  0  0  0  0  0
   -2.1873   -0.3687    5.6982 O   0  0  0  0  0  0  0  0  0  0  0  0
   -0.2123   -2.3781    6.8756 C   0  0  0  0  0  0  0  0  0  0  0  0
   -1.3376   -3.0652    6.4873 O   0  0  0  0  0  0  0  0  0  0  0  0
    3.0846   -3.0123    8.7660 C   0  0  0  0  0  0  0  0  0  0  0  0
    3.6907   -4.2382    8.0310 C   0  0  1  0  0  0  0  0  0  0  0  0
    2.9117   -5.5961    8.0744 C   0  0  2  0  0  0  0  0  0  0  0  0
    3.4964   -6.4259    9.0714 O   0  0  0  0  0  0  0  0  0  0  0  0
    5.0200   -2.8441    5.1840 H   0  0  0  0  0  0  0  0  0  0  0  0
    4.9904   -2.1432    6.7911 H   0  0  0  0  0  0  0  0  0  0  0  0
    3.5045   -2.2541    5.8307 H   0  0  0  0  0  0  0  0  0  0  0  0
    2.4800   -4.5392    5.5392 H   0  0  0  0  0  0  0  0  0  0  0  0
    3.9907   -5.2364    4.9025 H   0  0  0  0  0  0  0  0  0  0  0  0
    4.2213   -6.6733    6.7571 H   0  0  0  0  0  0  0  0  0  0  0  0
    2.4124   -7.4579    5.0907 H   0  0  0  0  0  0  0  0  0  0  0  0
    2.6444   -8.2921    6.5798 H   0  0  0  0  0  0  0  0  0  0  0  0
   -0.9656   -6.2387    6.1082 H   0  0  0  0  0  0  0  0  0  0  0  0
    0.4331   -5.2806    5.7527 H   0  0  0  0  0  0  0  0  0  0  0  0
   -1.7951   -7.9633    4.5130 H   0  0  0  0  0  0  0  0  0  0  0  0
   -1.9140   -8.6091    2.1246 H   0  0  0  0  0  0  0  0  0  0  0  0
   -0.2435   -7.7513    0.5070 H   0  0  0  0  0  0  0  0  0  0  0  0
    1.5706   -6.2293    1.2686 H   0  0  0  0  0  0  0  0  0  0  0  0
    1.6897   -5.5427    3.6383 H   0  0  0  0  0  0  0  0  0  0  0  0
   -0.3011   -6.9038    8.3022 H   0  0  0  0  0  0  0  0  0  0  0  0
    1.2061   -7.7150    8.6162 H   0  0  0  0  0  0  0  0  0  0  0  0
   -0.6470   -4.6350    8.1970 H   0  0  0  0  0  0  0  0  0  0  0  0
    2.9894   -0.4421    7.9533 H   0  0  0  0  0  0  0  0  0  0  0  0
    1.3051    0.6770    6.5912 H   0  0  0  0  0  0  0  0  0  0  0  0
    0.5699    0.4882    4.4575 H   0  0  0  0  0  0  0  0  0  0  0  0
   -1.0345    1.0178    3.9946 H   0  0  0  0  0  0  0  0  0  0  0  0
    3.8810   -2.2804    8.9050 H   0  0  0  0  0  0  0  0  0  0  0  0
    2.7934   -3.2734    9.7826 H   0  0  0  0  0  0  0  0  0  0  0  0
    4.5977   -4.4198    8.6091 H   0  0  0  0  0  0  0  0  0  0  0  0
    3.1192   -7.2919    9.0473 H   0  0  0  0  0  0  0  0  0  0  0  0
    0.4671   -8.1307    6.4273 H   0  0  0  0  0  0  0  0  0  0  0  0
  1  2  1  0
  1 32  1  0
  1 33  1  0
  1 34  1  0
  2 29  1  0
  2  3  1  0
  3  4  1  0
  3 35  1  0
  3 36  1  0
  4 30  1  0
  4  5  1  0
  4 37  1  1
  5  6  1  0
  5 38  1  0
  5 39  1  0
  6  7  1  0
  6 14  1  0
  6 58  1  1
  7  8  1  0
  7 40  1  0
  7 41  1  0
  8 13  1  0
  8  9  2  0
  9 10  1  0
  9 42  1  0
 10 11  2  0
 10 43  1  0
 11 12  1  0
 11 44  1  0
 12 13  2  0
 12 45  1  0
 13 46  1  0
 14 15  1  0
 14 47  1  0
 14 48  1  0
 15 17  1  0
 15 30  1  0
 15 16  1  1
 16 17  1  0
 17 18  1  0
 17 49  1  1
 18 26  1  0
 18 19  2  0
 19 20  1  0
 19 28  1  0
 20 21  2  0
 20 50  1  0
 21 22  1  0
 21 51  1  0
 22 23  1  0
 22 26  2  0
 23 24  1  0
 23 25  2  0
 24 52  1  0
 24 53  1  0
 26 27  1  0
 28 29  1  0
 28 54  1  0
 28 55  1  0
 29 30  1  0
 29 56  1  1
 30 31  1  1
 31 57  1  0
M  CHG  2   6   1  27  -1
M  END
>  <i_m_ct_stereo_status>  (18) 
1

>  <s_m_source_file>  (18) 
/var/tmp/pbs.5076255.sched01/tmp9d3cgwpa/0mc_8ktg4.sdf

>  <i_m_source_file_index>  (18) 
6

>  <i_lp_mmshare_version>  (18) 
48012

>  <i_f3d_flags>  (18) 
0

>  <s_epik_input>  (18) 
W05IMl1DKD1PKWMoYzFbT0hdKVtjSF1bY0hdYyhjMVtDQEBIXShbQ0BdMjM0KU8zKVtDSDJdW0NASF01W0NAXTQoW09IXSlbQ0BIXShbQ0gyXU41W0NIM10pW0NIMl1OKFtDSDJdMilbQ0gyXWM2W2NIXVtjSF1bY0hdW2NIXVtjSF02

>  <s_epik_cmdline>  (18) 
J2VwaWtfcHl0aG9uJywgJy1waHQnLCAnMi4wJywgJy1waCcsICc3LjAnLCAnLXRuJywgJzgnLCAnLW1hJywgJzIwMCcsICctaW1hZScsICc8aW5maWxlLm1hZT4nLCAnLW9tYWUnLCAnPG91dGZpbGUubWFlPic=

>  <r_epik_Ionization_Penalty>  (18) 
0.380572

>  <r_epik_Ionization_Penalty_Charging>  (18) 
0.0808407

>  <r_epik_Ionization_Penalty_Neutral>  (18) 
0.299731

>  <r_epik_State_Penalty>  (18) 
0.305638

>  <r_epik_Charging_Adjusted_Penalty>  (18) 
0.386479

>  <i_epik_Tot_Q>  (18) 
0

>  <i_epik_Tot_abs_Q>  (18) 
2

>  <s_lp_Force_Field>  (18) 
OPLS3e

>  <r_lp_Energy>  (18) 
46.6469

>  <b_lp_Chiralities_Consistent>  (18) 
1

>  <s_lp_Variant>  (18) 
3:0-1

>  <s_i_glide_gridfile>  (18) 
pfpi4k_grid

>  <i_i_glide_lignum>  (18) 
6

>  <i_i_glide_rotatable_bonds>  (18) 
4

>  <r_i_docking_score>  (18) 
-2.28207

>  <r_i_glide_ligand_efficiency>  (18) 
-0.0736151

>  <r_i_glide_ligand_efficiency_sa>  (18) 
-0.231253

>  <r_i_glide_ligand_efficiency_ln>  (18) 
-0.514676

>  <r_i_glide_gscore>  (18) 
-2.28207

>  <r_i_glide_lipo>  (18) 
-0.00221148

>  <r_i_glide_hbond>  (18) 
-0.0894783

>  <r_i_glide_metal>  (18) 
-0

>  <r_i_glide_rewards>  (18) 
-0.535303

>  <r_i_glide_evdw>  (18) 
-19.8174

>  <r_i_glide_ecoul>  (18) 
-5.47558

>  <r_i_glide_erotb>  (18) 
0.222928

>  <r_i_glide_esite>  (18) 
-0.0657951

>  <r_i_glide_emodel>  (18) 
-32.1344

>  <r_i_glide_energy>  (18) 
-25.293

>  <r_i_glide_einternal>  (18) 
0.395404

>  <r_i_glide_intrahb_reward>  (18) 
-0

>  <i_i_glide_confnum>  (18) 
3

>  <i_i_glide_posenum>  (18) 
36

>  <r_i_glide_eff_state_penalty>  (18) 
0

>  <ligand_id>  (18) 
3

>  <original_smiles>  (18) 
CN1CC2CN(Cc3ccccc3)CC34OC3c3c(ccc(C(N)=O)c3O)CC1C24O

>  <smiles>  (18) 
[H]OC12C3([H])N(C([H])([H])[H])C([H])([H])C1([H])C([H])([H])[N+]([H])(C([H])([H])c1c([H])c([H])c([H])c([H])c1[H])C([H])([H])C21OC1([H])c1c([O-])c(C(=O)N([H])[H])c([H])c([H])c1C3([H])[H]

$$$$
3:2:0
     RDKit          3D

 58 63  0  0  1  0  0  0  0  0999 V2000
    5.1521   -9.1495    5.4287 C   0  0  0  0  0  0  0  0  0  0  0  0
    4.9517   -8.4129    4.1522 N   0  0  1  0  0  0  0  0  0  0  0  0
    5.5500   -7.0479    4.1511 C   0  0  0  0  0  0  0  0  0  0  0  0
    6.7061   -7.1062    3.1489 C   0  0  2  0  0  0  0  0  0  0  0  0
    7.1932   -5.7460    2.6048 C   0  0  0  0  0  0  0  0  0  0  0  0
    6.1989   -5.0937    1.7490 N   0  0  0  0  0  0  0  0  0  0  0  0
    6.6239   -3.7667    1.2975 C   0  0  0  0  0  0  0  0  0  0  0  0
    5.4800   -2.7890    1.0685 C   0  0  0  0  0  0  0  0  0  0  0  0
    5.4311   -1.5756    1.8085 C   0  0  0  0  0  0  0  0  0  0  0  0
    4.3816   -0.6557    1.6036 C   0  0  0  0  0  0  0  0  0  0  0  0
    3.3677   -0.9488    0.6746 C   0  0  0  0  0  0  0  0  0  0  0  0
    3.4122   -2.1478   -0.0623 C   0  0  0  0  0  0  0  0  0  0  0  0
    4.4712   -3.0536    0.1127 C   0  0  0  0  0  0  0  0  0  0  0  0
    5.8923   -5.9862    0.6364 C   0  0  0  0  0  0  0  0  0  0  0  0
    5.2449   -7.2720    1.1002 C   0  0  2  0  0  0  0  0  0  0  0  0
    4.5910   -8.0800    0.1199 O   0  0  0  0  0  0  0  0  0  0  0  0
    3.7358   -7.3094    0.9690 C   0  0  1  0  0  0  0  0  0  0  0  0
    2.7170   -8.1251    1.7530 C   0  0  0  0  0  0  0  0  0  0  0  0
    3.0188   -9.4185    2.2724 C   0  0  0  0  0  0  0  0  0  0  0  0
    2.0344  -10.1864    2.9027 C   0  0  0  0  0  0  0  0  0  0  0  0
    0.7586   -9.6698    3.0774 C   0  0  0  0  0  0  0  0  0  0  0  0
    0.4212   -8.3644    2.6494 C   0  0  0  0  0  0  0  0  0  0  0  0
   -0.9833   -7.8700    2.9290 C   0  0  0  0  0  0  0  0  0  0  0  0
   -1.7835   -8.6483    3.6631 N   0  0  0  0  0  0  0  0  0  0  0  0
   -1.3924   -6.7976    2.5025 O   0  0  0  0  0  0  0  0  0  0  0  0
    1.4117   -7.5861    1.9693 C   0  0  0  0  0  0  0  0  0  0  0  0
    1.1395   -6.3185    1.5250 O   0  0  0  0  0  0  0  0  0  0  0  0
    4.4205  -10.0052    2.2434 C   0  0  0  0  0  0  0  0  0  0  0  0
    5.4647   -9.1195    2.9351 C   0  0  1  0  0  0  0  0  0  0  0  0
    6.1434   -8.0454    2.0687 C   0  0  2  0  0  0  0  0  0  0  0  0
    7.2173   -8.5779    1.3091 O   0  0  0  0  0  0  0  0  0  0  0  0
    6.2130   -9.2632    5.6515 H   0  0  0  0  0  0  0  0  0  0  0  0
    4.6935  -10.1343    5.3746 H   0  0  0  0  0  0  0  0  0  0  0  0
    4.6876   -8.6033    6.2470 H   0  0  0  0  0  0  0  0  0  0  0  0
    4.7802   -6.3608    3.8029 H   0  0  0  0  0  0  0  0  0  0  0  0
    5.8687   -6.7161    5.1392 H   0  0  0  0  0  0  0  0  0  0  0  0
    7.5499   -7.5957    3.6518 H   0  0  0  0  0  0  0  0  0  0  0  0
    7.4528   -5.1129    3.4540 H   0  0  0  0  0  0  0  0  0  0  0  0
    8.1147   -5.9009    2.0384 H   0  0  0  0  0  0  0  0  0  0  0  0
    7.2847   -3.3245    2.0341 H   0  0  0  0  0  0  0  0  0  0  0  0
    7.2213   -3.8466    0.3899 H   0  0  0  0  0  0  0  0  0  0  0  0
    6.2040   -1.3350    2.5297 H   0  0  0  0  0  0  0  0  0  0  0  0
    4.3391    0.2789    2.1525 H   0  0  0  0  0  0  0  0  0  0  0  0
    2.5472   -0.2635    0.5066 H   0  0  0  0  0  0  0  0  0  0  0  0
    2.6337   -2.3875   -0.7608 H   0  0  0  0  0  0  0  0  0  0  0  0
    4.4550   -3.9310   -0.5114 H   0  0  0  0  0  0  0  0  0  0  0  0
    5.1901   -5.5387   -0.0479 H   0  0  0  0  0  0  0  0  0  0  0  0
    6.8057   -6.2205    0.0883 H   0  0  0  0  0  0  0  0  0  0  0  0
    3.2753   -6.4861    0.4331 H   0  0  0  0  0  0  0  0  0  0  0  0
    2.2508  -11.1838    3.2608 H   0  0  0  0  0  0  0  0  0  0  0  0
    0.0511  -10.3152    3.5719 H   0  0  0  0  0  0  0  0  0  0  0  0
   -1.4784   -9.5387    4.0390 H   0  0  0  0  0  0  0  0  0  0  0  0
   -2.7309   -8.3529    3.8112 H   0  0  0  0  0  0  0  0  0  0  0  0
    4.4030  -10.9761    2.7431 H   0  0  0  0  0  0  0  0  0  0  0  0
    4.7325  -10.2288    1.2282 H   0  0  0  0  0  0  0  0  0  0  0  0
    6.2685   -9.7814    3.2657 H   0  0  0  0  0  0  0  0  0  0  0  0
    7.9873   -8.6707    1.8521 H   0  0  0  0  0  0  0  0  0  0  0  0
    3.9489   -8.2954    4.0142 H   0  0  0  0  0  0  0  0  0  0  0  0
  1  2  1  0
  1 32  1  0
  1 33  1  0
  1 34  1  0
  2 29  1  0
  2  3  1  0
  2 58  1  6
  3  4  1  0
  3 35  1  0
  3 36  1  0
  4 30  1  0
  4  5  1  0
  4 37  1  1
  5  6  1  0
  5 38  1  0
  5 39  1  0
  6  7  1  0
  6 14  1  0
  7  8  1  0
  7 40  1  0
  7 41  1  0
  8 13  1  0
  8  9  2  0
  9 10  1  0
  9 42  1  0
 10 11  2  0
 10 43  1  0
 11 12  1  0
 11 44  1  0
 12 13  2  0
 12 45  1  0
 13 46  1  0
 14 15  1  0
 14 47  1  0
 14 48  1  0
 15 17  1  0
 15 30  1  0
 15 16  1  6
 16 17  1  0
 17 18  1  0
 17 49  1  6
 18 26  1  0
 18 19  2  0
 19 20  1  0
 19 28  1  0
 20 21  2  0
 20 50  1  0
 21 22  1  0
 21 51  1  0
 22 23  1  0
 22 26  2  0
 23 24  1  0
 23 25  2  0
 24 52  1  0
 24 53  1  0
 26 27  1  0
 28 29  1  0
 28 54  1  0
 28 55  1  0
 29 30  1  0
 29 56  1  1
 30 31  1  6
 31 57  1  0
M  CHG  2   2   1  27  -1
M  END
>  <i_m_ct_stereo_status>  (19) 
1

>  <s_m_source_file>  (19) 
/var/tmp/pbs.5076255.sched01/tmp9d3cgwpa/0mc_8ktg4.sdf

>  <i_m_source_file_index>  (19) 
8

>  <i_lp_mmshare_version>  (19) 
48012

>  <i_f3d_flags>  (19) 
0

>  <s_epik_input>  (19) 
W05IMl1DKD1PKWMoYzFbT0hdKVtjSF1bY0hdYyhjMVtDQEBIXShbQ0BdMjM0KU8zKVtDSDJdW0NASF01W0NAXTQoW09IXSlbQ0BIXShbQ0gyXU41W0NIM10pW0NIMl1OKFtDSDJdMilbQ0gyXWM2W2NIXVtjSF1bY0hdW2NIXVtjSF02

>  <s_epik_cmdline>  (19) 
J2VwaWtfcHl0aG9uJywgJy1waHQnLCAnMi4wJywgJy1waCcsICc3LjAnLCAnLXRuJywgJzgnLCAnLW1hJywgJzIwMCcsICctaW1hZScsICc8aW5maWxlLm1hZT4nLCAnLW9tYWUnLCAnPG91dGZpbGUubWFlPic=

>  <r_epik_Ionization_Penalty>  (19) 
1.71652

>  <r_epik_Ionization_Penalty_Charging>  (19) 
0.0635142

>  <r_epik_Ionization_Penalty_Neutral>  (19) 
1.65301

>  <r_epik_State_Penalty>  (19) 
2.29371

>  <r_epik_Charging_Adjusted_Penalty>  (19) 
2.35722

>  <i_epik_Tot_Q>  (19) 
0

>  <i_epik_Tot_abs_Q>  (19) 
2

>  <s_lp_Force_Field>  (19) 
OPLS3e

>  <r_lp_Energy>  (19) 
54.3055

>  <b_lp_Chiralities_Consistent>  (19) 
1

>  <s_lp_Variant>  (19) 
3:0-3

>  <s_i_glide_gridfile>  (19) 
pfpi4k_grid

>  <i_i_glide_lignum>  (19) 
8

>  <i_i_glide_rotatable_bonds>  (19) 
4

>  <r_i_docking_score>  (19) 
-4.18816

>  <r_i_glide_ligand_efficiency>  (19) 
-0.135102

>  <r_i_glide_ligand_efficiency_sa>  (19) 
-0.424407

>  <r_i_glide_ligand_efficiency_ln>  (19) 
-0.944559

>  <r_i_glide_gscore>  (19) 
-4.18816

>  <r_i_glide_lipo>  (19) 
-0.746417

>  <r_i_glide_hbond>  (19) 
-0.394386

>  <r_i_glide_metal>  (19) 
-0

>  <r_i_glide_rewards>  (19) 
-0.535303

>  <r_i_glide_evdw>  (19) 
-22.7558

>  <r_i_glide_ecoul>  (19) 
-9.57105

>  <r_i_glide_erotb>  (19) 
0.222928

>  <r_i_glide_esite>  (19) 
-0.161538

>  <r_i_glide_emodel>  (19) 
-42.2333

>  <r_i_glide_energy>  (19) 
-32.3268

>  <r_i_glide_einternal>  (19) 
4.25964

>  <r_i_glide_intrahb_reward>  (19) 
-0

>  <i_i_glide_confnum>  (19) 
2

>  <i_i_glide_posenum>  (19) 
29

>  <r_i_glide_eff_state_penalty>  (19) 
0

>  <ligand_id>  (19) 
3

>  <original_smiles>  (19) 
CN1CC2CN(Cc3ccccc3)CC34OC3c3c(ccc(C(N)=O)c3O)CC1C24O

>  <smiles>  (19) 
[H]OC12C3([H])C([H])([H])N(C([H])([H])c4c([H])c([H])c([H])c([H])c4[H])C([H])([H])C14OC4([H])c1c([O-])c(C(=O)N([H])[H])c([H])c([H])c1C([H])([H])C2([H])[N+]([H])(C([H])([H])[H])C3([H])[H]

$$$$
3:2:1
     RDKit          3D

 58 63  0  0  1  0  0  0  0  0999 V2000
    4.8125   -9.1500    5.8025 C   0  0  0  0  0  0  0  0  0  0  0  0
    4.6762   -8.5208    4.4766 N   0  0  1  0  0  0  0  0  0  0  0  0
    5.3157   -7.1909    4.3901 C   0  0  0  0  0  0  0  0  0  0  0  0
    6.5052   -7.3588    3.4338 C   0  0  2  0  0  0  0  0  0  0  0  0
    7.0586   -6.0545    2.8079 C   0  0  0  0  0  0  0  0  0  0  0  0
    6.1173   -5.4495    1.8693 N   0  0  0  0  0  0  0  0  0  0  0  0
    6.5979   -4.1782    1.3213 C   0  0  0  0  0  0  0  0  0  0  0  0
    5.4884   -3.1852    0.9646 C   0  0  0  0  0  0  0  0  0  0  0  0
    5.4082   -1.9493    1.6538 C   0  0  0  0  0  0  0  0  0  0  0  0
    4.3869   -1.0192    1.3373 C   0  0  0  0  0  0  0  0  0  0  0  0
    3.4188   -1.3338    0.3602 C   0  0  0  0  0  0  0  0  0  0  0  0
    3.4914   -2.5562   -0.3236 C   0  0  0  0  0  0  0  0  0  0  0  0
    4.5332   -3.4540   -0.0522 C   0  0  0  0  0  0  0  0  0  0  0  0
    5.8293   -6.4389    0.8353 C   0  0  0  0  0  0  0  0  0  0  0  0
    5.1143   -7.6547    1.3680 C   0  0  2  0  0  0  0  0  0  0  0  0
    4.4649   -8.5297    0.4361 O   0  0  0  0  0  0  0  0  0  0  0  0
    3.6152   -7.6519    1.1816 C   0  0  1  0  0  0  0  0  0  0  0  0
    2.5495   -8.3827    1.9757 C   0  0  0  0  0  0  0  0  0  0  0  0
    2.7949   -9.6365    2.6170 C   0  0  0  0  0  0  0  0  0  0  0  0
    1.7666  -10.3226    3.2714 C   0  0  0  0  0  0  0  0  0  0  0  0
    0.5015   -9.7667    3.3553 C   0  0  0  0  0  0  0  0  0  0  0  0
    0.2131   -8.4898    2.8004 C   0  0  0  0  0  0  0  0  0  0  0  0
   -1.1887   -7.9483    2.9655 C   0  0  0  0  0  0  0  0  0  0  0  0
   -2.0494   -8.6610    3.6906 N   0  0  0  0  0  0  0  0  0  0  0  0
   -1.5478   -6.8831    2.4866 O   0  0  0  0  0  0  0  0  0  0  0  0
    1.2506   -7.7896    2.1005 C   0  0  0  0  0  0  0  0  0  0  0  0
    1.0337   -6.5332    1.5419 O   0  0  0  0  0  0  0  0  0  0  0  0
    4.1713  -10.2564    2.6934 C   0  0  0  0  0  0  0  0  0  0  0  0
    5.2040   -9.3350    3.3540 C   0  0  1  0  0  0  0  0  0  0  0  0
    5.9408   -8.3663    2.4275 C   0  0  2  0  0  0  0  0  0  0  0  0
    7.0042   -9.0395    1.7988 O   0  0  0  0  0  0  0  0  0  0  0  0
    5.8579   -9.2795    6.0901 H   0  0  0  0  0  0  0  0  0  0  0  0
    4.3305  -10.1268    5.8284 H   0  0  0  0  0  0  0  0  0  0  0  0
    4.3389   -8.5348    6.5661 H   0  0  0  0  0  0  0  0  0  0  0  0
    4.5885   -6.5080    3.9556 H   0  0  0  0  0  0  0  0  0  0  0  0
    5.6170   -6.7770    5.3521 H   0  0  0  0  0  0  0  0  0  0  0  0
    7.3167   -7.8276    4.0032 H   0  0  0  0  0  0  0  0  0  0  0  0
    7.3154   -5.3657    3.6137 H   0  0  0  0  0  0  0  0  0  0  0  0
    7.9884   -6.2877    2.2853 H   0  0  0  0  0  0  0  0  0  0  0  0
    7.2474   -3.6871    2.0400 H   0  0  0  0  0  0  0  0  0  0  0  0
    7.2223   -4.3483    0.4478 H   0  0  0  0  0  0  0  0  0  0  0  0
    6.1353   -1.6911    2.4173 H   0  0  0  0  0  0  0  0  0  0  0  0
    4.3363   -0.0628    1.8414 H   0  0  0  0  0  0  0  0  0  0  0  0
    2.6306   -0.6391    0.1043 H   0  0  0  0  0  0  0  0  0  0  0  0
    2.7676   -2.8235   -1.0814 H   0  0  0  0  0  0  0  0  0  0  0  0
    4.5422   -4.3290   -0.6861 H   0  0  0  0  0  0  0  0  0  0  0  0
    5.1536   -6.0674    0.0835 H   0  0  0  0  0  0  0  0  0  0  0  0
    6.7560   -6.6915    0.3264 H   0  0  0  0  0  0  0  0  0  0  0  0
    3.1909   -6.8672    0.5532 H   0  0  0  0  0  0  0  0  0  0  0  0
    1.9367  -11.2910    3.7229 H   0  0  0  0  0  0  0  0  0  0  0  0
   -0.2346  -10.3426    3.8718 H   0  0  0  0  0  0  0  0  0  0  0  0
   -1.8058   -9.5468    4.1230 H   0  0  0  0  0  0  0  0  0  0  0  0
   -2.9873   -8.3137    3.7671 H   0  0  0  0  0  0  0  0  0  0  0  0
    4.1099  -11.1829    3.2666 H   0  0  0  0  0  0  0  0  0  0  0  0
    4.5159  -10.5641    1.7056 H   0  0  0  0  0  0  0  0  0  0  0  0
    5.9810   -9.9887    3.7552 H   0  0  0  0  0  0  0  0  0  0  0  0
    6.6360   -9.6653    1.1920 H   0  0  0  0  0  0  0  0  0  0  0  0
    3.6949   -8.3931    4.2973 H   0  0  0  0  0  0  0  0  0  0  0  0
  1  2  1  0
  1 32  1  0
  1 33  1  0
  1 34  1  0
  2 29  1  0
  2  3  1  0
  2 58  1  6
  3  4  1  0
  3 35  1  0
  3 36  1  0
  4 30  1  0
  4  5  1  0
  4 37  1  1
  5  6  1  0
  5 38  1  0
  5 39  1  0
  6  7  1  0
  6 14  1  0
  7  8  1  0
  7 40  1  0
  7 41  1  0
  8 13  1  0
  8  9  2  0
  9 10  1  0
  9 42  1  0
 10 11  2  0
 10 43  1  0
 11 12  1  0
 11 44  1  0
 12 13  2  0
 12 45  1  0
 13 46  1  0
 14 15  1  0
 14 47  1  0
 14 48  1  0
 15 17  1  0
 15 30  1  0
 15 16  1  6
 16 17  1  0
 17 18  1  0
 17 49  1  6
 18 26  1  0
 18 19  2  0
 19 20  1  0
 19 28  1  0
 20 21  2  0
 20 50  1  0
 21 22  1  0
 21 51  1  0
 22 23  1  0
 22 26  2  0
 23 24  1  0
 23 25  2  0
 24 52  1  0
 24 53  1  0
 26 27  1  0
 28 29  1  0
 28 54  1  0
 28 55  1  0
 29 30  1  0
 29 56  1  1
 30 31  1  6
 31 57  1  0
M  CHG  2   2   1  27  -1
M  END
>  <i_m_ct_stereo_status>  (20) 
1

>  <s_m_source_file>  (20) 
/var/tmp/pbs.5076255.sched01/tmp9d3cgwpa/0mc_8ktg4.sdf

>  <i_m_source_file_index>  (20) 
8

>  <i_lp_mmshare_version>  (20) 
48012

>  <i_f3d_flags>  (20) 
0

>  <s_epik_input>  (20) 
W05IMl1DKD1PKWMoYzFbT0hdKVtjSF1bY0hdYyhjMVtDQEBIXShbQ0BdMjM0KU8zKVtDSDJdW0NASF01W0NAXTQoW09IXSlbQ0BIXShbQ0gyXU41W0NIM10pW0NIMl1OKFtDSDJdMilbQ0gyXWM2W2NIXVtjSF1bY0hdW2NIXVtjSF02

>  <s_epik_cmdline>  (20) 
J2VwaWtfcHl0aG9uJywgJy1waHQnLCAnMi4wJywgJy1waCcsICc3LjAnLCAnLXRuJywgJzgnLCAnLW1hJywgJzIwMCcsICctaW1hZScsICc8aW5maWxlLm1hZT4nLCAnLW9tYWUnLCAnPG91dGZpbGUubWFlPic=

>  <r_epik_Ionization_Penalty>  (20) 
1.71652

>  <r_epik_Ionization_Penalty_Charging>  (20) 
0.0635142

>  <r_epik_Ionization_Penalty_Neutral>  (20) 
1.65301

>  <r_epik_State_Penalty>  (20) 
2.29371

>  <r_epik_Charging_Adjusted_Penalty>  (20) 
2.35722

>  <i_epik_Tot_Q>  (20) 
0

>  <i_epik_Tot_abs_Q>  (20) 
2

>  <s_lp_Force_Field>  (20) 
OPLS3e

>  <r_lp_Energy>  (20) 
54.3055

>  <b_lp_Chiralities_Consistent>  (20) 
1

>  <s_lp_Variant>  (20) 
3:0-3

>  <s_i_glide_gridfile>  (20) 
pfpi4k_grid

>  <i_i_glide_lignum>  (20) 
8

>  <i_i_glide_rotatable_bonds>  (20) 
4

>  <r_i_docking_score>  (20) 
-3.86307

>  <r_i_glide_ligand_efficiency>  (20) 
-0.124615

>  <r_i_glide_ligand_efficiency_sa>  (20) 
-0.391464

>  <r_i_glide_ligand_efficiency_ln>  (20) 
-0.871241

>  <r_i_glide_gscore>  (20) 
-3.86307

>  <r_i_glide_lipo>  (20) 
-0.630355

>  <r_i_glide_hbond>  (20) 
-0.369862

>  <r_i_glide_metal>  (20) 
-0

>  <r_i_glide_rewards>  (20) 
-0.535303

>  <r_i_glide_evdw>  (20) 
-22.7786

>  <r_i_glide_ecoul>  (20) 
-8.45968

>  <r_i_glide_erotb>  (20) 
0.222928

>  <r_i_glide_esite>  (20) 
-0.142597

>  <r_i_glide_emodel>  (20) 
-40.4507

>  <r_i_glide_energy>  (20) 
-31.2383

>  <r_i_glide_einternal>  (20) 
3.80766

>  <r_i_glide_intrahb_reward>  (20) 
-0

>  <i_i_glide_confnum>  (20) 
2

>  <i_i_glide_posenum>  (20) 
1

>  <r_i_glide_eff_state_penalty>  (20) 
0

>  <ligand_id>  (20) 
3

>  <original_smiles>  (20) 
CN1CC2CN(Cc3ccccc3)CC34OC3c3c(ccc(C(N)=O)c3O)CC1C24O

>  <smiles>  (20) 
[H]OC12C3([H])C([H])([H])N(C([H])([H])c4c([H])c([H])c([H])c([H])c4[H])C([H])([H])C14OC4([H])c1c([O-])c(C(=O)N([H])[H])c([H])c([H])c1C([H])([H])C2([H])[N+]([H])(C([H])([H])[H])C3([H])[H]

$$$$
3:2:2
     RDKit          3D

 58 63  0  0  1  0  0  0  0  0999 V2000
    3.5649   -1.7025   -1.6517 C   0  0  0  0  0  0  0  0  0  0  0  0
    3.4241   -2.3718   -0.3275 N   0  0  1  0  0  0  0  0  0  0  0  0
    3.0065   -3.8002   -0.4403 C   0  0  0  0  0  0  0  0  0  0  0  0
    4.2078   -4.6284    0.0146 C   0  0  2  0  0  0  0  0  0  0  0  0
    3.9002   -6.0804    0.4573 C   0  0  0  0  0  0  0  0  0  0  0  0
    3.1417   -6.1349    1.6970 N   0  0  0  0  0  0  0  0  0  0  0  0
    2.7356   -7.5022    2.0495 C   0  0  0  0  0  0  0  0  0  0  0  0
    1.4102   -7.5833    2.8325 C   0  0  0  0  0  0  0  0  0  0  0  0
    0.5323   -8.6611    2.5842 C   0  0  0  0  0  0  0  0  0  0  0  0
   -0.6804   -8.7651    3.3085 C   0  0  0  0  0  0  0  0  0  0  0  0
   -1.0112   -7.8112    4.2961 C   0  0  0  0  0  0  0  0  0  0  0  0
   -0.1403   -6.7410    4.5402 C   0  0  0  0  0  0  0  0  0  0  0  0
    1.0662   -6.5925    3.8087 C   0  0  0  0  0  0  0  0  0  0  0  0
    3.9274   -5.4820    2.7650 C   0  0  0  0  0  0  0  0  0  0  0  0
    4.0752   -3.9867    2.4563 C   0  0  2  0  0  0  0  0  0  0  0  0
    4.4652   -3.1279    3.5275 O   0  0  0  0  0  0  0  0  0  0  0  0
    3.0935   -3.0727    3.1648 C   0  0  1  0  0  0  0  0  0  0  0  0
    2.6091   -1.6735    2.7752 C   0  0  0  0  0  0  0  0  0  0  0  0
    3.4260   -0.7536    2.0489 C   0  0  0  0  0  0  0  0  0  0  0  0
    2.9796    0.5478    1.7824 C   0  0  0  0  0  0  0  0  0  0  0  0
    1.7083    0.9490    2.1858 C   0  0  0  0  0  0  0  0  0  0  0  0
    0.8379    0.0530    2.8552 C   0  0  0  0  0  0  0  0  0  0  0  0
   -0.5451    0.5596    3.2315 C   0  0  0  0  0  0  0  0  0  0  0  0
   -1.1072    1.4016    2.3578 N   0  0  0  0  0  0  0  0  0  0  0  0
   -1.1326    0.2294    4.2573 O   0  0  0  0  0  0  0  0  0  0  0  0
    1.2917   -1.2698    3.1613 C   0  0  0  0  0  0  0  0  0  0  0  0
    0.4872   -2.1661    3.7778 O   0  0  0  0  0  0  0  0  0  0  0  0
    4.7657   -1.1519    1.4559 C   0  0  0  0  0  0  0  0  0  0  0  0
    4.6694   -2.3516    0.5111 C   0  0  1  0  0  0  0  0  0  0  0  0
    4.7943   -3.7476    1.1258 C   0  0  2  0  0  0  0  0  0  0  0  0
    6.1680   -4.0736    1.2915 O   0  0  0  0  0  0  0  0  0  0  0  0
    4.2799   -2.2113   -2.2919 H   0  0  0  0  0  0  0  0  0  0  0  0
    3.8784   -0.6743   -1.5229 H   0  0  0  0  0  0  0  0  0  0  0  0
    2.6144   -1.6925   -2.1683 H   0  0  0  0  0  0  0  0  0  0  0  0
    2.1876   -3.9241    0.2502 H   0  0  0  0  0  0  0  0  0  0  0  0
    2.6455   -4.0635   -1.4331 H   0  0  0  0  0  0  0  0  0  0  0  0
    4.9015   -4.6705   -0.8272 H   0  0  0  0  0  0  0  0  0  0  0  0
    3.3833   -6.6038   -0.3439 H   0  0  0  0  0  0  0  0  0  0  0  0
    4.8416   -6.6109    0.5880 H   0  0  0  0  0  0  0  0  0  0  0  0
    2.6286   -8.1220    1.1496 H   0  0  0  0  0  0  0  0  0  0  0  0
    3.5324   -7.9817    2.6136 H   0  0  0  0  0  0  0  0  0  0  0  0
    0.7712   -9.4192    1.8332 H   0  0  0  0  0  0  0  0  0  0  0  0
   -1.3608   -9.6008    3.1296 H   0  0  0  0  0  0  0  0  0  0  0  0
   -1.9258   -7.8934    4.8761 H   0  0  0  0  0  0  0  0  0  0  0  0
   -0.3403   -5.9919    5.2918 H   0  0  0  0  0  0  0  0  0  0  0  0
    1.6504   -5.7287    4.0383 H   0  0  0  0  0  0  0  0  0  0  0  0
    3.4685   -5.5732    3.7285 H   0  0  0  0  0  0  0  0  0  0  0  0
    4.9286   -5.9455    2.8162 H   0  0  0  0  0  0  0  0  0  0  0  0
    2.4472   -3.5265    3.9191 H   0  0  0  0  0  0  0  0  0  0  0  0
    3.6250    1.2555    1.2737 H   0  0  0  0  0  0  0  0  0  0  0  0
    1.4091    1.9651    1.9759 H   0  0  0  0  0  0  0  0  0  0  0  0
   -0.6288    1.6507    1.5079 H   0  0  0  0  0  0  0  0  0  0  0  0
   -2.0111    1.7821    2.5712 H   0  0  0  0  0  0  0  0  0  0  0  0
    5.1763   -0.3038    0.9013 H   0  0  0  0  0  0  0  0  0  0  0  0
    5.4976   -1.3500    2.2442 H   0  0  0  0  0  0  0  0  0  0  0  0
    5.5076   -2.2762   -0.1819 H   0  0  0  0  0  0  0  0  0  0  0  0
    6.4661   -3.6098    2.0674 H   0  0  0  0  0  0  0  0  0  0  0  0
    2.7023   -1.8769    0.1587 H   0  0  0  0  0  0  0  0  0  0  0  0
  1  2  1  0
  1 32  1  0
  1 33  1  0
  1 34  1  0
  2 29  1  0
  2  3  1  0
  2 58  1  1
  3  4  1  0
  3 35  1  0
  3 36  1  0
  4 30  1  0
  4  5  1  0
  4 37  1  6
  5  6  1  0
  5 38  1  0
  5 39  1  0
  6  7  1  0
  6 14  1  0
  7  8  1  0
  7 40  1  0
  7 41  1  0
  8 13  1  0
  8  9  2  0
  9 10  1  0
  9 42  1  0
 10 11  2  0
 10 43  1  0
 11 12  1  0
 11 44  1  0
 12 13  2  0
 12 45  1  0
 13 46  1  0
 14 15  1  0
 14 47  1  0
 14 48  1  0
 15 17  1  0
 15 30  1  0
 15 16  1  1
 16 17  1  0
 17 18  1  0
 17 49  1  1
 18 26  1  0
 18 19  2  0
 19 20  1  0
 19 28  1  0
 20 21  2  0
 20 50  1  0
 21 22  1  0
 21 51  1  0
 22 23  1  0
 22 26  2  0
 23 24  1  0
 23 25  2  0
 24 52  1  0
 24 53  1  0
 26 27  1  0
 28 29  1  0
 28 54  1  0
 28 55  1  0
 29 30  1  0
 29 56  1  6
 30 31  1  1
 31 57  1  0
M  CHG  2   2   1  27  -1
M  END
>  <i_m_ct_stereo_status>  (21) 
1

>  <s_m_source_file>  (21) 
/var/tmp/pbs.5076255.sched01/tmp9d3cgwpa/0mc_8ktg4.sdf

>  <i_m_source_file_index>  (21) 
8

>  <i_lp_mmshare_version>  (21) 
48012

>  <i_f3d_flags>  (21) 
0

>  <s_epik_input>  (21) 
W05IMl1DKD1PKWMoYzFbT0hdKVtjSF1bY0hdYyhjMVtDQEBIXShbQ0BdMjM0KU8zKVtDSDJdW0NASF01W0NAXTQoW09IXSlbQ0BIXShbQ0gyXU41W0NIM10pW0NIMl1OKFtDSDJdMilbQ0gyXWM2W2NIXVtjSF1bY0hdW2NIXVtjSF02

>  <s_epik_cmdline>  (21) 
J2VwaWtfcHl0aG9uJywgJy1waHQnLCAnMi4wJywgJy1waCcsICc3LjAnLCAnLXRuJywgJzgnLCAnLW1hJywgJzIwMCcsICctaW1hZScsICc8aW5maWxlLm1hZT4nLCAnLW9tYWUnLCAnPG91dGZpbGUubWFlPic=

>  <r_epik_Ionization_Penalty>  (21) 
1.71652

>  <r_epik_Ionization_Penalty_Charging>  (21) 
0.0635142

>  <r_epik_Ionization_Penalty_Neutral>  (21) 
1.65301

>  <r_epik_State_Penalty>  (21) 
2.29371

>  <r_epik_Charging_Adjusted_Penalty>  (21) 
2.35722

>  <i_epik_Tot_Q>  (21) 
0

>  <i_epik_Tot_abs_Q>  (21) 
2

>  <s_lp_Force_Field>  (21) 
OPLS3e

>  <r_lp_Energy>  (21) 
54.3055

>  <b_lp_Chiralities_Consistent>  (21) 
1

>  <s_lp_Variant>  (21) 
3:0-3

>  <s_i_glide_gridfile>  (21) 
pfpi4k_grid

>  <i_i_glide_lignum>  (21) 
8

>  <i_i_glide_rotatable_bonds>  (21) 
4

>  <r_i_docking_score>  (21) 
-2.65832

>  <r_i_glide_ligand_efficiency>  (21) 
-0.0857523

>  <r_i_glide_ligand_efficiency_sa>  (21) 
-0.269381

>  <r_i_glide_ligand_efficiency_ln>  (21) 
-0.599533

>  <r_i_glide_gscore>  (21) 
-2.65832

>  <r_i_glide_lipo>  (21) 
-0.286688

>  <r_i_glide_hbond>  (21) 
-0.0166063

>  <r_i_glide_metal>  (21) 
-0

>  <r_i_glide_rewards>  (21) 
-0.535303

>  <r_i_glide_evdw>  (21) 
-29.4086

>  <r_i_glide_ecoul>  (21) 
-2.93166

>  <r_i_glide_erotb>  (21) 
0.222928

>  <r_i_glide_esite>  (21) 
-0.132472

>  <r_i_glide_emodel>  (21) 
-38.2288

>  <r_i_glide_energy>  (21) 
-32.3403

>  <r_i_glide_einternal>  (21) 
3.12359

>  <r_i_glide_intrahb_reward>  (21) 
-0

>  <i_i_glide_confnum>  (21) 
2

>  <i_i_glide_posenum>  (21) 
2

>  <r_i_glide_eff_state_penalty>  (21) 
0

>  <ligand_id>  (21) 
3

>  <original_smiles>  (21) 
CN1CC2CN(Cc3ccccc3)CC34OC3c3c(ccc(C(N)=O)c3O)CC1C24O

>  <smiles>  (21) 
[H]OC12C3([H])C([H])([H])N(C([H])([H])c4c([H])c([H])c([H])c([H])c4[H])C([H])([H])C14OC4([H])c1c([O-])c(C(=O)N([H])[H])c([H])c([H])c1C([H])([H])C2([H])[N+]([H])(C([H])([H])[H])C3([H])[H]

$$$$
4:0:0
     RDKit          3D

 33 35  0  0  1  0  0  0  0  0999 V2000
    5.3042   -0.2574    2.6461 O   0  0  0  0  0  0  0  0  0  0  0  0
    4.5190   -0.3170    1.7003 C   0  0  0  0  0  0  0  0  0  0  0  0
    3.2059    0.4810    1.7654 C   0  0  0  0  0  0  0  0  0  0  0  0
    2.1483   -0.1770    2.6602 C   0  0  0  0  0  0  0  0  0  0  0  0
    0.8276    0.6080    2.5892 C   0  0  0  0  0  0  0  0  0  0  0  0
    1.0225    1.8898    3.0690 O   0  0  0  0  0  0  0  0  0  0  0  0
   -0.2833    2.3156    3.3839 C   0  0  0  0  0  0  0  0  0  0  0  0
   -0.9038    1.0358    3.9405 C   0  0  0  0  0  0  0  0  0  0  0  0
   -0.1112   -0.0081    3.4022 O   0  0  0  0  0  0  0  0  0  0  0  0
    4.8052   -1.1107    0.4685 C   0  0  0  0  0  0  0  0  0  0  0  0
    6.0966   -1.6405    0.2467 C   0  0  0  0  0  0  0  0  0  0  0  0
    6.3874   -2.3526   -0.8651 N   0  0  0  0  0  0  0  0  0  0  0  0
    5.3891   -2.5778   -1.7538 C   0  0  0  0  0  0  0  0  0  0  0  0
    5.6303   -3.3348   -2.9168 C   0  0  0  0  0  0  0  0  0  0  0  0
    4.6121   -3.5815   -3.8551 C   0  0  0  0  0  0  0  0  0  0  0  0
    3.3266   -3.0546   -3.6441 C   0  0  0  0  0  0  0  0  0  0  0  0
    3.0739   -2.2969   -2.4877 C   0  0  0  0  0  0  0  0  0  0  0  0
    4.0835   -2.0523   -1.5348 C   0  0  0  0  0  0  0  0  0  0  0  0
    3.8160   -1.3218   -0.4275 N   0  0  0  0  0  0  0  0  0  0  0  0
    3.4176    1.4793    2.1460 H   0  0  0  0  0  0  0  0  0  0  0  0
    2.7975    0.6183    0.7687 H   0  0  0  0  0  0  0  0  0  0  0  0
    1.9593   -1.1974    2.3304 H   0  0  0  0  0  0  0  0  0  0  0  0
    2.4879   -0.2198    3.6960 H   0  0  0  0  0  0  0  0  0  0  0  0
    0.4240    0.6634    1.5734 H   0  0  0  0  0  0  0  0  0  0  0  0
   -0.2960    3.1402    4.0954 H   0  0  0  0  0  0  0  0  0  0  0  0
   -0.7965    2.6336    2.4760 H   0  0  0  0  0  0  0  0  0  0  0  0
   -0.8457    1.0115    5.0283 H   0  0  0  0  0  0  0  0  0  0  0  0
   -1.9487    0.9326    3.6571 H   0  0  0  0  0  0  0  0  0  0  0  0
    6.9022   -1.4891    0.9526 H   0  0  0  0  0  0  0  0  0  0  0  0
    6.6149   -3.7328   -3.0885 H   0  0  0  0  0  0  0  0  0  0  0  0
    4.8206   -4.1817   -4.7307 H   0  0  0  0  0  0  0  0  0  0  0  0
    2.5254   -3.2342   -4.3483 H   0  0  0  0  0  0  0  0  0  0  0  0
    2.0885   -1.8947   -2.3223 H   0  0  0  0  0  0  0  0  0  0  0  0
  1  2  2  0
  2  3  1  0
  2 10  1  0
  3  4  1  0
  3 20  1  0
  3 21  1  0
  4  5  1  0
  4 22  1  0
  4 23  1  0
  5  9  1  0
  5  6  1  0
  5 24  1  0
  6  7  1  0
  7  8  1  0
  7 25  1  0
  7 26  1  0
  8  9  1  0
  8 27  1  0
  8 28  1  0
 10 19  1  0
 10 11  2  0
 11 12  1  0
 11 29  1  0
 12 13  2  0
 13 18  1  0
 13 14  1  0
 14 15  2  0
 14 30  1  0
 15 16  1  0
 15 31  1  0
 16 17  2  0
 16 32  1  0
 17 18  1  0
 17 33  1  0
 18 19  2  0
M  END
>  <i_m_ct_stereo_status>  (22) 
1

>  <s_m_source_file>  (22) 
/var/tmp/pbs.5076255.sched01/tmp9d3cgwpa/0mc_8ktg4.sdf

>  <i_m_source_file_index>  (22) 
9

>  <i_lp_mmshare_version>  (22) 
48012

>  <i_f3d_flags>  (22) 
0

>  <s_epik_input>  (22) 
W2NIXTFbY0hdW2NIXVtjSF1jKGMxMiluYyhbY0hdbjIpQyg9TylbQ0gyXVtDSDJdW0NIXTNPW0NIMl1bQ0gyXU8z

>  <s_epik_cmdline>  (22) 
J2VwaWtfcHl0aG9uJywgJy1waHQnLCAnMi4wJywgJy1waCcsICc3LjAnLCAnLXRuJywgJzgnLCAnLW1hJywgJzIwMCcsICctaW1hZScsICc8aW5maWxlLm1hZT4nLCAnLW9tYWUnLCAnPG91dGZpbGUubWFlPic=

>  <r_lp_tautomer_probability>  (22) 
1

>  <r_epik_Ionization_Penalty>  (22) 
4.72676e-09

>  <r_epik_Ionization_Penalty_Charging>  (22) 
0

>  <r_epik_Ionization_Penalty_Neutral>  (22) 
4.72676e-09

>  <r_epik_State_Penalty>  (22) 
-0

>  <r_epik_Charging_Adjusted_Penalty>  (22) 
0

>  <i_epik_Tot_Q>  (22) 
0

>  <i_epik_Tot_abs_Q>  (22) 
0

>  <s_epik_Chemistry_Notes>  (22) 
This compound contains an acetal/aminal-like group ( X-CH(R)-Y where X, Y are N, S, or O) that may be acid/base labile, releasing an aldehyde.

>  <s_lp_Force_Field>  (22) 
OPLS3e

>  <r_lp_Energy>  (22) 
9.31056

>  <b_lp_Chiralities_Consistent>  (22) 
1

>  <s_lp_Variant>  (22) 
4:0-1

>  <s_i_glide_gridfile>  (22) 
pfpi4k_grid

>  <i_i_glide_lignum>  (22) 
9

>  <i_i_glide_rotatable_bonds>  (22) 
4

>  <r_i_docking_score>  (22) 
-3.7309

>  <r_i_glide_ligand_efficiency>  (22) 
-0.196363

>  <r_i_glide_ligand_efficiency_sa>  (22) 
-0.523975

>  <r_i_glide_ligand_efficiency_ln>  (22) 
-0.945863

>  <r_i_glide_gscore>  (22) 
-3.7309

>  <r_i_glide_lipo>  (22) 
-0.758881

>  <r_i_glide_hbond>  (22) 
-0.117817

>  <r_i_glide_metal>  (22) 
-0

>  <r_i_glide_rewards>  (22) 
-1.811

>  <r_i_glide_evdw>  (22) 
-26.518

>  <r_i_glide_ecoul>  (22) 
-1.41027

>  <r_i_glide_erotb>  (22) 
0.529547

>  <r_i_glide_esite>  (22) 
-0.0353094

>  <r_i_glide_emodel>  (22) 
-33.7345

>  <r_i_glide_energy>  (22) 
-27.9283

>  <r_i_glide_einternal>  (22) 
1.78394

>  <r_i_glide_intrahb_reward>  (22) 
-0

>  <i_i_glide_confnum>  (22) 
2

>  <i_i_glide_posenum>  (22) 
21

>  <r_i_glide_eff_state_penalty>  (22) 
0

>  <ligand_id>  (22) 
4

>  <original_smiles>  (22) 
O=C(CCC1OCCO1)c1cnc2ccccc2n1

>  <smiles>  (22) 
[H]c1nc2c([H])c([H])c([H])c([H])c2nc1C(=O)C([H])([H])C([H])([H])C1([H])OC([H])([H])C([H])([H])O1

$$$$
4:0:1
     RDKit          3D

 33 35  0  0  1  0  0  0  0  0999 V2000
   -2.3019    3.5579    3.9315 O   0  0  0  0  0  0  0  0  0  0  0  0
   -1.7825    2.6224    4.5485 C   0  0  0  0  0  0  0  0  0  0  0  0
   -1.1322    1.4650    3.7720 C   0  0  0  0  0  0  0  0  0  0  0  0
   -0.3536    1.8970    2.5178 C   0  0  0  0  0  0  0  0  0  0  0  0
    0.9618    2.6263    2.8712 C   0  0  0  0  0  0  0  0  0  0  0  0
    1.7918    1.7835    3.5913 O   0  0  0  0  0  0  0  0  0  0  0  0
    2.6905    2.6791    4.2082 C   0  0  0  0  0  0  0  0  0  0  0  0
    1.7884    3.8616    4.5541 C   0  0  0  0  0  0  0  0  0  0  0  0
    0.7097    3.7494    3.6479 O   0  0  0  0  0  0  0  0  0  0  0  0
   -1.7275    2.5760    6.0353 C   0  0  0  0  0  0  0  0  0  0  0  0
   -1.4350    1.3827    6.7331 C   0  0  0  0  0  0  0  0  0  0  0  0
   -1.3903    1.3423    8.0788 N   0  0  0  0  0  0  0  0  0  0  0  0
   -1.6422    2.4891    8.7526 C   0  0  0  0  0  0  0  0  0  0  0  0
   -1.6183    2.4911   10.1584 C   0  0  0  0  0  0  0  0  0  0  0  0
   -1.8901    3.6608   10.8858 C   0  0  0  0  0  0  0  0  0  0  0  0
   -2.1833    4.8527   10.2086 C   0  0  0  0  0  0  0  0  0  0  0  0
   -2.2090    4.8719    8.8040 C   0  0  0  0  0  0  0  0  0  0  0  0
   -1.9475    3.7004    8.0627 C   0  0  0  0  0  0  0  0  0  0  0  0
   -1.9887    3.7224    6.7081 N   0  0  0  0  0  0  0  0  0  0  0  0
   -0.4462    0.8955    4.3942 H   0  0  0  0  0  0  0  0  0  0  0  0
   -1.9277    0.7756    3.4899 H   0  0  0  0  0  0  0  0  0  0  0  0
   -0.1064    1.0175    1.9231 H   0  0  0  0  0  0  0  0  0  0  0  0
   -0.9682    2.5417    1.8930 H   0  0  0  0  0  0  0  0  0  0  0  0
    1.4881    2.9402    1.9653 H   0  0  0  0  0  0  0  0  0  0  0  0
    3.1801    2.2360    5.0759 H   0  0  0  0  0  0  0  0  0  0  0  0
    3.4476    2.9808    3.4845 H   0  0  0  0  0  0  0  0  0  0  0  0
    1.4053    3.7819    5.5713 H   0  0  0  0  0  0  0  0  0  0  0  0
    2.2976    4.8185    4.4430 H   0  0  0  0  0  0  0  0  0  0  0  0
   -1.2312    0.4435    6.2416 H   0  0  0  0  0  0  0  0  0  0  0  0
   -1.4036    1.5831   10.6999 H   0  0  0  0  0  0  0  0  0  0  0  0
   -1.8838    3.6211   11.9681 H   0  0  0  0  0  0  0  0  0  0  0  0
   -2.3954    5.7534   10.7685 H   0  0  0  0  0  0  0  0  0  0  0  0
   -2.4372    5.7919    8.2953 H   0  0  0  0  0  0  0  0  0  0  0  0
  1  2  2  0
  2  3  1  0
  2 10  1  0
  3  4  1  0
  3 20  1  0
  3 21  1  0
  4  5  1  0
  4 22  1  0
  4 23  1  0
  5  9  1  0
  5  6  1  0
  5 24  1  0
  6  7  1  0
  7  8  1  0
  7 25  1  0
  7 26  1  0
  8  9  1  0
  8 27  1  0
  8 28  1  0
 10 19  1  0
 10 11  2  0
 11 12  1  0
 11 29  1  0
 12 13  2  0
 13 18  1  0
 13 14  1  0
 14 15  2  0
 14 30  1  0
 15 16  1  0
 15 31  1  0
 16 17  2  0
 16 32  1  0
 17 18  1  0
 17 33  1  0
 18 19  2  0
M  END
>  <i_m_ct_stereo_status>  (23) 
1

>  <s_m_source_file>  (23) 
/var/tmp/pbs.5076255.sched01/tmp9d3cgwpa/0mc_8ktg4.sdf

>  <i_m_source_file_index>  (23) 
9

>  <i_lp_mmshare_version>  (23) 
48012

>  <i_f3d_flags>  (23) 
0

>  <s_epik_input>  (23) 
W2NIXTFbY0hdW2NIXVtjSF1jKGMxMiluYyhbY0hdbjIpQyg9TylbQ0gyXVtDSDJdW0NIXTNPW0NIMl1bQ0gyXU8z

>  <s_epik_cmdline>  (23) 
J2VwaWtfcHl0aG9uJywgJy1waHQnLCAnMi4wJywgJy1waCcsICc3LjAnLCAnLXRuJywgJzgnLCAnLW1hJywgJzIwMCcsICctaW1hZScsICc8aW5maWxlLm1hZT4nLCAnLW9tYWUnLCAnPG91dGZpbGUubWFlPic=

>  <r_lp_tautomer_probability>  (23) 
1

>  <r_epik_Ionization_Penalty>  (23) 
4.72676e-09

>  <r_epik_Ionization_Penalty_Charging>  (23) 
0

>  <r_epik_Ionization_Penalty_Neutral>  (23) 
4.72676e-09

>  <r_epik_State_Penalty>  (23) 
-0

>  <r_epik_Charging_Adjusted_Penalty>  (23) 
0

>  <i_epik_Tot_Q>  (23) 
0

>  <i_epik_Tot_abs_Q>  (23) 
0

>  <s_epik_Chemistry_Notes>  (23) 
This compound contains an acetal/aminal-like group ( X-CH(R)-Y where X, Y are N, S, or O) that may be acid/base labile, releasing an aldehyde.

>  <s_lp_Force_Field>  (23) 
OPLS3e

>  <r_lp_Energy>  (23) 
9.31056

>  <b_lp_Chiralities_Consistent>  (23) 
1

>  <s_lp_Variant>  (23) 
4:0-1

>  <s_i_glide_gridfile>  (23) 
pfpi4k_grid

>  <i_i_glide_lignum>  (23) 
9

>  <i_i_glide_rotatable_bonds>  (23) 
4

>  <r_i_docking_score>  (23) 
-2.8901

>  <r_i_glide_ligand_efficiency>  (23) 
-0.15211

>  <r_i_glide_ligand_efficiency_sa>  (23) 
-0.405892

>  <r_i_glide_ligand_efficiency_ln>  (23) 
-0.732702

>  <r_i_glide_gscore>  (23) 
-2.8901

>  <r_i_glide_lipo>  (23) 
-0.0589633

>  <r_i_glide_hbond>  (23) 
-0.0352453

>  <r_i_glide_metal>  (23) 
-0

>  <r_i_glide_rewards>  (23) 
-1.64814

>  <r_i_glide_evdw>  (23) 
-18.8335

>  <r_i_glide_ecoul>  (23) 
-4.19269

>  <r_i_glide_erotb>  (23) 
0.529547

>  <r_i_glide_esite>  (23) 
-0.106716

>  <r_i_glide_emodel>  (23) 
-24.9412

>  <r_i_glide_energy>  (23) 
-23.0262

>  <r_i_glide_einternal>  (23) 
6.28559

>  <r_i_glide_intrahb_reward>  (23) 
-0

>  <i_i_glide_confnum>  (23) 
2

>  <i_i_glide_posenum>  (23) 
24

>  <r_i_glide_eff_state_penalty>  (23) 
0

>  <ligand_id>  (23) 
4

>  <original_smiles>  (23) 
O=C(CCC1OCCO1)c1cnc2ccccc2n1

>  <smiles>  (23) 
[H]c1nc2c([H])c([H])c([H])c([H])c2nc1C(=O)C([H])([H])C([H])([H])C1([H])OC([H])([H])C([H])([H])O1

$$$$
4:0:2
     RDKit          3D

 33 35  0  0  1  0  0  0  0  0999 V2000
    1.0542    1.4112    1.6796 O   0  0  0  0  0  0  0  0  0  0  0  0
    0.6667    0.8090    2.6771 C   0  0  0  0  0  0  0  0  0  0  0  0
    1.0819   -0.6545    2.8871 C   0  0  0  0  0  0  0  0  0  0  0  0
    2.3340   -1.0780    2.0908 C   0  0  0  0  0  0  0  0  0  0  0  0
    3.5940   -0.4569    2.7139 C   0  0  0  0  0  0  0  0  0  0  0  0
    4.6891   -0.7375    1.9207 O   0  0  0  0  0  0  0  0  0  0  0  0
    5.7682   -0.5452    2.8037 C   0  0  0  0  0  0  0  0  0  0  0  0
    5.2141   -1.0829    4.1217 C   0  0  0  0  0  0  0  0  0  0  0  0
    3.8099   -1.0191    3.9625 O   0  0  0  0  0  0  0  0  0  0  0  0
   -0.2092    1.4355    3.6998 C   0  0  0  0  0  0  0  0  0  0  0  0
   -1.0054    2.5526    3.3604 C   0  0  0  0  0  0  0  0  0  0  0  0
   -1.7880    3.1683    4.2719 N   0  0  0  0  0  0  0  0  0  0  0  0
   -1.7779    2.6887    5.5372 C   0  0  0  0  0  0  0  0  0  0  0  0
   -2.5797    3.2914    6.5233 C   0  0  0  0  0  0  0  0  0  0  0  0
   -2.5776    2.8270    7.8493 C   0  0  0  0  0  0  0  0  0  0  0  0
   -1.7523    1.7456    8.2040 C   0  0  0  0  0  0  0  0  0  0  0  0
   -0.9550    1.1230    7.2277 C   0  0  0  0  0  0  0  0  0  0  0  0
   -0.9624    1.5739    5.8913 C   0  0  0  0  0  0  0  0  0  0  0  0
   -0.1976    0.9523    4.9652 N   0  0  0  0  0  0  0  0  0  0  0  0
    1.2416   -0.8633    3.9441 H   0  0  0  0  0  0  0  0  0  0  0  0
    0.2374   -1.2682    2.5823 H   0  0  0  0  0  0  0  0  0  0  0  0
    2.4385   -2.1616    2.0720 H   0  0  0  0  0  0  0  0  0  0  0  0
    2.2598   -0.7658    1.0492 H   0  0  0  0  0  0  0  0  0  0  0  0
    3.5196    0.6257    2.8237 H   0  0  0  0  0  0  0  0  0  0  0  0
    6.6632   -1.0605    2.4645 H   0  0  0  0  0  0  0  0  0  0  0  0
    5.9860    0.5188    2.8922 H   0  0  0  0  0  0  0  0  0  0  0  0
    5.5082   -2.1203    4.2825 H   0  0  0  0  0  0  0  0  0  0  0  0
    5.5439   -0.4890    4.9739 H   0  0  0  0  0  0  0  0  0  0  0  0
   -1.0174    2.9490    2.3524 H   0  0  0  0  0  0  0  0  0  0  0  0
   -3.2028    4.1234    6.2492 H   0  0  0  0  0  0  0  0  0  0  0  0
   -3.1940    3.3082    8.5983 H   0  0  0  0  0  0  0  0  0  0  0  0
   -1.7295    1.4037    9.2325 H   0  0  0  0  0  0  0  0  0  0  0  0
   -0.3098    0.3027    7.5000 H   0  0  0  0  0  0  0  0  0  0  0  0
  1  2  2  0
  2  3  1  0
  2 10  1  0
  3  4  1  0
  3 20  1  0
  3 21  1  0
  4  5  1  0
  4 22  1  0
  4 23  1  0
  5  9  1  0
  5  6  1  0
  5 24  1  0
  6  7  1  0
  7  8  1  0
  7 25  1  0
  7 26  1  0
  8  9  1  0
  8 27  1  0
  8 28  1  0
 10 19  1  0
 10 11  2  0
 11 12  1  0
 11 29  1  0
 12 13  2  0
 13 18  1  0
 13 14  1  0
 14 15  2  0
 14 30  1  0
 15 16  1  0
 15 31  1  0
 16 17  2  0
 16 32  1  0
 17 18  1  0
 17 33  1  0
 18 19  2  0
M  END
>  <i_m_ct_stereo_status>  (24) 
1

>  <s_m_source_file>  (24) 
/var/tmp/pbs.5076255.sched01/tmp9d3cgwpa/0mc_8ktg4.sdf

>  <i_m_source_file_index>  (24) 
9

>  <i_lp_mmshare_version>  (24) 
48012

>  <i_f3d_flags>  (24) 
0

>  <s_epik_input>  (24) 
W2NIXTFbY0hdW2NIXVtjSF1jKGMxMiluYyhbY0hdbjIpQyg9TylbQ0gyXVtDSDJdW0NIXTNPW0NIMl1bQ0gyXU8z

>  <s_epik_cmdline>  (24) 
J2VwaWtfcHl0aG9uJywgJy1waHQnLCAnMi4wJywgJy1waCcsICc3LjAnLCAnLXRuJywgJzgnLCAnLW1hJywgJzIwMCcsICctaW1hZScsICc8aW5maWxlLm1hZT4nLCAnLW9tYWUnLCAnPG91dGZpbGUubWFlPic=

>  <r_lp_tautomer_probability>  (24) 
1

>  <r_epik_Ionization_Penalty>  (24) 
4.72676e-09

>  <r_epik_Ionization_Penalty_Charging>  (24) 
0

>  <r_epik_Ionization_Penalty_Neutral>  (24) 
4.72676e-09

>  <r_epik_State_Penalty>  (24) 
-0

>  <r_epik_Charging_Adjusted_Penalty>  (24) 
0

>  <i_epik_Tot_Q>  (24) 
0

>  <i_epik_Tot_abs_Q>  (24) 
0

>  <s_epik_Chemistry_Notes>  (24) 
This compound contains an acetal/aminal-like group ( X-CH(R)-Y where X, Y are N, S, or O) that may be acid/base labile, releasing an aldehyde.

>  <s_lp_Force_Field>  (24) 
OPLS3e

>  <r_lp_Energy>  (24) 
9.31056

>  <b_lp_Chiralities_Consistent>  (24) 
1

>  <s_lp_Variant>  (24) 
4:0-1

>  <s_i_glide_gridfile>  (24) 
pfpi4k_grid

>  <i_i_glide_lignum>  (24) 
9

>  <i_i_glide_rotatable_bonds>  (24) 
4

>  <r_i_docking_score>  (24) 
-2.80968

>  <r_i_glide_ligand_efficiency>  (24) 
-0.147878

>  <r_i_glide_ligand_efficiency_sa>  (24) 
-0.394597

>  <r_i_glide_ligand_efficiency_ln>  (24) 
-0.712314

>  <r_i_glide_gscore>  (24) 
-2.80968

>  <r_i_glide_lipo>  (24) 
-0.430264

>  <r_i_glide_hbond>  (24) 
0

>  <r_i_glide_metal>  (24) 
-0

>  <r_i_glide_rewards>  (24) 
-1.66736

>  <r_i_glide_evdw>  (24) 
-19.8221

>  <r_i_glide_ecoul>  (24) 
-1.41892

>  <r_i_glide_erotb>  (24) 
0.529547

>  <r_i_glide_esite>  (24) 
-0.037663

>  <r_i_glide_emodel>  (24) 
-25.2062

>  <r_i_glide_energy>  (24) 
-21.241

>  <r_i_glide_einternal>  (24) 
1.9256

>  <r_i_glide_intrahb_reward>  (24) 
-0

>  <i_i_glide_confnum>  (24) 
2

>  <i_i_glide_posenum>  (24) 
6

>  <r_i_glide_eff_state_penalty>  (24) 
0

>  <ligand_id>  (24) 
4

>  <original_smiles>  (24) 
O=C(CCC1OCCO1)c1cnc2ccccc2n1

>  <smiles>  (24) 
[H]c1nc2c([H])c([H])c([H])c([H])c2nc1C(=O)C([H])([H])C([H])([H])C1([H])OC([H])([H])C([H])([H])O1

$$$$
5:0:0
     RDKit          3D

 58 63  0  0  1  0  0  0  0  0999 V2000
    1.0947    1.2458    1.9687 C   0  0  0  0  0  0  0  0  0  0  0  0
    2.1322    0.2103    2.4139 C   0  0  0  0  0  0  0  0  0  0  0  0
    2.7133   -0.5841    1.4641 C   0  0  0  0  0  0  0  0  0  0  0  0
    3.7972   -1.7186    1.4113 C   0  0  1  0  0  0  0  0  0  0  0  0
    4.8181   -1.7049    2.5748 C   0  0  0  0  0  0  0  0  0  0  0  0
    4.3167   -2.1889    3.9588 C   0  0  2  0  0  0  0  0  0  0  0  0
    5.2648   -3.3184    4.4179 C   0  0  0  0  0  0  0  0  0  0  0  0
    2.7742   -2.3267    3.9914 C   0  0  1  0  0  0  0  0  0  0  0  0
    2.1309   -3.5724    4.5460 C   0  0  0  0  0  0  0  0  0  0  0  0
    2.1644   -4.7581    3.8971 C   0  0  0  0  0  0  0  0  0  0  0  0
    3.2060   -5.2150    2.8586 C   0  0  1  0  0  0  0  0  0  0  0  0
    2.9103   -6.5567    2.1430 C   0  0  2  0  0  0  0  0  0  0  0  0
    4.1397   -7.3161    1.7124 C   0  0  0  0  0  0  0  0  0  0  0  0
    5.1004   -6.4198    1.1452 O   0  0  0  0  0  0  0  0  0  0  0  0
    4.9148   -5.0692    0.9745 C   0  0  0  0  0  0  0  0  0  0  0  0
    5.8340   -4.3678    0.5569 O   0  0  0  0  0  0  0  0  0  0  0  0
    3.5274   -4.5516    1.4453 C   0  0  1  0  0  0  0  0  0  0  0  0
    2.5125   -5.6293    1.0502 C   0  0  0  0  0  0  0  0  0  0  0  0
    1.5421   -5.7582    0.2653 N   0  0  0  0  0  0  0  0  0  0  0  0
    1.4967   -4.7886   -0.7890 O   0  0  0  0  0  0  0  0  0  0  0  0
    3.1504   -3.0954    0.9327 C   0  0  2  0  0  0  0  0  0  0  0  0
    3.4839   -2.6903   -0.5256 C   0  0  0  0  0  0  0  0  0  0  0  0
    4.3756   -1.5567   -0.0193 C   0  0  2  0  0  0  0  0  0  0  0  0
    5.6736   -1.8524   -0.1038 F   0  0  0  0  0  0  0  0  0  0  0  0
    2.6762   -0.9910    4.7088 C   0  0  2  0  0  0  0  0  0  0  0  0
    2.3305    0.2306    3.9034 C   0  0  0  0  0  0  0  0  0  0  0  0
    2.1335    1.3010    4.4842 O   0  0  0  0  0  0  0  0  0  0  0  0
    4.1668   -1.1134    5.1000 C   0  0  0  0  0  0  0  0  0  0  0  0
    4.3318   -1.5907    6.5536 C   0  0  0  0  0  0  0  0  0  0  0  0
    5.0968    0.1247    5.0422 C   0  0  0  0  0  0  0  0  0  0  0  0
    0.1775    1.1329    2.5499 H   0  0  0  0  0  0  0  0  0  0  0  0
    0.8184    1.1501    0.9166 H   0  0  0  0  0  0  0  0  0  0  0  0
    1.4574    2.2650    2.1277 H   0  0  0  0  0  0  0  0  0  0  0  0
    2.3251   -0.3724    0.4824 H   0  0  0  0  0  0  0  0  0  0  0  0
    5.6621   -2.3206    2.2683 H   0  0  0  0  0  0  0  0  0  0  0  0
    5.2732   -0.7234    2.6123 H   0  0  0  0  0  0  0  0  0  0  0  0
    4.8099   -3.9576    5.1787 H   0  0  0  0  0  0  0  0  0  0  0  0
    6.1661   -2.9196    4.8797 H   0  0  0  0  0  0  0  0  0  0  0  0
    5.6136   -3.9624    3.6158 H   0  0  0  0  0  0  0  0  0  0  0  0
    2.1856   -2.2695    3.1020 H   0  0  0  0  0  0  0  0  0  0  0  0
    1.4583   -3.4466    5.3817 H   0  0  0  0  0  0  0  0  0  0  0  0
    1.5719   -5.5601    4.3213 H   0  0  0  0  0  0  0  0  0  0  0  0
    4.1093   -5.4042    3.4352 H   0  0  0  0  0  0  0  0  0  0  0  0
    2.1132   -7.1456    2.6039 H   0  0  0  0  0  0  0  0  0  0  0  0
    4.6002   -7.8198    2.5626 H   0  0  0  0  0  0  0  0  0  0  0  0
    3.9107   -8.0789    0.9741 H   0  0  0  0  0  0  0  0  0  0  0  0
    2.0223   -5.2038   -1.4672 H   0  0  0  0  0  0  0  0  0  0  0  0
    2.0604   -3.0010    1.0108 H   0  0  0  0  0  0  0  0  0  0  0  0
    4.0160   -3.4536   -1.0991 H   0  0  0  0  0  0  0  0  0  0  0  0
    2.6207   -2.3226   -1.0756 H   0  0  0  0  0  0  0  0  0  0  0  0
    4.2068   -0.6053   -0.5170 H   0  0  0  0  0  0  0  0  0  0  0  0
    2.0676   -1.0761    5.6063 H   0  0  0  0  0  0  0  0  0  0  0  0
    3.9802   -0.8436    7.2695 H   0  0  0  0  0  0  0  0  0  0  0  0
    5.3674   -1.8180    6.8115 H   0  0  0  0  0  0  0  0  0  0  0  0
    3.7445   -2.4968    6.7444 H   0  0  0  0  0  0  0  0  0  0  0  0
    4.9066    0.8312    5.8530 H   0  0  0  0  0  0  0  0  0  0  0  0
    4.9833    0.7084    4.1216 H   0  0  0  0  0  0  0  0  0  0  0  0
    6.1494   -0.1576    5.0963 H   0  0  0  0  0  0  0  0  0  0  0  0
  1  2  1  0
  1 31  1  0
  1 32  1  0
  1 33  1  0
  2 26  1  0
  2  3  2  3
  3  4  1  0
  3 34  1  0
  4 21  1  0
  4 23  1  0
  4  5  1  1
  5  6  1  0
  5 35  1  0
  5 36  1  0
  6 28  1  0
  6  7  1  1
  6  8  1  0
  7 37  1  0
  7 38  1  0
  7 39  1  0
  8  9  1  0
  8 25  1  0
  8 40  1  6
  9 10  2  3
  9 41  1  0
 10 11  1  0
 10 42  1  0
 11 17  1  0
 11 12  1  0
 11 43  1  1
 12 18  1  0
 12 13  1  0
 12 44  1  1
 13 14  1  0
 13 45  1  0
 13 46  1  0
 14 15  1  0
 15 16  2  0
 17 15  1  6
 17 18  1  0
 17 21  1  0
 18 19  2  3
 19 20  1  0
 20 47  1  0
 21 22  1  0
 21 48  1  6
 22 23  1  0
 22 49  1  0
 22 50  1  0
 23 24  1  0
 23 51  1  6
 25 26  1  0
 25 28  1  0
 25 52  1  1
 26 27  2  0
 28 29  1  0
 28 30  1  0
 29 53  1  0
 29 54  1  0
 29 55  1  0
 30 56  1  0
 30 57  1  0
 30 58  1  0
M  END
>  <i_m_ct_stereo_status>  (25) 
1

>  <s_m_source_file>  (25) 
/var/tmp/pbs.5076255.sched01/tmp9d3cgwpa/0mc_8ktg4.sdf

>  <i_m_source_file_index>  (25) 
10

>  <i_lp_mmshare_version>  (25) 
48012

>  <i_f3d_flags>  (25) 
0

>  <s_epik_input>  (25) 
W0NIM10vQyg9W0NIXS8xKUMoPU8pW0NAQEhdMkMoW0NIM10pKFtDSDNdKVtDQEBdKFtDSDJdMykoW0NIM10pW0NASF0yL1tDSF09W0NIXVxbQ0BASF0oW0NASF0oW0NIMl1PQzQ9TykvQzU9Ti9bT0hdKVtDQEBdNDVbQ0BASF0oW0NAQF0xMzYpW0NIMl1bQ0BASF02Rg==

>  <s_epik_cmdline>  (25) 
J2VwaWtfcHl0aG9uJywgJy1waHQnLCAnMi4wJywgJy1waCcsICc3LjAnLCAnLXRuJywgJzgnLCAnLW1hJywgJzIwMCcsICctaW1hZScsICc8aW5maWxlLm1hZT4nLCAnLW9tYWUnLCAnPG91dGZpbGUubWFlPic=

>  <r_lp_tautomer_probability>  (25) 
1

>  <r_epik_Ionization_Penalty>  (25) 
5.84987e-05

>  <r_epik_Ionization_Penalty_Charging>  (25) 
0

>  <r_epik_Ionization_Penalty_Neutral>  (25) 
5.84987e-05

>  <r_epik_State_Penalty>  (25) 
-0

>  <r_epik_Charging_Adjusted_Penalty>  (25) 
0

>  <i_epik_Tot_Q>  (25) 
0

>  <i_epik_Tot_abs_Q>  (25) 
0

>  <s_epik_Chemistry_Notes>  (25) 
This compound has an ester and may undergo hydrolysis at high or low pH. This compound has an imine and may undergo hydrolysis.

>  <s_lp_Force_Field>  (25) 
OPLS3e

>  <r_lp_Energy>  (25) 
114.169

>  <b_lp_Chiralities_Consistent>  (25) 
1

>  <s_lp_Variant>  (25) 
5:0-1

>  <s_i_glide_gridfile>  (25) 
pfpi4k_grid

>  <i_i_glide_lignum>  (25) 
10

>  <i_i_glide_rotatable_bonds>  (25) 
1

>  <r_i_docking_score>  (25) 
-3.3491

>  <r_i_glide_ligand_efficiency>  (25) 
-0.111637

>  <r_i_glide_ligand_efficiency_sa>  (25) 
-0.346881

>  <r_i_glide_ligand_efficiency_ln>  (25) 
-0.760951

>  <r_i_glide_gscore>  (25) 
-3.3491

>  <r_i_glide_lipo>  (25) 
-0.233988

>  <r_i_glide_hbond>  (25) 
-0.32

>  <r_i_glide_metal>  (25) 
-0

>  <r_i_glide_rewards>  (25) 
-0.663975

>  <r_i_glide_evdw>  (25) 
-17.8968

>  <r_i_glide_ecoul>  (25) 
-7.49804

>  <r_i_glide_erotb>  (25) 
0.115394

>  <r_i_glide_esite>  (25) 
-0.226979

>  <r_i_glide_emodel>  (25) 
-29.9438

>  <r_i_glide_energy>  (25) 
-25.3949

>  <r_i_glide_einternal>  (25) 
-0.00174616

>  <r_i_glide_intrahb_reward>  (25) 
-0

>  <i_i_glide_confnum>  (25) 
1

>  <i_i_glide_posenum>  (25) 
19

>  <r_i_glide_eff_state_penalty>  (25) 
0

>  <ligand_id>  (25) 
5

>  <original_smiles>  (25) 
CC1=CC23CC4(C)C(C=CC5C6COC(=O)C5(C6=NO)C2CC3F)C(C1=O)C4(C)C

>  <smiles>  (25) 
[H]ON=C1C2([H])C([H])([H])OC(=O)C13C2([H])C([H])=C([H])C1([H])C2([H])C(=O)C(C([H])([H])[H])=C([H])C4(C([H])([H])C1(C([H])([H])[H])C2(C([H])([H])[H])C([H])([H])[H])C([H])(F)C([H])([H])C34[H]

$$$$
5:0:1
     RDKit          3D

 58 63  0  0  1  0  0  0  0  0999 V2000
    2.0939    2.2841    2.8529 C   0  0  0  0  0  0  0  0  0  0  0  0
    2.8312    0.9687    3.1112 C   0  0  0  0  0  0  0  0  0  0  0  0
    3.4907    0.3710    2.0758 C   0  0  0  0  0  0  0  0  0  0  0  0
    4.3908   -0.8852    1.8477 C   0  0  1  0  0  0  0  0  0  0  0  0
    5.1197   -1.4165    3.1183 C   0  0  0  0  0  0  0  0  0  0  0  0
    4.2625   -2.1604    4.1751 C   0  0  2  0  0  0  0  0  0  0  0  0
    4.9103   -3.5471    4.4031 C   0  0  0  0  0  0  0  0  0  0  0  0
    2.7416   -2.0013    3.8926 C   0  0  1  0  0  0  0  0  0  0  0  0
    1.8170   -3.1746    3.8783 C   0  0  0  0  0  0  0  0  0  0  0  0
    1.8450   -4.1204    2.9176 C   0  0  0  0  0  0  0  0  0  0  0  0
    3.0173   -4.4507    1.9697 C   0  0  1  0  0  0  0  0  0  0  0  0
    2.7016   -5.4324    0.8178 C   0  0  2  0  0  0  0  0  0  0  0  0
    3.9124   -6.2711    0.4045 C   0  0  0  0  0  0  0  0  0  0  0  0
    5.1063   -5.4820    0.3524 O   0  0  0  0  0  0  0  0  0  0  0  0
    5.1222   -4.1209    0.5909 C   0  0  0  0  0  0  0  0  0  0  0  0
    6.2041   -3.5528    0.5758 O   0  0  0  0  0  0  0  0  0  0  0  0
    3.7460   -3.5003    0.9240 C   0  0  1  0  0  0  0  0  0  0  0  0
    2.6995   -4.1618    0.0134 C   0  0  0  0  0  0  0  0  0  0  0  0
    1.9125   -3.8452   -0.9177 N   0  0  0  0  0  0  0  0  0  0  0  0
    2.2767   -2.6650   -1.6022 O   0  0  0  0  0  0  0  0  0  0  0  0
    3.6951   -1.9041    0.8582 C   0  0  2  0  0  0  0  0  0  0  0  0
    4.4285   -1.2035   -0.3092 C   0  0  0  0  0  0  0  0  0  0  0  0
    5.3354   -0.4969    0.6858 C   0  0  2  0  0  0  0  0  0  0  0  0
    6.5494   -1.0269    0.7317 F   0  0  0  0  0  0  0  0  0  0  0  0
    2.6813   -0.9226    4.9661 C   0  0  2  0  0  0  0  0  0  0  0  0
    2.6856    0.5357    4.5315 C   0  0  0  0  0  0  0  0  0  0  0  0
    2.5319    1.4008    5.3921 O   0  0  0  0  0  0  0  0  0  0  0  0
    4.0029   -1.4528    5.5534 C   0  0  0  0  0  0  0  0  0  0  0  0
    3.7428   -2.3548    6.7780 C   0  0  0  0  0  0  0  0  0  0  0  0
    5.0841   -0.4598    6.0549 C   0  0  0  0  0  0  0  0  0  0  0  0
    1.0594    2.2111    3.1892 H   0  0  0  0  0  0  0  0  0  0  0  0
    2.0693    2.5668    1.7987 H   0  0  0  0  0  0  0  0  0  0  0  0
    2.5561    3.1100    3.3998 H   0  0  0  0  0  0  0  0  0  0  0  0
    3.3790    0.9198    1.1458 H   0  0  0  0  0  0  0  0  0  0  0  0
    5.9120   -2.0816    2.7866 H   0  0  0  0  0  0  0  0  0  0  0  0
    5.6902   -0.6040    3.5492 H   0  0  0  0  0  0  0  0  0  0  0  0
    4.2138   -4.2660    4.8305 H   0  0  0  0  0  0  0  0  0  0  0  0
    5.7467   -3.4723    5.0996 H   0  0  0  0  0  0  0  0  0  0  0  0
    5.3338   -3.9940    3.5058 H   0  0  0  0  0  0  0  0  0  0  0  0
    2.3891   -1.5709    2.9709 H   0  0  0  0  0  0  0  0  0  0  0  0
    0.9943   -3.1585    4.5762 H   0  0  0  0  0  0  0  0  0  0  0  0
    1.0599   -4.8615    2.9372 H   0  0  0  0  0  0  0  0  0  0  0  0
    3.7246   -4.9747    2.6091 H   0  0  0  0  0  0  0  0  0  0  0  0
    1.7618   -5.9741    0.9070 H   0  0  0  0  0  0  0  0  0  0  0  0
    4.0666   -7.0893    1.1109 H   0  0  0  0  0  0  0  0  0  0  0  0
    3.8050   -6.7119   -0.5831 H   0  0  0  0  0  0  0  0  0  0  0  0
    1.6324   -2.0135   -1.2801 H   0  0  0  0  0  0  0  0  0  0  0  0
    2.6413   -1.6291    0.7583 H   0  0  0  0  0  0  0  0  0  0  0  0
    4.9640   -1.8565   -0.9981 H   0  0  0  0  0  0  0  0  0  0  0  0
    3.7944   -0.5139   -0.8629 H   0  0  0  0  0  0  0  0  0  0  0  0
    5.4406    0.5672    0.4942 H   0  0  0  0  0  0  0  0  0  0  0  0
    1.8615   -1.1133    5.6625 H   0  0  0  0  0  0  0  0  0  0  0  0
    3.3459   -1.7823    7.6210 H   0  0  0  0  0  0  0  0  0  0  0  0
    4.6506   -2.8526    7.1278 H   0  0  0  0  0  0  0  0  0  0  0  0
    3.0095   -3.1300    6.5542 H   0  0  0  0  0  0  0  0  0  0  0  0
    4.8094    0.0056    7.0061 H   0  0  0  0  0  0  0  0  0  0  0  0
    5.2684    0.3647    5.3684 H   0  0  0  0  0  0  0  0  0  0  0  0
    6.0440   -0.9618    6.2051 H   0  0  0  0  0  0  0  0  0  0  0  0
  1  2  1  0
  1 31  1  0
  1 32  1  0
  1 33  1  0
  2 26  1  0
  2  3  2  3
  3  4  1  0
  3 34  1  0
  4 21  1  0
  4 23  1  0
  4  5  1  1
  5  6  1  0
  5 35  1  0
  5 36  1  0
  6 28  1  0
  6  7  1  1
  6  8  1  0
  7 37  1  0
  7 38  1  0
  7 39  1  0
  8  9  1  0
  8 25  1  0
  8 40  1  6
  9 10  2  3
  9 41  1  0
 10 11  1  0
 10 42  1  0
 11 17  1  0
 11 12  1  0
 11 43  1  1
 12 18  1  0
 12 13  1  0
 12 44  1  1
 13 14  1  0
 13 45  1  0
 13 46  1  0
 14 15  1  0
 15 16  2  0
 17 15  1  6
 17 18  1  0
 17 21  1  0
 18 19  2  3
 19 20  1  0
 20 47  1  0
 21 22  1  0
 21 48  1  6
 22 23  1  0
 22 49  1  0
 22 50  1  0
 23 24  1  0
 23 51  1  6
 25 26  1  0
 25 28  1  0
 25 52  1  1
 26 27  2  0
 28 29  1  0
 28 30  1  0
 29 53  1  0
 29 54  1  0
 29 55  1  0
 30 56  1  0
 30 57  1  0
 30 58  1  0
M  END
>  <i_m_ct_stereo_status>  (26) 
1

>  <s_m_source_file>  (26) 
/var/tmp/pbs.5076255.sched01/tmp9d3cgwpa/0mc_8ktg4.sdf

>  <i_m_source_file_index>  (26) 
10

>  <i_lp_mmshare_version>  (26) 
48012

>  <i_f3d_flags>  (26) 
0

>  <s_epik_input>  (26) 
W0NIM10vQyg9W0NIXS8xKUMoPU8pW0NAQEhdMkMoW0NIM10pKFtDSDNdKVtDQEBdKFtDSDJdMykoW0NIM10pW0NASF0yL1tDSF09W0NIXVxbQ0BASF0oW0NASF0oW0NIMl1PQzQ9TykvQzU9Ti9bT0hdKVtDQEBdNDVbQ0BASF0oW0NAQF0xMzYpW0NIMl1bQ0BASF02Rg==

>  <s_epik_cmdline>  (26) 
J2VwaWtfcHl0aG9uJywgJy1waHQnLCAnMi4wJywgJy1waCcsICc3LjAnLCAnLXRuJywgJzgnLCAnLW1hJywgJzIwMCcsICctaW1hZScsICc8aW5maWxlLm1hZT4nLCAnLW9tYWUnLCAnPG91dGZpbGUubWFlPic=

>  <r_lp_tautomer_probability>  (26) 
1

>  <r_epik_Ionization_Penalty>  (26) 
5.84987e-05

>  <r_epik_Ionization_Penalty_Charging>  (26) 
0

>  <r_epik_Ionization_Penalty_Neutral>  (26) 
5.84987e-05

>  <r_epik_State_Penalty>  (26) 
-0

>  <r_epik_Charging_Adjusted_Penalty>  (26) 
0

>  <i_epik_Tot_Q>  (26) 
0

>  <i_epik_Tot_abs_Q>  (26) 
0

>  <s_epik_Chemistry_Notes>  (26) 
This compound has an ester and may undergo hydrolysis at high or low pH. This compound has an imine and may undergo hydrolysis.

>  <s_lp_Force_Field>  (26) 
OPLS3e

>  <r_lp_Energy>  (26) 
114.169

>  <b_lp_Chiralities_Consistent>  (26) 
1

>  <s_lp_Variant>  (26) 
5:0-1

>  <s_i_glide_gridfile>  (26) 
pfpi4k_grid

>  <i_i_glide_lignum>  (26) 
10

>  <i_i_glide_rotatable_bonds>  (26) 
1

>  <r_i_docking_score>  (26) 
-3.17399

>  <r_i_glide_ligand_efficiency>  (26) 
-0.1058

>  <r_i_glide_ligand_efficiency_sa>  (26) 
-0.328745

>  <r_i_glide_ligand_efficiency_ln>  (26) 
-0.721166

>  <r_i_glide_gscore>  (26) 
-3.17399

>  <r_i_glide_lipo>  (26) 
-0.510705

>  <r_i_glide_hbond>  (26) 
-0.116049

>  <r_i_glide_metal>  (26) 
-0

>  <r_i_glide_rewards>  (26) 
-0.663307

>  <r_i_glide_evdw>  (26) 
-16.6757

>  <r_i_glide_ecoul>  (26) 
-6.78961

>  <r_i_glide_erotb>  (26) 
0.115394

>  <r_i_glide_esite>  (26) 
-0.147102

>  <r_i_glide_emodel>  (26) 
-27.6648

>  <r_i_glide_energy>  (26) 
-23.4653

>  <r_i_glide_einternal>  (26) 
-0.00180464

>  <r_i_glide_intrahb_reward>  (26) 
-0

>  <i_i_glide_confnum>  (26) 
1

>  <i_i_glide_posenum>  (26) 
1

>  <r_i_glide_eff_state_penalty>  (26) 
0

>  <ligand_id>  (26) 
5

>  <original_smiles>  (26) 
CC1=CC23CC4(C)C(C=CC5C6COC(=O)C5(C6=NO)C2CC3F)C(C1=O)C4(C)C

>  <smiles>  (26) 
[H]ON=C1C2([H])C([H])([H])OC(=O)C13C2([H])C([H])=C([H])C1([H])C2([H])C(=O)C(C([H])([H])[H])=C([H])C4(C([H])([H])C1(C([H])([H])[H])C2(C([H])([H])[H])C([H])([H])[H])C([H])(F)C([H])([H])C34[H]

$$$$
5:0:2
     RDKit          3D

 58 63  0  0  1  0  0  0  0  0999 V2000
   -0.0950    1.4083    1.9664 C   0  0  0  0  0  0  0  0  0  0  0  0
    0.9310    0.5426    2.6941 C   0  0  0  0  0  0  0  0  0  0  0  0
    1.9142   -0.0678    1.9588 C   0  0  0  0  0  0  0  0  0  0  0  0
    3.1473   -0.9862    2.2206 C   0  0  1  0  0  0  0  0  0  0  0  0
    3.7529   -0.8867    3.6489 C   0  0  0  0  0  0  0  0  0  0  0  0
    2.9609   -1.5460    4.8073 C   0  0  2  0  0  0  0  0  0  0  0  0
    3.9197   -2.5267    5.5227 C   0  0  0  0  0  0  0  0  0  0  0  0
    1.5324   -1.9669    4.3592 C   0  0  1  0  0  0  0  0  0  0  0  0
    0.9934   -3.3333    4.6525 C   0  0  0  0  0  0  0  0  0  0  0  0
    1.4509   -4.4487    4.0406 C   0  0  0  0  0  0  0  0  0  0  0  0
    2.8201   -4.6324    3.3540 C   0  0  1  0  0  0  0  0  0  0  0  0
    3.0038   -5.9470    2.5612 C   0  0  2  0  0  0  0  0  0  0  0  0
    4.4398   -6.4425    2.5325 C   0  0  0  0  0  0  0  0  0  0  0  0
    5.3520   -5.3534    2.3151 O   0  0  0  0  0  0  0  0  0  0  0  0
    4.9545   -4.0440    2.1179 C   0  0  0  0  0  0  0  0  0  0  0  0
    5.8159   -3.1751    2.0188 O   0  0  0  0  0  0  0  0  0  0  0  0
    3.4263   -3.8241    2.1272 C   0  0  1  0  0  0  0  0  0  0  0  0
    2.7974   -5.0202    1.3983 C   0  0  0  0  0  0  0  0  0  0  0  0
    2.1740   -5.2506    0.3363 N   0  0  0  0  0  0  0  0  0  0  0  0
    2.3203   -4.2460   -0.6584 O   0  0  0  0  0  0  0  0  0  0  0  0
    2.9490   -2.4113    1.5473 C   0  0  2  0  0  0  0  0  0  0  0  0
    3.6566   -1.8567    0.2838 C   0  0  0  0  0  0  0  0  0  0  0  0
    4.1185   -0.6295    1.0660 C   0  0  2  0  0  0  0  0  0  0  0  0
    5.4060   -0.6843    1.3919 F   0  0  0  0  0  0  0  0  0  0  0  0
    0.9786   -0.7140    5.0260 C   0  0  2  0  0  0  0  0  0  0  0  0
    0.6578    0.4851    4.1615 C   0  0  0  0  0  0  0  0  0  0  0  0
    0.0947    1.4502    4.6850 O   0  0  0  0  0  0  0  0  0  0  0  0
    2.2683   -0.6067    5.8621 C   0  0  0  0  0  0  0  0  0  0  0  0
    2.0618   -1.1616    7.2862 C   0  0  0  0  0  0  0  0  0  0  0  0
    2.9192    0.7788    6.1107 C   0  0  0  0  0  0  0  0  0  0  0  0
   -1.1116    1.0959    2.2182 H   0  0  0  0  0  0  0  0  0  0  0  0
    0.0010    1.3642    0.8784 H   0  0  0  0  0  0  0  0  0  0  0  0
    0.0030    2.4601    2.2551 H   0  0  0  0  0  0  0  0  0  0  0  0
    1.8108    0.1289    0.8958 H   0  0  0  0  0  0  0  0  0  0  0  0
    4.7482   -1.3255    3.6138 H   0  0  0  0  0  0  0  0  0  0  0  0
    3.9856    0.1519    3.8463 H   0  0  0  0  0  0  0  0  0  0  0  0
    3.3908   -3.2847    6.1016 H   0  0  0  0  0  0  0  0  0  0  0  0
    4.5626   -1.9961    6.2282 H   0  0  0  0  0  0  0  0  0  0  0  0
    4.6066   -3.0450    4.8561 H   0  0  0  0  0  0  0  0  0  0  0  0
    1.2465   -1.9420    3.3243 H   0  0  0  0  0  0  0  0  0  0  0  0
    0.0876   -3.3920    5.2383 H   0  0  0  0  0  0  0  0  0  0  0  0
    0.9193   -5.3691    4.2375 H   0  0  0  0  0  0  0  0  0  0  0  0
    3.5195   -4.7016    4.1837 H   0  0  0  0  0  0  0  0  0  0  0  0
    2.2458   -6.7089    2.7414 H   0  0  0  0  0  0  0  0  0  0  0  0
    4.7020   -6.9194    3.4761 H   0  0  0  0  0  0  0  0  0  0  0  0
    4.5988   -7.1801    1.7499 H   0  0  0  0  0  0  0  0  0  0  0  0
    2.5078   -4.7686   -1.4301 H   0  0  0  0  0  0  0  0  0  0  0  0
    1.8946   -2.5236    1.2764 H   0  0  0  0  0  0  0  0  0  0  0  0
    4.4688   -2.4741   -0.1031 H   0  0  0  0  0  0  0  0  0  0  0  0
    2.9745   -1.5929   -0.5223 H   0  0  0  0  0  0  0  0  0  0  0  0
    3.9378    0.3164    0.5500 H   0  0  0  0  0  0  0  0  0  0  0  0
    0.1409   -0.9614    5.6787 H   0  0  0  0  0  0  0  0  0  0  0  0
    1.3777   -0.5393    7.8696 H   0  0  0  0  0  0  0  0  0  0  0  0
    2.9951   -1.2214    7.8512 H   0  0  0  0  0  0  0  0  0  0  0  0
    1.6300   -2.1641    7.2658 H   0  0  0  0  0  0  0  0  0  0  0  0
    2.3606    1.3781    6.8352 H   0  0  0  0  0  0  0  0  0  0  0  0
    2.9857    1.3977    5.2149 H   0  0  0  0  0  0  0  0  0  0  0  0
    3.9391    0.6779    6.4925 H   0  0  0  0  0  0  0  0  0  0  0  0
  1  2  1  0
  1 31  1  0
  1 32  1  0
  1 33  1  0
  2 26  1  0
  2  3  2  3
  3  4  1  0
  3 34  1  0
  4 21  1  0
  4 23  1  0
  4  5  1  1
  5  6  1  0
  5 35  1  0
  5 36  1  0
  6 28  1  0
  6  7  1  1
  6  8  1  0
  7 37  1  0
  7 38  1  0
  7 39  1  0
  8  9  1  0
  8 25  1  0
  8 40  1  6
  9 10  2  3
  9 41  1  0
 10 11  1  0
 10 42  1  0
 11 17  1  0
 11 12  1  0
 11 43  1  1
 12 18  1  0
 12 13  1  0
 12 44  1  1
 13 14  1  0
 13 45  1  0
 13 46  1  0
 14 15  1  0
 15 16  2  0
 17 15  1  1
 17 18  1  0
 17 21  1  0
 18 19  2  3
 19 20  1  0
 20 47  1  0
 21 22  1  0
 21 48  1  6
 22 23  1  0
 22 49  1  0
 22 50  1  0
 23 24  1  0
 23 51  1  6
 25 26  1  0
 25 28  1  0
 25 52  1  1
 26 27  2  0
 28 29  1  0
 28 30  1  0
 29 53  1  0
 29 54  1  0
 29 55  1  0
 30 56  1  0
 30 57  1  0
 30 58  1  0
M  END
>  <i_m_ct_stereo_status>  (27) 
1

>  <s_m_source_file>  (27) 
/var/tmp/pbs.5076255.sched01/tmp9d3cgwpa/0mc_8ktg4.sdf

>  <i_m_source_file_index>  (27) 
10

>  <i_lp_mmshare_version>  (27) 
48012

>  <i_f3d_flags>  (27) 
0

>  <s_epik_input>  (27) 
W0NIM10vQyg9W0NIXS8xKUMoPU8pW0NAQEhdMkMoW0NIM10pKFtDSDNdKVtDQEBdKFtDSDJdMykoW0NIM10pW0NASF0yL1tDSF09W0NIXVxbQ0BASF0oW0NASF0oW0NIMl1PQzQ9TykvQzU9Ti9bT0hdKVtDQEBdNDVbQ0BASF0oW0NAQF0xMzYpW0NIMl1bQ0BASF02Rg==

>  <s_epik_cmdline>  (27) 
J2VwaWtfcHl0aG9uJywgJy1waHQnLCAnMi4wJywgJy1waCcsICc3LjAnLCAnLXRuJywgJzgnLCAnLW1hJywgJzIwMCcsICctaW1hZScsICc8aW5maWxlLm1hZT4nLCAnLW9tYWUnLCAnPG91dGZpbGUubWFlPic=

>  <r_lp_tautomer_probability>  (27) 
1

>  <r_epik_Ionization_Penalty>  (27) 
5.84987e-05

>  <r_epik_Ionization_Penalty_Charging>  (27) 
0

>  <r_epik_Ionization_Penalty_Neutral>  (27) 
5.84987e-05

>  <r_epik_State_Penalty>  (27) 
-0

>  <r_epik_Charging_Adjusted_Penalty>  (27) 
0

>  <i_epik_Tot_Q>  (27) 
0

>  <i_epik_Tot_abs_Q>  (27) 
0

>  <s_epik_Chemistry_Notes>  (27) 
This compound has an ester and may undergo hydrolysis at high or low pH. This compound has an imine and may undergo hydrolysis.

>  <s_lp_Force_Field>  (27) 
OPLS3e

>  <r_lp_Energy>  (27) 
114.169

>  <b_lp_Chiralities_Consistent>  (27) 
1

>  <s_lp_Variant>  (27) 
5:0-1

>  <s_i_glide_gridfile>  (27) 
pfpi4k_grid

>  <i_i_glide_lignum>  (27) 
10

>  <i_i_glide_rotatable_bonds>  (27) 
1

>  <r_i_docking_score>  (27) 
-3.07443

>  <r_i_glide_ligand_efficiency>  (27) 
-0.102481

>  <r_i_glide_ligand_efficiency_sa>  (27) 
-0.318432

>  <r_i_glide_ligand_efficiency_ln>  (27) 
-0.698544

>  <r_i_glide_gscore>  (27) 
-3.07443

>  <r_i_glide_lipo>  (27) 
-0.101808

>  <r_i_glide_hbond>  (27) 
-0.32

>  <r_i_glide_metal>  (27) 
-0

>  <r_i_glide_rewards>  (27) 
-0.798237

>  <r_i_glide_evdw>  (27) 
-20.1071

>  <r_i_glide_ecoul>  (27) 
-5.40444

>  <r_i_glide_erotb>  (27) 
0.115394

>  <r_i_glide_esite>  (27) 
-0.153762

>  <r_i_glide_emodel>  (27) 
-29.1126

>  <r_i_glide_energy>  (27) 
-25.5115

>  <r_i_glide_einternal>  (27) 
-0.000954226

>  <r_i_glide_intrahb_reward>  (27) 
-0

>  <i_i_glide_confnum>  (27) 
2

>  <i_i_glide_posenum>  (27) 
40

>  <r_i_glide_eff_state_penalty>  (27) 
0

>  <ligand_id>  (27) 
5

>  <original_smiles>  (27) 
CC1=CC23CC4(C)C(C=CC5C6COC(=O)C5(C6=NO)C2CC3F)C(C1=O)C4(C)C

>  <smiles>  (27) 
[H]ON=C1C2([H])C([H])([H])OC(=O)C13C2([H])C([H])=C([H])C1([H])C2([H])C(=O)C(C([H])([H])[H])=C([H])C4(C([H])([H])C1(C([H])([H])[H])C2(C([H])([H])[H])C([H])([H])[H])C([H])(F)C([H])([H])C34[H]

$$$$
5:1:0
     RDKit          3D

 58 63  0  0  1  0  0  0  0  0999 V2000
    5.0200   -0.7973    0.5295 C   0  0  0  0  0  0  0  0  0  0  0  0
    3.6426   -1.1905    1.0461 C   0  0  0  0  0  0  0  0  0  0  0  0
    3.1306   -2.4200    0.8738 C   0  0  0  0  0  0  0  0  0  0  0  0
    3.7219   -3.6553    1.5757 C   0  0  1  0  0  0  0  0  0  0  0  0
    4.5836   -3.2632    2.8344 C   0  0  0  0  0  0  0  0  0  0  0  0
    3.8546   -2.5413    4.0370 C   0  0  2  0  0  0  0  0  0  0  0  0
    4.2811   -3.2878    5.3170 C   0  0  0  0  0  0  0  0  0  0  0  0
    2.3742   -2.2155    3.7227 C   0  0  1  0  0  0  0  0  0  0  0  0
    1.2814   -2.6553    4.6433 C   0  0  0  0  0  0  0  0  0  0  0  0
    0.9390   -3.9609    4.7843 C   0  0  0  0  0  0  0  0  0  0  0  0
    1.8103   -5.2112    4.4815 C   0  0  1  0  0  0  0  0  0  0  0  0
    1.0801   -6.5659    4.5869 C   0  0  2  0  0  0  0  0  0  0  0  0
    1.9888   -7.7008    5.0185 C   0  0  0  0  0  0  0  0  0  0  0  0
    3.2539   -7.6505    4.3291 O   0  0  0  0  0  0  0  0  0  0  0  0
    3.5602   -6.7089    3.3621 C   0  0  0  0  0  0  0  0  0  0  0  0
    4.6670   -6.7174    2.8309 O   0  0  0  0  0  0  0  0  0  0  0  0
    2.4240   -5.6859    3.0870 C   0  0  1  0  0  0  0  0  0  0  0  0
    1.1057   -6.4558    3.0809 C   0  0  0  0  0  0  0  0  0  0  0  0
    0.1831   -6.7262    2.2592 N   0  0  0  0  0  0  0  0  0  0  0  0
    0.6366   -6.7333    0.9224 O   0  0  0  0  0  0  0  0  0  0  0  0
    2.6443   -4.8014    1.7768 C   0  0  2  0  0  0  0  0  0  0  0  0
    3.1715   -5.4508    0.4759 C   0  0  0  0  0  0  0  0  0  0  0  0
    4.3713   -4.5031    0.4646 C   0  0  2  0  0  0  0  0  0  0  0  0
    5.4961   -5.0930    0.8690 F   0  0  0  0  0  0  0  0  0  0  0  0
    2.7326   -0.7440    3.4311 C   0  0  2  0  0  0  0  0  0  0  0  0
    2.9654   -0.2621    1.9827 C   0  0  0  0  0  0  0  0  0  0  0  0
    2.6779    0.8667    1.6166 O   0  0  0  0  0  0  0  0  0  0  0  0
    4.0095   -0.9804    4.2756 C   0  0  0  0  0  0  0  0  0  0  0  0
    3.7951   -0.4430    5.7002 C   0  0  0  0  0  0  0  0  0  0  0  0
    5.3601   -0.3275    3.9020 C   0  0  0  0  0  0  0  0  0  0  0  0
    4.9168   -0.4805   -0.5128 H   0  0  0  0  0  0  0  0  0  0  0  0
    5.7263   -1.6270    0.5551 H   0  0  0  0  0  0  0  0  0  0  0  0
    5.4312    0.0591    1.0736 H   0  0  0  0  0  0  0  0  0  0  0  0
    2.0611   -2.4467    0.9641 H   0  0  0  0  0  0  0  0  0  0  0  0
    5.0463   -4.1811    3.2017 H   0  0  0  0  0  0  0  0  0  0  0  0
    5.4632   -2.7217    2.5154 H   0  0  0  0  0  0  0  0  0  0  0  0
    3.5576   -3.1589    6.1245 H   0  0  0  0  0  0  0  0  0  0  0  0
    5.2316   -2.9012    5.6740 H   0  0  0  0  0  0  0  0  0  0  0  0
    4.4391   -4.3547    5.1849 H   0  0  0  0  0  0  0  0  0  0  0  0
    1.8922   -2.6696    2.8839 H   0  0  0  0  0  0  0  0  0  0  0  0
    0.6443   -1.8841    5.0489 H   0  0  0  0  0  0  0  0  0  0  0  0
    0.0516   -4.1644    5.3685 H   0  0  0  0  0  0  0  0  0  0  0  0
    2.5569   -5.2086    5.2748 H   0  0  0  0  0  0  0  0  0  0  0  0
    0.1058   -6.5171    5.0607 H   0  0  0  0  0  0  0  0  0  0  0  0
    2.1843   -7.6605    6.0899 H   0  0  0  0  0  0  0  0  0  0  0  0
    1.5334   -8.6687    4.8300 H   0  0  0  0  0  0  0  0  0  0  0  0
    0.5039   -7.6467    0.6866 H   0  0  0  0  0  0  0  0  0  0  0  0
    1.6498   -4.4296    1.5148 H   0  0  0  0  0  0  0  0  0  0  0  0
    3.4568   -6.5065    0.5479 H   0  0  0  0  0  0  0  0  0  0  0  0
    2.5018   -5.2919   -0.3662 H   0  0  0  0  0  0  0  0  0  0  0  0
    4.5227   -3.9909   -0.4792 H   0  0  0  0  0  0  0  0  0  0  0  0
    2.0544   -0.0749    3.9707 H   0  0  0  0  0  0  0  0  0  0  0  0
    3.7297    0.6507    5.7047 H   0  0  0  0  0  0  0  0  0  0  0  0
    4.6046   -0.7189    6.3824 H   0  0  0  0  0  0  0  0  0  0  0  0
    2.8573   -0.8161    6.1350 H   0  0  0  0  0  0  0  0  0  0  0  0
    6.0969   -0.4420    4.7029 H   0  0  0  0  0  0  0  0  0  0  0  0
    5.2657    0.7453    3.7066 H   0  0  0  0  0  0  0  0  0  0  0  0
    5.8347   -0.7695    3.0271 H   0  0  0  0  0  0  0  0  0  0  0  0
  1  2  1  0
  1 31  1  0
  1 32  1  0
  1 33  1  0
  2 26  1  0
  2  3  2  3
  3  4  1  0
  3 34  1  0
  4 21  1  0
  4 23  1  0
  4  5  1  1
  5  6  1  0
  5 35  1  0
  5 36  1  0
  6 28  1  0
  6  7  1  1
  6  8  1  0
  7 37  1  0
  7 38  1  0
  7 39  1  0
  8  9  1  0
  8 25  1  0
  8 40  1  6
  9 10  2  3
  9 41  1  0
 10 11  1  0
 10 42  1  0
 11 17  1  0
 11 12  1  0
 11 43  1  1
 12 18  1  0
 12 13  1  0
 12 44  1  1
 13 14  1  0
 13 45  1  0
 13 46  1  0
 14 15  1  0
 15 16  2  0
 17 15  1  1
 17 18  1  0
 17 21  1  0
 18 19  2  3
 19 20  1  0
 20 47  1  0
 21 22  1  0
 21 48  1  6
 22 23  1  0
 22 49  1  0
 22 50  1  0
 23 24  1  0
 23 51  1  6
 25 26  1  0
 25 28  1  0
 25 52  1  1
 26 27  2  0
 28 29  1  0
 28 30  1  0
 29 53  1  0
 29 54  1  0
 29 55  1  0
 30 56  1  0
 30 57  1  0
 30 58  1  0
M  END
>  <i_m_ct_stereo_status>  (28) 
1

>  <s_m_source_file>  (28) 
/var/tmp/pbs.5076255.sched01/tmp9d3cgwpa/0mc_8ktg4.sdf

>  <i_m_source_file_index>  (28) 
11

>  <i_lp_mmshare_version>  (28) 
48012

>  <i_f3d_flags>  (28) 
0

>  <s_epik_input>  (28) 
W0NIM10vQyg9W0NIXS8xKUMoPU8pW0NAQEhdMkMoW0NIM10pKFtDSDNdKVtDQEBdKFtDSDJdMykoW0NIM10pW0NASF0yL1tDSF09W0NIXVxbQ0BASF0oW0NASF0oW0NIMl1PQzQ9TykvQzU9Ti9bT0hdKVtDQEBdNDVbQ0BASF0oW0NAQF0xMzYpW0NIMl1bQ0BASF02Rg==

>  <s_epik_cmdline>  (28) 
J2VwaWtfcHl0aG9uJywgJy1waHQnLCAnMi4wJywgJy1waCcsICc3LjAnLCAnLXRuJywgJzgnLCAnLW1hJywgJzIwMCcsICctaW1hZScsICc8aW5maWxlLm1hZT4nLCAnLW9tYWUnLCAnPG91dGZpbGUubWFlPic=

>  <r_lp_tautomer_probability>  (28) 
1

>  <r_epik_Ionization_Penalty>  (28) 
5.84987e-05

>  <r_epik_Ionization_Penalty_Charging>  (28) 
0

>  <r_epik_Ionization_Penalty_Neutral>  (28) 
5.84987e-05

>  <r_epik_State_Penalty>  (28) 
-0

>  <r_epik_Charging_Adjusted_Penalty>  (28) 
0

>  <i_epik_Tot_Q>  (28) 
0

>  <i_epik_Tot_abs_Q>  (28) 
0

>  <s_epik_Chemistry_Notes>  (28) 
This compound has an ester and may undergo hydrolysis at high or low pH. This compound has an imine and may undergo hydrolysis.

>  <s_lp_Force_Field>  (28) 
OPLS3e

>  <r_lp_Energy>  (28) 
142.701

>  <b_lp_Chiralities_Consistent>  (28) 
1

>  <s_lp_Variant>  (28) 
5:0-2

>  <s_i_glide_gridfile>  (28) 
pfpi4k_grid

>  <i_i_glide_lignum>  (28) 
11

>  <i_i_glide_rotatable_bonds>  (28) 
1

>  <r_i_docking_score>  (28) 
-2.73688

>  <r_i_glide_ligand_efficiency>  (28) 
-0.0912294

>  <r_i_glide_ligand_efficiency_sa>  (28) 
-0.283471

>  <r_i_glide_ligand_efficiency_ln>  (28) 
-0.621849

>  <r_i_glide_gscore>  (28) 
-2.73688

>  <r_i_glide_lipo>  (28) 
-0.314414

>  <r_i_glide_hbond>  (28) 
-0.014234

>  <r_i_glide_metal>  (28) 
-0

>  <r_i_glide_rewards>  (28) 
-0.699939

>  <r_i_glide_evdw>  (28) 
-21.6566

>  <r_i_glide_ecoul>  (28) 
-3.30533

>  <r_i_glide_erotb>  (28) 
0.115394

>  <r_i_glide_esite>  (28) 
-0.245062

>  <r_i_glide_emodel>  (28) 
-27.9031

>  <r_i_glide_energy>  (28) 
-24.9619

>  <r_i_glide_einternal>  (28) 
-0.00112141

>  <r_i_glide_intrahb_reward>  (28) 
-0

>  <i_i_glide_confnum>  (28) 
1

>  <i_i_glide_posenum>  (28) 
1

>  <r_i_glide_eff_state_penalty>  (28) 
0

>  <ligand_id>  (28) 
5

>  <original_smiles>  (28) 
CC1=CC23CC4(C)C(C=CC5C6COC(=O)C5(C6=NO)C2CC3F)C(C1=O)C4(C)C

>  <smiles>  (28) 
[H]ON=C1C2([H])C([H])([H])OC(=O)C13C2([H])C([H])=C([H])C1([H])C2([H])C(=O)C(C([H])([H])[H])=C([H])C4(C([H])([H])C1(C([H])([H])[H])C2(C([H])([H])[H])C([H])([H])[H])C([H])(F)C([H])([H])C34[H]

$$$$
5:1:1
     RDKit          3D

 58 63  0  0  1  0  0  0  0  0999 V2000
    3.8323    0.5131    2.7116 C   0  0  0  0  0  0  0  0  0  0  0  0
    2.8561   -0.5860    3.0817 C   0  0  0  0  0  0  0  0  0  0  0  0
    2.5593   -1.6055    2.2480 C   0  0  0  0  0  0  0  0  0  0  0  0
    3.5944   -2.6887    1.9087 C   0  0  1  0  0  0  0  0  0  0  0  0
    4.7572   -2.7541    2.9799 C   0  0  0  0  0  0  0  0  0  0  0  0
    4.3771   -3.1301    4.4572 C   0  0  2  0  0  0  0  0  0  0  0  0
    5.3690   -4.2323    4.8913 C   0  0  0  0  0  0  0  0  0  0  0  0
    2.8501   -3.2690    4.6651 C   0  0  1  0  0  0  0  0  0  0  0  0
    2.2750   -4.5162    5.2670 C   0  0  0  0  0  0  0  0  0  0  0  0
    2.2658   -5.6920    4.6005 C   0  0  0  0  0  0  0  0  0  0  0  0
    3.2033   -6.1418    3.4514 C   0  0  1  0  0  0  0  0  0  0  0  0
    2.8424   -7.4921    2.7876 C   0  0  2  0  0  0  0  0  0  0  0  0
    4.0449   -8.2507    2.2475 C   0  0  0  0  0  0  0  0  0  0  0  0
    4.9229   -7.3586    1.5457 O   0  0  0  0  0  0  0  0  0  0  0  0
    4.6777   -6.0013    1.3636 C   0  0  0  0  0  0  0  0  0  0  0  0
    5.4967   -5.3084    0.7716 O   0  0  0  0  0  0  0  0  0  0  0  0
    3.3633   -5.4998    1.9966 C   0  0  1  0  0  0  0  0  0  0  0  0
    2.3208   -6.5732    1.7292 C   0  0  0  0  0  0  0  0  0  0  0  0
    1.2085   -6.6539    1.1150 N   0  0  0  0  0  0  0  0  0  0  0  0
    1.0932   -5.8218   -0.0304 O   0  0  0  0  0  0  0  0  0  0  0  0
    2.8972   -4.0541    1.5144 C   0  0  2  0  0  0  0  0  0  0  0  0
    3.0494   -3.6335    0.0270 C   0  0  0  0  0  0  0  0  0  0  0  0
    3.9493   -2.4698    0.4317 C   0  0  2  0  0  0  0  0  0  0  0  0
    5.2276   -2.7128    0.1906 F   0  0  0  0  0  0  0  0  0  0  0  0
    2.7810   -1.8752    5.3260 C   0  0  2  0  0  0  0  0  0  0  0  0
    2.3835   -0.6416    4.4842 C   0  0  0  0  0  0  0  0  0  0  0  0
    1.7471    0.3055    4.9313 O   0  0  0  0  0  0  0  0  0  0  0  0
    4.2937   -2.0340    5.5996 C   0  0  0  0  0  0  0  0  0  0  0  0
    4.5118   -2.4881    7.0571 C   0  0  0  0  0  0  0  0  0  0  0  0
    5.2729   -0.8364    5.5104 C   0  0  0  0  0  0  0  0  0  0  0  0
    3.3144    1.2891    2.1369 H   0  0  0  0  0  0  0  0  0  0  0  0
    4.6519    0.1385    2.0890 H   0  0  0  0  0  0  0  0  0  0  0  0
    4.2330    1.0047    3.5996 H   0  0  0  0  0  0  0  0  0  0  0  0
    1.6161   -2.0741    2.4784 H   0  0  0  0  0  0  0  0  0  0  0  0
    5.4855   -3.4638    2.6066 H   0  0  0  0  0  0  0  0  0  0  0  0
    5.3341   -1.8411    2.9311 H   0  0  0  0  0  0  0  0  0  0  0  0
    4.9800   -4.8450    5.6978 H   0  0  0  0  0  0  0  0  0  0  0  0
    6.2909   -3.7821    5.2616 H   0  0  0  0  0  0  0  0  0  0  0  0
    5.6854   -4.9009    4.0922 H   0  0  0  0  0  0  0  0  0  0  0  0
    2.2057   -3.3402    3.8248 H   0  0  0  0  0  0  0  0  0  0  0  0
    1.6917   -4.4016    6.1711 H   0  0  0  0  0  0  0  0  0  0  0  0
    1.7069   -6.5046    5.0639 H   0  0  0  0  0  0  0  0  0  0  0  0
    4.1700   -6.2985    3.9199 H   0  0  0  0  0  0  0  0  0  0  0  0
    2.1117   -8.0810    3.3360 H   0  0  0  0  0  0  0  0  0  0  0  0
    4.6069   -8.7159    3.0559 H   0  0  0  0  0  0  0  0  0  0  0  0
    3.7490   -9.0427    1.5695 H   0  0  0  0  0  0  0  0  0  0  0  0
    1.9239   -5.9343   -0.4855 H   0  0  0  0  0  0  0  0  0  0  0  0
    1.8190   -4.0030    1.7050 H   0  0  0  0  0  0  0  0  0  0  0  0
    3.5490   -4.3567   -0.6187 H   0  0  0  0  0  0  0  0  0  0  0  0
    2.1185   -3.2894   -0.4250 H   0  0  0  0  0  0  0  0  0  0  0  0
    3.6443   -1.4989    0.0121 H   0  0  0  0  0  0  0  0  0  0  0  0
    2.2355   -1.9282    6.2695 H   0  0  0  0  0  0  0  0  0  0  0  0
    4.2410   -1.6971    7.7660 H   0  0  0  0  0  0  0  0  0  0  0  0
    5.5510   -2.7671    7.2678 H   0  0  0  0  0  0  0  0  0  0  0  0
    3.8900   -3.3494    7.2968 H   0  0  0  0  0  0  0  0  0  0  0  0
    6.2580   -1.0801    5.9285 H   0  0  0  0  0  0  0  0  0  0  0  0
    4.9086    0.0423    6.0521 H   0  0  0  0  0  0  0  0  0  0  0  0
    5.4787   -0.5247    4.4962 H   0  0  0  0  0  0  0  0  0  0  0  0
  1  2  1  0
  1 31  1  0
  1 32  1  0
  1 33  1  0
  2 26  1  0
  2  3  2  3
  3  4  1  0
  3 34  1  0
  4 21  1  0
  4 23  1  0
  4  5  1  1
  5  6  1  0
  5 35  1  0
  5 36  1  0
  6 28  1  0
  6  7  1  1
  6  8  1  0
  7 37  1  0
  7 38  1  0
  7 39  1  0
  8  9  1  0
  8 25  1  0
  8 40  1  6
  9 10  2  3
  9 41  1  0
 10 11  1  0
 10 42  1  0
 11 17  1  0
 11 12  1  0
 11 43  1  1
 12 18  1  0
 12 13  1  0
 12 44  1  1
 13 14  1  0
 13 45  1  0
 13 46  1  0
 14 15  1  0
 15 16  2  0
 17 15  1  6
 17 18  1  0
 17 21  1  0
 18 19  2  3
 19 20  1  0
 20 47  1  0
 21 22  1  0
 21 48  1  1
 22 23  1  0
 22 49  1  0
 22 50  1  0
 23 24  1  0
 23 51  1  6
 25 26  1  0
 25 28  1  0
 25 52  1  1
 26 27  2  0
 28 29  1  0
 28 30  1  0
 29 53  1  0
 29 54  1  0
 29 55  1  0
 30 56  1  0
 30 57  1  0
 30 58  1  0
M  END
>  <i_m_ct_stereo_status>  (29) 
1

>  <s_m_source_file>  (29) 
/var/tmp/pbs.5076255.sched01/tmp9d3cgwpa/0mc_8ktg4.sdf

>  <i_m_source_file_index>  (29) 
11

>  <i_lp_mmshare_version>  (29) 
48012

>  <i_f3d_flags>  (29) 
0

>  <s_epik_input>  (29) 
W0NIM10vQyg9W0NIXS8xKUMoPU8pW0NAQEhdMkMoW0NIM10pKFtDSDNdKVtDQEBdKFtDSDJdMykoW0NIM10pW0NASF0yL1tDSF09W0NIXVxbQ0BASF0oW0NASF0oW0NIMl1PQzQ9TykvQzU9Ti9bT0hdKVtDQEBdNDVbQ0BASF0oW0NAQF0xMzYpW0NIMl1bQ0BASF02Rg==

>  <s_epik_cmdline>  (29) 
J2VwaWtfcHl0aG9uJywgJy1waHQnLCAnMi4wJywgJy1waCcsICc3LjAnLCAnLXRuJywgJzgnLCAnLW1hJywgJzIwMCcsICctaW1hZScsICc8aW5maWxlLm1hZT4nLCAnLW9tYWUnLCAnPG91dGZpbGUubWFlPic=

>  <r_lp_tautomer_probability>  (29) 
1

>  <r_epik_Ionization_Penalty>  (29) 
5.84987e-05

>  <r_epik_Ionization_Penalty_Charging>  (29) 
0

>  <r_epik_Ionization_Penalty_Neutral>  (29) 
5.84987e-05

>  <r_epik_State_Penalty>  (29) 
-0

>  <r_epik_Charging_Adjusted_Penalty>  (29) 
0

>  <i_epik_Tot_Q>  (29) 
0

>  <i_epik_Tot_abs_Q>  (29) 
0

>  <s_epik_Chemistry_Notes>  (29) 
This compound has an ester and may undergo hydrolysis at high or low pH. This compound has an imine and may undergo hydrolysis.

>  <s_lp_Force_Field>  (29) 
OPLS3e

>  <r_lp_Energy>  (29) 
142.701

>  <b_lp_Chiralities_Consistent>  (29) 
1

>  <s_lp_Variant>  (29) 
5:0-2

>  <s_i_glide_gridfile>  (29) 
pfpi4k_grid

>  <i_i_glide_lignum>  (29) 
11

>  <i_i_glide_rotatable_bonds>  (29) 
1

>  <r_i_docking_score>  (29) 
-2.67037

>  <r_i_glide_ligand_efficiency>  (29) 
-0.0890124

>  <r_i_glide_ligand_efficiency_sa>  (29) 
-0.276582

>  <r_i_glide_ligand_efficiency_ln>  (29) 
-0.606738

>  <r_i_glide_gscore>  (29) 
-2.67037

>  <r_i_glide_lipo>  (29) 
-0.0898853

>  <r_i_glide_hbond>  (29) 
-0.0716972

>  <r_i_glide_metal>  (29) 
-0

>  <r_i_glide_rewards>  (29) 
-0.707804

>  <r_i_glide_evdw>  (29) 
-18.7587

>  <r_i_glide_ecoul>  (29) 
-5.30947

>  <r_i_glide_erotb>  (29) 
0.115394

>  <r_i_glide_esite>  (29) 
-0.182024

>  <r_i_glide_emodel>  (29) 
-26.7936

>  <r_i_glide_energy>  (29) 
-24.0682

>  <r_i_glide_einternal>  (29) 
-0.00306107

>  <r_i_glide_intrahb_reward>  (29) 
-0

>  <i_i_glide_confnum>  (29) 
2

>  <i_i_glide_posenum>  (29) 
18

>  <r_i_glide_eff_state_penalty>  (29) 
0

>  <ligand_id>  (29) 
5

>  <original_smiles>  (29) 
CC1=CC23CC4(C)C(C=CC5C6COC(=O)C5(C6=NO)C2CC3F)C(C1=O)C4(C)C

>  <smiles>  (29) 
[H]ON=C1C2([H])C([H])([H])OC(=O)C13C2([H])C([H])=C([H])C1([H])C2([H])C(=O)C(C([H])([H])[H])=C([H])C4(C([H])([H])C1(C([H])([H])[H])C2(C([H])([H])[H])C([H])([H])[H])C([H])(F)C([H])([H])C34[H]

$$$$
5:1:2
     RDKit          3D

 58 63  0  0  1  0  0  0  0  0999 V2000
    4.4243   -0.2994    2.4558 C   0  0  0  0  0  0  0  0  0  0  0  0
    3.2078   -1.0864    2.9120 C   0  0  0  0  0  0  0  0  0  0  0  0
    2.7212   -2.1257    2.2008 C   0  0  0  0  0  0  0  0  0  0  0  0
    3.4854   -3.4505    2.1239 C   0  0  1  0  0  0  0  0  0  0  0  0
    4.5508   -3.5927    3.2837 C   0  0  0  0  0  0  0  0  0  0  0  0
    4.0144   -3.6333    4.7622 C   0  0  2  0  0  0  0  0  0  0  0  0
    4.7091   -4.8364    5.4282 C   0  0  0  0  0  0  0  0  0  0  0  0
    2.4889   -3.3995    4.8595 C   0  0  1  0  0  0  0  0  0  0  0  0
    1.6186   -4.3705    5.5901 C   0  0  0  0  0  0  0  0  0  0  0  0
    1.3707   -5.6114    5.1115 C   0  0  0  0  0  0  0  0  0  0  0  0
    2.2460   -6.4494    4.1360 C   0  0  1  0  0  0  0  0  0  0  0  0
    1.6141   -7.7699    3.6515 C   0  0  2  0  0  0  0  0  0  0  0  0
    2.6253   -8.8514    3.3246 C   0  0  0  0  0  0  0  0  0  0  0  0
    3.7247   -8.3048    2.5724 O   0  0  0  0  0  0  0  0  0  0  0  0
    3.8069   -6.9747    2.1661 C   0  0  0  0  0  0  0  0  0  0  0  0
    4.7785   -6.5795    1.5256 O   0  0  0  0  0  0  0  0  0  0  0  0
    2.6167   -6.1035    2.6195 C   0  0  1  0  0  0  0  0  0  0  0  0
    1.3567   -6.9284    2.4361 C   0  0  0  0  0  0  0  0  0  0  0  0
    0.2906   -6.8607    1.7616 N   0  0  0  0  0  0  0  0  0  0  0  0
    0.4754   -6.2487    0.4866 O   0  0  0  0  0  0  0  0  0  0  0  0
    2.5200   -4.6827    1.8929 C   0  0  2  0  0  0  0  0  0  0  0  0
    2.8119   -4.5404    0.3691 C   0  0  0  0  0  0  0  0  0  0  0  0
    3.9403   -3.5553    0.6622 C   0  0  2  0  0  0  0  0  0  0  0  0
    5.1365   -4.1137    0.5575 F   0  0  0  0  0  0  0  0  0  0  0  0
    2.7047   -1.9382    5.2980 C   0  0  2  0  0  0  0  0  0  0  0  0
    2.6530   -0.8013    4.2503 C   0  0  0  0  0  0  0  0  0  0  0  0
    2.2107    0.3181    4.4818 O   0  0  0  0  0  0  0  0  0  0  0  0
    4.1227   -2.3774    5.7219 C   0  0  0  0  0  0  0  0  0  0  0  0
    4.1713   -2.6209    7.2378 C   0  0  0  0  0  0  0  0  0  0  0  0
    5.3504   -1.4544    5.5534 C   0  0  0  0  0  0  0  0  0  0  0  0
    4.1001    0.4582    1.7313 H   0  0  0  0  0  0  0  0  0  0  0  0
    5.1738   -0.9263    1.9628 H   0  0  0  0  0  0  0  0  0  0  0  0
    4.8834    0.2458    3.2906 H   0  0  0  0  0  0  0  0  0  0  0  0
    1.6889   -2.3350    2.4092 H   0  0  0  0  0  0  0  0  0  0  0  0
    5.1233   -4.4938    3.0840 H   0  0  0  0  0  0  0  0  0  0  0  0
    5.3218   -2.8483    3.1556 H   0  0  0  0  0  0  0  0  0  0  0  0
    4.1465   -5.2117    6.2823 H   0  0  0  0  0  0  0  0  0  0  0  0
    5.6892   -4.5396    5.7907 H   0  0  0  0  0  0  0  0  0  0  0  0
    4.8970   -5.6765    4.7636 H   0  0  0  0  0  0  0  0  0  0  0  0
    1.8764   -3.4545    3.9889 H   0  0  0  0  0  0  0  0  0  0  0  0
    1.0358   -3.9837    6.4130 H   0  0  0  0  0  0  0  0  0  0  0  0
    0.6085   -6.1910    5.6301 H   0  0  0  0  0  0  0  0  0  0  0  0
    3.1257   -6.7315    4.7071 H   0  0  0  0  0  0  0  0  0  0  0  0
    0.7283   -8.0690    4.1980 H   0  0  0  0  0  0  0  0  0  0  0  0
    3.0192   -9.3080    4.2294 H   0  0  0  0  0  0  0  0  0  0  0  0
    2.1753   -9.6535    2.7501 H   0  0  0  0  0  0  0  0  0  0  0  0
    1.3158   -6.6036    0.2049 H   0  0  0  0  0  0  0  0  0  0  0  0
    1.4713   -4.3652    2.0026 H   0  0  0  0  0  0  0  0  0  0  0  0
    3.1746   -5.4410   -0.1325 H   0  0  0  0  0  0  0  0  0  0  0  0
    2.0033   -4.0829   -0.2034 H   0  0  0  0  0  0  0  0  0  0  0  0
    3.8849   -2.6234    0.0894 H   0  0  0  0  0  0  0  0  0  0  0  0
    2.1144   -1.7320    6.1962 H   0  0  0  0  0  0  0  0  0  0  0  0
    4.0612   -1.6804    7.7952 H   0  0  0  0  0  0  0  0  0  0  0  0
    5.1143   -3.0780    7.5666 H   0  0  0  0  0  0  0  0  0  0  0  0
    3.3566   -3.2785    7.5583 H   0  0  0  0  0  0  0  0  0  0  0  0
    6.2269   -1.8419    6.0953 H   0  0  0  0  0  0  0  0  0  0  0  0
    5.1709   -0.4374    5.9288 H   0  0  0  0  0  0  0  0  0  0  0  0
    5.6767   -1.3605    4.5216 H   0  0  0  0  0  0  0  0  0  0  0  0
  1  2  1  0
  1 31  1  0
  1 32  1  0
  1 33  1  0
  2 26  1  0
  2  3  2  3
  3  4  1  0
  3 34  1  0
  4 21  1  0
  4 23  1  0
  4  5  1  1
  5  6  1  0
  5 35  1  0
  5 36  1  0
  6 28  1  0
  6  7  1  1
  6  8  1  0
  7 37  1  0
  7 38  1  0
  7 39  1  0
  8  9  1  0
  8 25  1  0
  8 40  1  6
  9 10  2  3
  9 41  1  0
 10 11  1  0
 10 42  1  0
 11 17  1  0
 11 12  1  0
 11 43  1  1
 12 18  1  0
 12 13  1  0
 12 44  1  1
 13 14  1  0
 13 45  1  0
 13 46  1  0
 14 15  1  0
 15 16  2  0
 17 15  1  6
 17 18  1  0
 17 21  1  0
 18 19  2  3
 19 20  1  0
 20 47  1  0
 21 22  1  0
 21 48  1  6
 22 23  1  0
 22 49  1  0
 22 50  1  0
 23 24  1  0
 23 51  1  6
 25 26  1  0
 25 28  1  0
 25 52  1  1
 26 27  2  0
 28 29  1  0
 28 30  1  0
 29 53  1  0
 29 54  1  0
 29 55  1  0
 30 56  1  0
 30 57  1  0
 30 58  1  0
M  END
>  <i_m_ct_stereo_status>  (30) 
1

>  <s_m_source_file>  (30) 
/var/tmp/pbs.5076255.sched01/tmp9d3cgwpa/0mc_8ktg4.sdf

>  <i_m_source_file_index>  (30) 
11

>  <i_lp_mmshare_version>  (30) 
48012

>  <i_f3d_flags>  (30) 
0

>  <s_epik_input>  (30) 
W0NIM10vQyg9W0NIXS8xKUMoPU8pW0NAQEhdMkMoW0NIM10pKFtDSDNdKVtDQEBdKFtDSDJdMykoW0NIM10pW0NASF0yL1tDSF09W0NIXVxbQ0BASF0oW0NASF0oW0NIMl1PQzQ9TykvQzU9Ti9bT0hdKVtDQEBdNDVbQ0BASF0oW0NAQF0xMzYpW0NIMl1bQ0BASF02Rg==

>  <s_epik_cmdline>  (30) 
J2VwaWtfcHl0aG9uJywgJy1waHQnLCAnMi4wJywgJy1waCcsICc3LjAnLCAnLXRuJywgJzgnLCAnLW1hJywgJzIwMCcsICctaW1hZScsICc8aW5maWxlLm1hZT4nLCAnLW9tYWUnLCAnPG91dGZpbGUubWFlPic=

>  <r_lp_tautomer_probability>  (30) 
1

>  <r_epik_Ionization_Penalty>  (30) 
5.84987e-05

>  <r_epik_Ionization_Penalty_Charging>  (30) 
0

>  <r_epik_Ionization_Penalty_Neutral>  (30) 
5.84987e-05

>  <r_epik_State_Penalty>  (30) 
-0

>  <r_epik_Charging_Adjusted_Penalty>  (30) 
0

>  <i_epik_Tot_Q>  (30) 
0

>  <i_epik_Tot_abs_Q>  (30) 
0

>  <s_epik_Chemistry_Notes>  (30) 
This compound has an ester and may undergo hydrolysis at high or low pH. This compound has an imine and may undergo hydrolysis.

>  <s_lp_Force_Field>  (30) 
OPLS3e

>  <r_lp_Energy>  (30) 
142.701

>  <b_lp_Chiralities_Consistent>  (30) 
1

>  <s_lp_Variant>  (30) 
5:0-2

>  <s_i_glide_gridfile>  (30) 
pfpi4k_grid

>  <i_i_glide_lignum>  (30) 
11

>  <i_i_glide_rotatable_bonds>  (30) 
1

>  <r_i_docking_score>  (30) 
-2.39593

>  <r_i_glide_ligand_efficiency>  (30) 
-0.0798644

>  <r_i_glide_ligand_efficiency_sa>  (30) 
-0.248157

>  <r_i_glide_ligand_efficiency_ln>  (30) 
-0.544382

>  <r_i_glide_gscore>  (30) 
-2.39593

>  <r_i_glide_lipo>  (30) 
-0.130599

>  <r_i_glide_hbond>  (30) 
0

>  <r_i_glide_metal>  (30) 
-0

>  <r_i_glide_rewards>  (30) 
-0.674414

>  <r_i_glide_evdw>  (30) 
-18.0976

>  <r_i_glide_ecoul>  (30) 
-3.80404

>  <r_i_glide_erotb>  (30) 
0.115394

>  <r_i_glide_esite>  (30) 
-0.230827

>  <r_i_glide_emodel>  (30) 
-24.3018

>  <r_i_glide_energy>  (30) 
-21.9017

>  <r_i_glide_einternal>  (30) 
-0.0033927

>  <r_i_glide_intrahb_reward>  (30) 
-0

>  <i_i_glide_confnum>  (30) 
2

>  <i_i_glide_posenum>  (30) 
5

>  <r_i_glide_eff_state_penalty>  (30) 
0

>  <ligand_id>  (30) 
5

>  <original_smiles>  (30) 
CC1=CC23CC4(C)C(C=CC5C6COC(=O)C5(C6=NO)C2CC3F)C(C1=O)C4(C)C

>  <smiles>  (30) 
[H]ON=C1C2([H])C([H])([H])OC(=O)C13C2([H])C([H])=C([H])C1([H])C2([H])C(=O)C(C([H])([H])[H])=C([H])C4(C([H])([H])C1(C([H])([H])[H])C2(C([H])([H])[H])C([H])([H])[H])C([H])(F)C([H])([H])C34[H]

$$$$
5:2:0
     RDKit          3D

 58 63  0  0  1  0  0  0  0  0999 V2000
    5.3773   -0.0158    3.8936 C   0  0  0  0  0  0  0  0  0  0  0  0
    4.8082   -1.1445    3.0417 C   0  0  0  0  0  0  0  0  0  0  0  0
    5.6584   -2.1183    2.5732 C   0  0  0  0  0  0  0  0  0  0  0  0
    5.6352   -3.4874    1.8580 C   0  0  1  0  0  0  0  0  0  0  0  0
    4.6886   -4.5314    2.5273 C   0  0  0  0  0  0  0  0  0  0  0  0
    3.1778   -4.2402    2.6114 C   0  0  2  0  0  0  0  0  0  0  0  0
    2.4837   -5.6231    2.5321 C   0  0  0  0  0  0  0  0  0  0  0  0
    2.8494   -3.1459    1.6249 C   0  0  1  0  0  0  0  0  0  0  0  0
    2.2429   -3.4768    0.3251 C   0  0  0  0  0  0  0  0  0  0  0  0
    3.0542   -4.3073   -0.3910 C   0  0  0  0  0  0  0  0  0  0  0  0
    3.9349   -3.8210   -1.4959 C   0  0  1  0  0  0  0  0  0  0  0  0
    3.5418   -2.5493   -2.2933 C   0  0  2  0  0  0  0  0  0  0  0  0
    4.2337   -2.5041   -3.6361 C   0  0  0  0  0  0  0  0  0  0  0  0
    5.5815   -2.9832   -3.4644 O   0  0  0  0  0  0  0  0  0  0  0  0
    6.2062   -3.1102   -2.2182 C   0  0  0  0  0  0  0  0  0  0  0  0
    7.4075   -3.2647   -2.0842 O   0  0  0  0  0  0  0  0  0  0  0  0
    5.2510   -3.1181   -1.0571 C   0  0  1  0  0  0  0  0  0  0  0  0
    4.4262   -1.8739   -1.2563 C   0  0  0  0  0  0  0  0  0  0  0  0
    4.2731   -0.8173   -0.5825 N   0  0  0  0  0  0  0  0  0  0  0  0
    5.4759   -0.3019    0.0144 O   0  0  0  0  0  0  0  0  0  0  0  0
    6.0235   -3.2943    0.3127 C   0  0  2  0  0  0  0  0  0  0  0  0
    6.8609   -4.5650    0.4427 C   0  0  0  0  0  0  0  0  0  0  0  0
    7.0314   -4.1577    1.8568 C   0  0  2  0  0  0  0  0  0  0  0  0
    7.1823   -5.2802    2.5639 F   0  0  0  0  0  0  0  0  0  0  0  0
    2.4230   -2.1609    2.6775 C   0  0  2  0  0  0  0  0  0  0  0  0
    3.3493   -0.9506    2.8034 C   0  0  0  0  0  0  0  0  0  0  0  0
    2.8958    0.1944    2.6719 O   0  0  0  0  0  0  0  0  0  0  0  0
    2.5655   -3.3085    3.7288 C   0  0  0  0  0  0  0  0  0  0  0  0
    1.1702   -3.6644    4.2385 C   0  0  0  0  0  0  0  0  0  0  0  0
    3.3847   -3.1308    5.0168 C   0  0  0  0  0  0  0  0  0  0  0  0
    4.7829    0.1744    4.7912 H   0  0  0  0  0  0  0  0  0  0  0  0
    5.3467    0.8769    3.3074 H   0  0  0  0  0  0  0  0  0  0  0  0
    6.4001   -0.1418    4.2109 H   0  0  0  0  0  0  0  0  0  0  0  0
    6.6590   -1.7975    2.7771 H   0  0  0  0  0  0  0  0  0  0  0  0
    4.8250   -5.4987    2.0148 H   0  0  0  0  0  0  0  0  0  0  0  0
    5.0408   -4.7482    3.5358 H   0  0  0  0  0  0  0  0  0  0  0  0
    1.4276   -5.5216    2.2951 H   0  0  0  0  0  0  0  0  0  0  0  0
    2.5610   -6.1517    3.4782 H   0  0  0  0  0  0  0  0  0  0  0  0
    2.8961   -6.2894    1.7732 H   0  0  0  0  0  0  0  0  0  0  0  0
    3.6728   -2.6088    1.1729 H   0  0  0  0  0  0  0  0  0  0  0  0
    1.8858   -2.6100   -0.1816 H   0  0  0  0  0  0  0  0  0  0  0  0
    3.5347   -5.1257    0.0909 H   0  0  0  0  0  0  0  0  0  0  0  0
    4.2902   -4.6757   -2.1160 H   0  0  0  0  0  0  0  0  0  0  0  0
    2.4756   -2.2927   -2.2937 H   0  0  0  0  0  0  0  0  0  0  0  0
    3.7540   -3.1899   -4.3439 H   0  0  0  0  0  0  0  0  0  0  0  0
    4.2341   -1.4994   -4.0789 H   0  0  0  0  0  0  0  0  0  0  0  0
    5.3392    0.6331   -0.0741 H   0  0  0  0  0  0  0  0  0  0  0  0
    6.7300   -2.4629    0.3071 H   0  0  0  0  0  0  0  0  0  0  0  0
    6.2998   -5.4862    0.3389 H   0  0  0  0  0  0  0  0  0  0  0  0
    7.8361   -4.5783   -0.0494 H   0  0  0  0  0  0  0  0  0  0  0  0
    7.8895   -3.5136    1.8304 H   0  0  0  0  0  0  0  0  0  0  0  0
    1.3793   -1.8753    2.5332 H   0  0  0  0  0  0  0  0  0  0  0  0
    0.7612   -2.8806    4.8783 H   0  0  0  0  0  0  0  0  0  0  0  0
    1.1592   -4.5984    4.7973 H   0  0  0  0  0  0  0  0  0  0  0  0
    0.4778   -3.7702    3.4084 H   0  0  0  0  0  0  0  0  0  0  0  0
    3.0457   -2.2794    5.6114 H   0  0  0  0  0  0  0  0  0  0  0  0
    4.4484   -2.9915    4.8388 H   0  0  0  0  0  0  0  0  0  0  0  0
    3.3196   -4.0213    5.6472 H   0  0  0  0  0  0  0  0  0  0  0  0
  1  2  1  0
  1 31  1  0
  1 32  1  0
  1 33  1  0
  2 26  1  0
  2  3  2  3
  3  4  1  0
  3 34  1  0
  4 21  1  0
  4 23  1  0
  4  5  1  6
  5  6  1  0
  5 35  1  0
  5 36  1  0
  6 28  1  0
  6  7  1  6
  6  8  1  0
  7 37  1  0
  7 38  1  0
  7 39  1  0
  8  9  1  0
  8 25  1  0
  8 40  1  6
  9 10  2  3
  9 41  1  0
 10 11  1  0
 10 42  1  0
 11 17  1  0
 11 12  1  0
 11 43  1  6
 12 18  1  0
 12 13  1  0
 12 44  1  6
 13 14  1  0
 13 45  1  0
 13 46  1  0
 14 15  1  0
 15 16  2  0
 17 15  1  6
 17 18  1  0
 17 21  1  0
 18 19  2  3
 19 20  1  0
 20 47  1  0
 21 22  1  0
 21 48  1  1
 22 23  1  0
 22 49  1  0
 22 50  1  0
 23 24  1  0
 23 51  1  6
 25 26  1  0
 25 28  1  0
 25 52  1  6
 26 27  2  0
 28 29  1  0
 28 30  1  0
 29 53  1  0
 29 54  1  0
 29 55  1  0
 30 56  1  0
 30 57  1  0
 30 58  1  0
M  END
>  <i_m_ct_stereo_status>  (31) 
1

>  <s_m_source_file>  (31) 
/var/tmp/pbs.5076255.sched01/tmp9d3cgwpa/0mc_8ktg4.sdf

>  <i_m_source_file_index>  (31) 
12

>  <i_lp_mmshare_version>  (31) 
48012

>  <i_f3d_flags>  (31) 
0

>  <s_epik_input>  (31) 
W0NIM10vQyg9W0NIXS8xKUMoPU8pW0NAQEhdMkMoW0NIM10pKFtDSDNdKVtDQEBdKFtDSDJdMykoW0NIM10pW0NASF0yL1tDSF09W0NIXVxbQ0BASF0oW0NASF0oW0NIMl1PQzQ9TykvQzU9Ti9bT0hdKVtDQEBdNDVbQ0BASF0oW0NAQF0xMzYpW0NIMl1bQ0BASF02Rg==

>  <s_epik_cmdline>  (31) 
J2VwaWtfcHl0aG9uJywgJy1waHQnLCAnMi4wJywgJy1waCcsICc3LjAnLCAnLXRuJywgJzgnLCAnLW1hJywgJzIwMCcsICctaW1hZScsICc8aW5maWxlLm1hZT4nLCAnLW9tYWUnLCAnPG91dGZpbGUubWFlPic=

>  <r_lp_tautomer_probability>  (31) 
1

>  <r_epik_Ionization_Penalty>  (31) 
5.84987e-05

>  <r_epik_Ionization_Penalty_Charging>  (31) 
0

>  <r_epik_Ionization_Penalty_Neutral>  (31) 
5.84987e-05

>  <r_epik_State_Penalty>  (31) 
-0

>  <r_epik_Charging_Adjusted_Penalty>  (31) 
0

>  <i_epik_Tot_Q>  (31) 
0

>  <i_epik_Tot_abs_Q>  (31) 
0

>  <s_epik_Chemistry_Notes>  (31) 
This compound has an ester and may undergo hydrolysis at high or low pH. This compound has an imine and may undergo hydrolysis.

>  <s_lp_Force_Field>  (31) 
OPLS3e

>  <r_lp_Energy>  (31) 
153.707

>  <b_lp_Chiralities_Consistent>  (31) 
1

>  <s_lp_Variant>  (31) 
5:0-3

>  <s_i_glide_gridfile>  (31) 
pfpi4k_grid

>  <i_i_glide_lignum>  (31) 
12

>  <i_i_glide_rotatable_bonds>  (31) 
1

>  <r_i_docking_score>  (31) 
-2.56708

>  <r_i_glide_ligand_efficiency>  (31) 
-0.0855694

>  <r_i_glide_ligand_efficiency_sa>  (31) 
-0.265884

>  <r_i_glide_ligand_efficiency_ln>  (31) 
-0.583269

>  <r_i_glide_gscore>  (31) 
-2.56708

>  <r_i_glide_lipo>  (31) 
-0.765746

>  <r_i_glide_hbond>  (31) 
-0.290117

>  <r_i_glide_metal>  (31) 
-0

>  <r_i_glide_rewards>  (31) 
-0.836091

>  <r_i_glide_evdw>  (31) 
-5.15373

>  <r_i_glide_ecoul>  (31) 
-3.09724

>  <r_i_glide_erotb>  (31) 
0.115394

>  <r_i_glide_esite>  (31) 
-0.0682481

>  <r_i_glide_emodel>  (31) 
-10.6221

>  <r_i_glide_energy>  (31) 
-8.25097

>  <r_i_glide_einternal>  (31) 
-0.000798131

>  <r_i_glide_intrahb_reward>  (31) 
-0

>  <i_i_glide_confnum>  (31) 
1

>  <i_i_glide_posenum>  (31) 
2

>  <r_i_glide_eff_state_penalty>  (31) 
0

>  <ligand_id>  (31) 
5

>  <original_smiles>  (31) 
CC1=CC23CC4(C)C(C=CC5C6COC(=O)C5(C6=NO)C2CC3F)C(C1=O)C4(C)C

>  <smiles>  (31) 
[H]ON=C1C2([H])C([H])([H])OC(=O)C13C2([H])C([H])=C([H])C1([H])C2([H])C(=O)C(C([H])([H])[H])=C([H])C4(C([H])([H])C1(C([H])([H])[H])C2(C([H])([H])[H])C([H])([H])[H])C([H])(F)C([H])([H])C34[H]

$$$$
5:2:1
     RDKit          3D

 58 63  0  0  1  0  0  0  0  0999 V2000
    5.5758   -4.9800    6.5527 C   0  0  0  0  0  0  0  0  0  0  0  0
    5.1079   -5.2996    5.1265 C   0  0  0  0  0  0  0  0  0  0  0  0
    6.0431   -5.4776    4.1405 C   0  0  0  0  0  0  0  0  0  0  0  0
    6.0481   -5.8070    2.6275 C   0  0  1  0  0  0  0  0  0  0  0  0
    5.3827   -7.2068    2.2953 C   0  0  0  0  0  0  0  0  0  0  0  0
    3.8893   -7.4353    2.5530 C   0  0  2  0  0  0  0  0  0  0  0  0
    3.4264   -8.4710    1.4947 C   0  0  0  0  0  0  0  0  0  0  0  0
    3.1906   -6.0890    2.6830 C   0  0  1  0  0  0  0  0  0  0  0  0
    2.3373   -5.5517    1.5994 C   0  0  0  0  0  0  0  0  0  0  0  0
    3.0746   -5.3782    0.4824 C   0  0  0  0  0  0  0  0  0  0  0  0
    3.7266   -4.0658    0.0661 C   0  0  1  0  0  0  0  0  0  0  0  0
    3.0351   -2.7430    0.4569 C   0  0  2  0  0  0  0  0  0  0  0  0
    3.4537   -1.5803   -0.4121 C   0  0  0  0  0  0  0  0  0  0  0  0
    4.8871   -1.5797   -0.5735 O   0  0  0  0  0  0  0  0  0  0  0  0
    5.7419   -2.4937    0.0335 C   0  0  0  0  0  0  0  0  0  0  0  0
    6.9636   -2.3867   -0.1329 O   0  0  0  0  0  0  0  0  0  0  0  0
    5.0294   -3.5916    0.8357 C   0  0  1  0  0  0  0  0  0  0  0  0
    3.9765   -2.8410    1.6165 C   0  0  0  0  0  0  0  0  0  0  0  0
    3.7911   -2.5419    2.8322 N   0  0  0  0  0  0  0  0  0  0  0  0
    4.9963   -2.4592    3.5721 O   0  0  0  0  0  0  0  0  0  0  0  0
    6.0710   -4.4876    1.6898 C   0  0  2  0  0  0  0  0  0  0  0  0
    7.1461   -5.2096    0.8921 C   0  0  0  0  0  0  0  0  0  0  0  0
    7.5394   -5.8771    2.1924 C   0  0  2  0  0  0  0  0  0  0  0  0
    8.0264   -7.0932    1.9896 F   0  0  0  0  0  0  0  0  0  0  0  0
    2.8650   -6.2966    4.1257 C   0  0  2  0  0  0  0  0  0  0  0  0
    3.6056   -5.3663    5.0758 C   0  0  0  0  0  0  0  0  0  0  0  0
    2.9603   -4.6330    5.8274 O   0  0  0  0  0  0  0  0  0  0  0  0
    3.3468   -7.7615    3.9965 C   0  0  0  0  0  0  0  0  0  0  0  0
    2.1460   -8.7231    4.0932 C   0  0  0  0  0  0  0  0  0  0  0  0
    4.3481   -8.3729    4.9987 C   0  0  0  0  0  0  0  0  0  0  0  0
    5.1210   -5.6662    7.2700 H   0  0  0  0  0  0  0  0  0  0  0  0
    5.2811   -3.9680    6.8508 H   0  0  0  0  0  0  0  0  0  0  0  0
    6.6576   -5.0574    6.6844 H   0  0  0  0  0  0  0  0  0  0  0  0
    7.0577   -5.3634    4.5205 H   0  0  0  0  0  0  0  0  0  0  0  0
    5.5889   -7.4123    1.2505 H   0  0  0  0  0  0  0  0  0  0  0  0
    5.9421   -7.9895    2.8045 H   0  0  0  0  0  0  0  0  0  0  0  0
    2.3460   -8.5160    1.4026 H   0  0  0  0  0  0  0  0  0  0  0  0
    3.7601   -9.4771    1.7565 H   0  0  0  0  0  0  0  0  0  0  0  0
    3.8141   -8.2891    0.4908 H   0  0  0  0  0  0  0  0  0  0  0  0
    3.8389   -5.2381    2.7304 H   0  0  0  0  0  0  0  0  0  0  0  0
    1.7425   -4.7203    1.9549 H   0  0  0  0  0  0  0  0  0  0  0  0
    3.7727   -6.1588    0.2090 H   0  0  0  0  0  0  0  0  0  0  0  0
    3.9290   -4.1149   -1.0054 H   0  0  0  0  0  0  0  0  0  0  0  0
    1.9703   -2.8286    0.6463 H   0  0  0  0  0  0  0  0  0  0  0  0
    3.0001   -1.6564   -1.4004 H   0  0  0  0  0  0  0  0  0  0  0  0
    3.1556   -0.6246    0.0139 H   0  0  0  0  0  0  0  0  0  0  0  0
    4.9320   -1.5932    3.9726 H   0  0  0  0  0  0  0  0  0  0  0  0
    6.6002   -3.7211    2.2778 H   0  0  0  0  0  0  0  0  0  0  0  0
    6.7128   -5.8822    0.1453 H   0  0  0  0  0  0  0  0  0  0  0  0
    7.9517   -4.6007    0.4730 H   0  0  0  0  0  0  0  0  0  0  0  0
    8.2640   -5.2593    2.7519 H   0  0  0  0  0  0  0  0  0  0  0  0
    1.7838   -6.2806    4.2749 H   0  0  0  0  0  0  0  0  0  0  0  0
    1.7428   -8.7772    5.1098 H   0  0  0  0  0  0  0  0  0  0  0  0
    2.3985   -9.7442    3.7937 H   0  0  0  0  0  0  0  0  0  0  0  0
    1.3244   -8.3971    3.4588 H   0  0  0  0  0  0  0  0  0  0  0  0
    3.9880   -8.3195    6.0291 H   0  0  0  0  0  0  0  0  0  0  0  0
    5.3194   -7.8964    4.9799 H   0  0  0  0  0  0  0  0  0  0  0  0
    4.5456   -9.4261    4.7748 H   0  0  0  0  0  0  0  0  0  0  0  0
  1  2  1  0
  1 31  1  0
  1 32  1  0
  1 33  1  0
  2 26  1  0
  2  3  2  3
  3  4  1  0
  3 34  1  0
  4 21  1  0
  4 23  1  0
  4  5  1  6
  5  6  1  0
  5 35  1  0
  5 36  1  0
  6 28  1  0
  6  7  1  6
  6  8  1  0
  7 37  1  0
  7 38  1  0
  7 39  1  0
  8  9  1  0
  8 25  1  0
  8 40  1  1
  9 10  2  3
  9 41  1  0
 10 11  1  0
 10 42  1  0
 11 17  1  0
 11 12  1  0
 11 43  1  6
 12 18  1  0
 12 13  1  0
 12 44  1  1
 13 14  1  0
 13 45  1  0
 13 46  1  0
 14 15  1  0
 15 16  2  0
 17 15  1  6
 17 18  1  0
 17 21  1  0
 18 19  2  3
 19 20  1  0
 20 47  1  0
 21 22  1  0
 21 48  1  1
 22 23  1  0
 22 49  1  0
 22 50  1  0
 23 24  1  0
 23 51  1  1
 25 26  1  0
 25 28  1  0
 25 52  1  6
 26 27  2  0
 28 29  1  0
 28 30  1  0
 29 53  1  0
 29 54  1  0
 29 55  1  0
 30 56  1  0
 30 57  1  0
 30 58  1  0
M  END
>  <i_m_ct_stereo_status>  (32) 
1

>  <s_m_source_file>  (32) 
/var/tmp/pbs.5076255.sched01/tmp9d3cgwpa/0mc_8ktg4.sdf

>  <i_m_source_file_index>  (32) 
12

>  <i_lp_mmshare_version>  (32) 
48012

>  <i_f3d_flags>  (32) 
0

>  <s_epik_input>  (32) 
W0NIM10vQyg9W0NIXS8xKUMoPU8pW0NAQEhdMkMoW0NIM10pKFtDSDNdKVtDQEBdKFtDSDJdMykoW0NIM10pW0NASF0yL1tDSF09W0NIXVxbQ0BASF0oW0NASF0oW0NIMl1PQzQ9TykvQzU9Ti9bT0hdKVtDQEBdNDVbQ0BASF0oW0NAQF0xMzYpW0NIMl1bQ0BASF02Rg==

>  <s_epik_cmdline>  (32) 
J2VwaWtfcHl0aG9uJywgJy1waHQnLCAnMi4wJywgJy1waCcsICc3LjAnLCAnLXRuJywgJzgnLCAnLW1hJywgJzIwMCcsICctaW1hZScsICc8aW5maWxlLm1hZT4nLCAnLW9tYWUnLCAnPG91dGZpbGUubWFlPic=

>  <r_lp_tautomer_probability>  (32) 
1

>  <r_epik_Ionization_Penalty>  (32) 
5.84987e-05

>  <r_epik_Ionization_Penalty_Charging>  (32) 
0

>  <r_epik_Ionization_Penalty_Neutral>  (32) 
5.84987e-05

>  <r_epik_State_Penalty>  (32) 
-0

>  <r_epik_Charging_Adjusted_Penalty>  (32) 
0

>  <i_epik_Tot_Q>  (32) 
0

>  <i_epik_Tot_abs_Q>  (32) 
0

>  <s_epik_Chemistry_Notes>  (32) 
This compound has an ester and may undergo hydrolysis at high or low pH. This compound has an imine and may undergo hydrolysis.

>  <s_lp_Force_Field>  (32) 
OPLS3e

>  <r_lp_Energy>  (32) 
153.707

>  <b_lp_Chiralities_Consistent>  (32) 
1

>  <s_lp_Variant>  (32) 
5:0-3

>  <s_i_glide_gridfile>  (32) 
pfpi4k_grid

>  <i_i_glide_lignum>  (32) 
12

>  <i_i_glide_rotatable_bonds>  (32) 
1

>  <r_i_docking_score>  (32) 
-2.15522

>  <r_i_glide_ligand_efficiency>  (32) 
-0.0718405

>  <r_i_glide_ligand_efficiency_sa>  (32) 
-0.223225

>  <r_i_glide_ligand_efficiency_ln>  (32) 
-0.489689

>  <r_i_glide_gscore>  (32) 
-2.15522

>  <r_i_glide_lipo>  (32) 
-0.248238

>  <r_i_glide_hbond>  (32) 
0

>  <r_i_glide_metal>  (32) 
-0

>  <r_i_glide_rewards>  (32) 
-0.611291

>  <r_i_glide_evdw>  (32) 
-19.9471

>  <r_i_glide_ecoul>  (32) 
-2.436

>  <r_i_glide_erotb>  (32) 
0.115394

>  <r_i_glide_esite>  (32) 
-0.0483256

>  <r_i_glide_emodel>  (32) 
-24.9924

>  <r_i_glide_energy>  (32) 
-22.3831

>  <r_i_glide_einternal>  (32) 
-0.00104057

>  <r_i_glide_intrahb_reward>  (32) 
-0

>  <i_i_glide_confnum>  (32) 
2

>  <i_i_glide_posenum>  (32) 
15

>  <r_i_glide_eff_state_penalty>  (32) 
0

>  <ligand_id>  (32) 
5

>  <original_smiles>  (32) 
CC1=CC23CC4(C)C(C=CC5C6COC(=O)C5(C6=NO)C2CC3F)C(C1=O)C4(C)C

>  <smiles>  (32) 
[H]ON=C1C2([H])C([H])([H])OC(=O)C13C2([H])C([H])=C([H])C1([H])C2([H])C(=O)C(C([H])([H])[H])=C([H])C4(C([H])([H])C1(C([H])([H])[H])C2(C([H])([H])[H])C([H])([H])[H])C([H])(F)C([H])([H])C34[H]

$$$$
5:2:2
     RDKit          3D

 58 63  0  0  1  0  0  0  0  0999 V2000
    5.3824   -4.6103    6.3940 C   0  0  0  0  0  0  0  0  0  0  0  0
    4.9662   -5.0122    4.9713 C   0  0  0  0  0  0  0  0  0  0  0  0
    5.9381   -5.3062    4.0569 C   0  0  0  0  0  0  0  0  0  0  0  0
    6.0191   -5.7433    2.5755 C   0  0  1  0  0  0  0  0  0  0  0  0
    5.3015   -7.1276    2.3033 C   0  0  0  0  0  0  0  0  0  0  0  0
    3.7852   -7.2538    2.4944 C   0  0  2  0  0  0  0  0  0  0  0  0
    3.3297   -8.3358    1.4837 C   0  0  0  0  0  0  0  0  0  0  0  0
    3.1589   -5.8639    2.4995 C   0  0  1  0  0  0  0  0  0  0  0  0
    2.3996   -5.3587    1.3301 C   0  0  0  0  0  0  0  0  0  0  0  0
    3.1987   -5.3171    0.2568 C   0  0  0  0  0  0  0  0  0  0  0  0
    3.9522   -4.0843   -0.2476 C   0  0  1  0  0  0  0  0  0  0  0  0
    3.2984   -2.7100   -0.0008 C   0  0  2  0  0  0  0  0  0  0  0  0
    3.8324   -1.6115   -0.9050 C   0  0  0  0  0  0  0  0  0  0  0  0
    5.2737   -1.6867   -0.9771 O   0  0  0  0  0  0  0  0  0  0  0  0
    6.0393   -2.6107   -0.2681 C   0  0  0  0  0  0  0  0  0  0  0  0
    7.2694   -2.5608   -0.3277 O   0  0  0  0  0  0  0  0  0  0  0  0
    5.2250   -3.6223    0.5592 C   0  0  1  0  0  0  0  0  0  0  0  0
    4.1587   -2.7650    1.2154 C   0  0  0  0  0  0  0  0  0  0  0  0
    3.8943   -2.4218    2.3936 N   0  0  0  0  0  0  0  0  0  0  0  0
    5.0563   -2.3338    3.1821 O   0  0  0  0  0  0  0  0  0  0  0  0
    6.1680   -4.4970    1.5428 C   0  0  2  0  0  0  0  0  0  0  0  0
    7.2466   -5.3316    0.8821 C   0  0  0  0  0  0  0  0  0  0  0  0
    7.5257   -5.9120    2.2424 C   0  0  2  0  0  0  0  0  0  0  0  0
    7.9487   -7.1614    2.1498 F   0  0  0  0  0  0  0  0  0  0  0  0
    2.7275   -5.9644    3.9253 C   0  0  2  0  0  0  0  0  0  0  0  0
    3.4764   -5.0068    4.8452 C   0  0  0  0  0  0  0  0  0  0  0  0
    2.8411   -4.1716    5.5025 O   0  0  0  0  0  0  0  0  0  0  0  0
    3.1457   -7.4525    3.9210 C   0  0  0  0  0  0  0  0  0  0  0  0
    1.8923   -8.3409    4.0162 C   0  0  0  0  0  0  0  0  0  0  0  0
    4.0494   -8.0384    5.0206 C   0  0  0  0  0  0  0  0  0  0  0  0
    4.8498   -5.2153    7.1248 H   0  0  0  0  0  0  0  0  0  0  0  0
    5.1246   -3.5723    6.6004 H   0  0  0  0  0  0  0  0  0  0  0  0
    6.4462   -4.7313    6.5895 H   0  0  0  0  0  0  0  0  0  0  0  0
    6.9376   -5.2162    4.4770 H   0  0  0  0  0  0  0  0  0  0  0  0
    5.5488   -7.4319    1.2927 H   0  0  0  0  0  0  0  0  0  0  0  0
    5.7796   -7.9031    2.8989 H   0  0  0  0  0  0  0  0  0  0  0  0
    2.2549   -8.3330    1.3294 H   0  0  0  0  0  0  0  0  0  0  0  0
    3.5952   -9.3370    1.8363 H   0  0  0  0  0  0  0  0  0  0  0  0
    3.7855   -8.2454    0.4961 H   0  0  0  0  0  0  0  0  0  0  0  0
    3.8475   -5.0418    2.5303 H   0  0  0  0  0  0  0  0  0  0  0  0
    1.8194   -4.4815    1.6046 H   0  0  0  0  0  0  0  0  0  0  0  0
    3.8683   -6.1430    0.0805 H   0  0  0  0  0  0  0  0  0  0  0  0
    4.2015   -4.2140   -1.2959 H   0  0  0  0  0  0  0  0  0  0  0  0
    2.2260   -2.7232    0.1670 H   0  0  0  0  0  0  0  0  0  0  0  0
    3.4129   -1.7347   -1.9038 H   0  0  0  0  0  0  0  0  0  0  0  0
    3.5516   -0.6226   -0.5447 H   0  0  0  0  0  0  0  0  0  0  0  0
    4.9784   -3.1404    3.6839 H   0  0  0  0  0  0  0  0  0  0  0  0
    6.7206   -3.7172    2.0873 H   0  0  0  0  0  0  0  0  0  0  0  0
    6.8082   -6.0368    0.1722 H   0  0  0  0  0  0  0  0  0  0  0  0
    8.1056   -4.7920    0.4806 H   0  0  0  0  0  0  0  0  0  0  0  0
    8.2428   -5.2841    2.7990 H   0  0  0  0  0  0  0  0  0  0  0  0
    1.6417   -5.8822    3.9835 H   0  0  0  0  0  0  0  0  0  0  0  0
    1.4399   -8.2970    5.0113 H   0  0  0  0  0  0  0  0  0  0  0  0
    2.1142   -9.3902    3.8050 H   0  0  0  0  0  0  0  0  0  0  0  0
    1.1288   -8.0203    3.3130 H   0  0  0  0  0  0  0  0  0  0  0  0
    3.6341   -7.8964    6.0210 H   0  0  0  0  0  0  0  0  0  0  0  0
    5.0432   -7.6172    5.0186 H   0  0  0  0  0  0  0  0  0  0  0  0
    4.1927   -9.1122    4.8766 H   0  0  0  0  0  0  0  0  0  0  0  0
  1  2  1  0
  1 31  1  0
  1 32  1  0
  1 33  1  0
  2 26  1  0
  2  3  2  3
  3  4  1  0
  3 34  1  0
  4 21  1  0
  4 23  1  0
  4  5  1  6
  5  6  1  0
  5 35  1  0
  5 36  1  0
  6 28  1  0
  6  7  1  6
  6  8  1  0
  7 37  1  0
  7 38  1  0
  7 39  1  0
  8  9  1  0
  8 25  1  0
  8 40  1  1
  9 10  2  3
  9 41  1  0
 10 11  1  0
 10 42  1  0
 11 17  1  0
 11 12  1  0
 11 43  1  6
 12 18  1  0
 12 13  1  0
 12 44  1  1
 13 14  1  0
 13 45  1  0
 13 46  1  0
 14 15  1  0
 15 16  2  0
 17 15  1  6
 17 18  1  0
 17 21  1  0
 18 19  2  3
 19 20  1  0
 20 47  1  0
 21 22  1  0
 21 48  1  1
 22 23  1  0
 22 49  1  0
 22 50  1  0
 23 24  1  0
 23 51  1  1
 25 26  1  0
 25 28  1  0
 25 52  1  6
 26 27  2  0
 28 29  1  0
 28 30  1  0
 29 53  1  0
 29 54  1  0
 29 55  1  0
 30 56  1  0
 30 57  1  0
 30 58  1  0
M  END
>  <i_m_ct_stereo_status>  (33) 
1

>  <s_m_source_file>  (33) 
/var/tmp/pbs.5076255.sched01/tmp9d3cgwpa/0mc_8ktg4.sdf

>  <i_m_source_file_index>  (33) 
12

>  <i_lp_mmshare_version>  (33) 
48012

>  <i_f3d_flags>  (33) 
0

>  <s_epik_input>  (33) 
W0NIM10vQyg9W0NIXS8xKUMoPU8pW0NAQEhdMkMoW0NIM10pKFtDSDNdKVtDQEBdKFtDSDJdMykoW0NIM10pW0NASF0yL1tDSF09W0NIXVxbQ0BASF0oW0NASF0oW0NIMl1PQzQ9TykvQzU9Ti9bT0hdKVtDQEBdNDVbQ0BASF0oW0NAQF0xMzYpW0NIMl1bQ0BASF02Rg==

>  <s_epik_cmdline>  (33) 
J2VwaWtfcHl0aG9uJywgJy1waHQnLCAnMi4wJywgJy1waCcsICc3LjAnLCAnLXRuJywgJzgnLCAnLW1hJywgJzIwMCcsICctaW1hZScsICc8aW5maWxlLm1hZT4nLCAnLW9tYWUnLCAnPG91dGZpbGUubWFlPic=

>  <r_lp_tautomer_probability>  (33) 
1

>  <r_epik_Ionization_Penalty>  (33) 
5.84987e-05

>  <r_epik_Ionization_Penalty_Charging>  (33) 
0

>  <r_epik_Ionization_Penalty_Neutral>  (33) 
5.84987e-05

>  <r_epik_State_Penalty>  (33) 
-0

>  <r_epik_Charging_Adjusted_Penalty>  (33) 
0

>  <i_epik_Tot_Q>  (33) 
0

>  <i_epik_Tot_abs_Q>  (33) 
0

>  <s_epik_Chemistry_Notes>  (33) 
This compound has an ester and may undergo hydrolysis at high or low pH. This compound has an imine and may undergo hydrolysis.

>  <s_lp_Force_Field>  (33) 
OPLS3e

>  <r_lp_Energy>  (33) 
153.707

>  <b_lp_Chiralities_Consistent>  (33) 
1

>  <s_lp_Variant>  (33) 
5:0-3

>  <s_i_glide_gridfile>  (33) 
pfpi4k_grid

>  <i_i_glide_lignum>  (33) 
12

>  <i_i_glide_rotatable_bonds>  (33) 
1

>  <r_i_docking_score>  (33) 
-2.12364

>  <r_i_glide_ligand_efficiency>  (33) 
-0.0707882

>  <r_i_glide_ligand_efficiency_sa>  (33) 
-0.219955

>  <r_i_glide_ligand_efficiency_ln>  (33) 
-0.482515

>  <r_i_glide_gscore>  (33) 
-2.12364

>  <r_i_glide_lipo>  (33) 
-0.262231

>  <r_i_glide_hbond>  (33) 
-0.00458223

>  <r_i_glide_metal>  (33) 
-0

>  <r_i_glide_rewards>  (33) 
-0.593975

>  <r_i_glide_evdw>  (33) 
-19.9576

>  <r_i_glide_ecoul>  (33) 
-2.25661

>  <r_i_glide_erotb>  (33) 
0.115394

>  <r_i_glide_esite>  (33) 
-0.0418809

>  <r_i_glide_emodel>  (33) 
-24.7721

>  <r_i_glide_energy>  (33) 
-22.2142

>  <r_i_glide_einternal>  (33) 
-0.00240267

>  <r_i_glide_intrahb_reward>  (33) 
-0

>  <i_i_glide_confnum>  (33) 
1

>  <i_i_glide_posenum>  (33) 
1

>  <r_i_glide_eff_state_penalty>  (33) 
0

>  <ligand_id>  (33) 
5

>  <original_smiles>  (33) 
CC1=CC23CC4(C)C(C=CC5C6COC(=O)C5(C6=NO)C2CC3F)C(C1=O)C4(C)C

>  <smiles>  (33) 
[H]ON=C1C2([H])C([H])([H])OC(=O)C13C2([H])C([H])=C([H])C1([H])C2([H])C(=O)C(C([H])([H])[H])=C([H])C4(C([H])([H])C1(C([H])([H])[H])C2(C([H])([H])[H])C([H])([H])[H])C([H])(F)C([H])([H])C34[H]

$$$$
5:3:0
     RDKit          3D

 58 63  0  0  1  0  0  0  0  0999 V2000
    1.0800   -4.5922    4.1790 C   0  0  0  0  0  0  0  0  0  0  0  0
    1.7439   -5.0157    2.8791 C   0  0  0  0  0  0  0  0  0  0  0  0
    2.8154   -4.4615    2.3081 C   0  0  0  0  0  0  0  0  0  0  0  0
    4.1509   -4.2738    2.9776 C   0  0  1  0  0  0  0  0  0  0  0  0
    4.6587   -5.6441    3.6090 C   0  0  0  0  0  0  0  0  0  0  0  0
    4.3227   -7.1301    3.0773 C   0  0  2  0  0  0  0  0  0  0  0  0
    5.6026   -7.9311    3.4086 C   0  0  0  0  0  0  0  0  0  0  0  0
    3.7425   -7.4205    1.6506 C   0  0  2  0  0  0  0  0  0  0  0  0
    4.1589   -6.5074    0.5010 C   0  0  0  0  0  0  0  0  0  0  0  0
    5.3334   -5.8645    0.5526 C   0  0  0  0  0  0  0  0  0  0  0  0
    5.8189   -4.6384   -0.1867 C   0  0  1  0  0  0  0  0  0  0  0  0
    5.1217   -4.0790   -1.4427 C   0  0  2  0  0  0  0  0  0  0  0  0
    6.0027   -3.0681   -2.1732 C   0  0  0  0  0  0  0  0  0  0  0  0
    6.6169   -2.1569   -1.2348 O   0  0  0  0  0  0  0  0  0  0  0  0
    6.4026   -2.2082    0.1360 C   0  0  0  0  0  0  0  0  0  0  0  0
    6.9966   -1.4417    0.8840 O   0  0  0  0  0  0  0  0  0  0  0  0
    5.4543   -3.3248    0.5803 C   0  0  1  0  0  0  0  0  0  0  0  0
    4.2927   -3.3292   -0.4199 C   0  0  0  0  0  0  0  0  0  0  0  0
    3.0812   -3.0029   -0.4568 N   0  0  0  0  0  0  0  0  0  0  0  0
    2.6597   -1.9911    0.4653 O   0  0  0  0  0  0  0  0  0  0  0  0
    5.1693   -3.3942    2.1356 C   0  0  1  0  0  0  0  0  0  0  0  0
    4.7480   -2.1529    2.9064 C   0  0  0  0  0  0  0  0  0  0  0  0
    4.1104   -3.0590    3.9459 C   0  0  2  0  0  0  0  0  0  0  0  0
    4.9601   -3.2150    4.9646 F   0  0  0  0  0  0  0  0  0  0  0  0
    2.3073   -7.4505    2.2632 C   0  0  2  0  0  0  0  0  0  0  0  0
    1.3011   -6.2757    2.2782 C   0  0  0  0  0  0  0  0  0  0  0  0
    0.1385   -6.3675    1.8813 O   0  0  0  0  0  0  0  0  0  0  0  0
    3.0114   -7.8523    3.5975 C   0  0  0  0  0  0  0  0  0  0  0  0
    3.0541   -9.3881    3.7458 C   0  0  0  0  0  0  0  0  0  0  0  0
    2.4514   -7.4275    4.9679 C   0  0  0  0  0  0  0  0  0  0  0  0
    0.5166   -5.4166    4.6194 H   0  0  0  0  0  0  0  0  0  0  0  0
    0.3617   -3.7870    3.9932 H   0  0  0  0  0  0  0  0  0  0  0  0
    1.8015   -4.2433    4.9109 H   0  0  0  0  0  0  0  0  0  0  0  0
    2.9396   -4.7139    1.2886 H   0  0  0  0  0  0  0  0  0  0  0  0
    5.7491   -5.5531    3.6579 H   0  0  0  0  0  0  0  0  0  0  0  0
    4.4308   -5.6218    4.6711 H   0  0  0  0  0  0  0  0  0  0  0  0
    5.5622   -8.9383    3.0046 H   0  0  0  0  0  0  0  0  0  0  0  0
    5.7430   -8.0260    4.4844 H   0  0  0  0  0  0  0  0  0  0  0  0
    6.5118   -7.4913    2.9973 H   0  0  0  0  0  0  0  0  0  0  0  0
    3.9959   -8.4349    1.3368 H   0  0  0  0  0  0  0  0  0  0  0  0
    3.4175   -6.2485   -0.2405 H   0  0  0  0  0  0  0  0  0  0  0  0
    6.0267   -6.1263    1.3415 H   0  0  0  0  0  0  0  0  0  0  0  0
    6.9032   -4.7175   -0.3247 H   0  0  0  0  0  0  0  0  0  0  0  0
    4.6253   -4.8124   -2.0646 H   0  0  0  0  0  0  0  0  0  0  0  0
    6.7974   -3.5826   -2.7152 H   0  0  0  0  0  0  0  0  0  0  0  0
    5.4436   -2.4796   -2.9033 H   0  0  0  0  0  0  0  0  0  0  0  0
    1.9815   -1.5388   -0.0254 H   0  0  0  0  0  0  0  0  0  0  0  0
    6.1414   -3.6533    2.5215 H   0  0  0  0  0  0  0  0  0  0  0  0
    5.5912   -1.5747    3.2821 H   0  0  0  0  0  0  0  0  0  0  0  0
    4.0241   -1.5242    2.3846 H   0  0  0  0  0  0  0  0  0  0  0  0
    3.1393   -2.6946    4.2814 H   0  0  0  0  0  0  0  0  0  0  0  0
    1.8028   -8.3344    1.8582 H   0  0  0  0  0  0  0  0  0  0  0  0
    2.0630   -9.8019    3.9535 H   0  0  0  0  0  0  0  0  0  0  0  0
    3.7168   -9.7105    4.5521 H   0  0  0  0  0  0  0  0  0  0  0  0
    3.3982   -9.8882    2.8409 H   0  0  0  0  0  0  0  0  0  0  0  0
    2.9928   -7.8991    5.7936 H   0  0  0  0  0  0  0  0  0  0  0  0
    1.3976   -7.6898    5.0830 H   0  0  0  0  0  0  0  0  0  0  0  0
    2.5411   -6.3687    5.1638 H   0  0  0  0  0  0  0  0  0  0  0  0
  1  2  1  0
  1 31  1  0
  1 32  1  0
  1 33  1  0
  2 26  1  0
  2  3  2  3
  3  4  1  0
  3 34  1  0
  4 21  1  0
  4 23  1  0
  4  5  1  1
  5  6  1  0
  5 35  1  0
  5 36  1  0
  6 28  1  0
  6  7  1  6
  6  8  1  0
  7 37  1  0
  7 38  1  0
  7 39  1  0
  8  9  1  0
  8 25  1  0
  8 40  1  6
  9 10  2  3
  9 41  1  0
 10 11  1  0
 10 42  1  0
 11 17  1  0
 11 12  1  0
 11 43  1  6
 12 18  1  0
 12 13  1  0
 12 44  1  6
 13 14  1  0
 13 45  1  0
 13 46  1  0
 14 15  1  0
 15 16  2  0
 17 15  1  1
 17 18  1  0
 17 21  1  0
 18 19  2  3
 19 20  1  0
 20 47  1  0
 21 22  1  0
 21 48  1  1
 22 23  1  0
 22 49  1  0
 22 50  1  0
 23 24  1  0
 23 51  1  1
 25 26  1  0
 25 28  1  0
 25 52  1  6
 26 27  2  0
 28 29  1  0
 28 30  1  0
 29 53  1  0
 29 54  1  0
 29 55  1  0
 30 56  1  0
 30 57  1  0
 30 58  1  0
M  END
>  <i_m_ct_stereo_status>  (34) 
1

>  <s_m_source_file>  (34) 
/var/tmp/pbs.5076255.sched01/tmp9d3cgwpa/0mc_8ktg4.sdf

>  <i_m_source_file_index>  (34) 
13

>  <i_lp_mmshare_version>  (34) 
48012

>  <i_f3d_flags>  (34) 
2

>  <s_epik_input>  (34) 
W0NIM10vQyg9W0NIXS8xKUMoPU8pW0NAQEhdMkMoW0NIM10pKFtDSDNdKVtDQEBdKFtDSDJdMykoW0NIM10pW0NASF0yL1tDSF09W0NIXVxbQ0BASF0oW0NASF0oW0NIMl1PQzQ9TykvQzU9Ti9bT0hdKVtDQEBdNDVbQ0BASF0oW0NAQF0xMzYpW0NIMl1bQ0BASF02Rg==

>  <s_epik_cmdline>  (34) 
J2VwaWtfcHl0aG9uJywgJy1waHQnLCAnMi4wJywgJy1waCcsICc3LjAnLCAnLXRuJywgJzgnLCAnLW1hJywgJzIwMCcsICctaW1hZScsICc8aW5maWxlLm1hZT4nLCAnLW9tYWUnLCAnPG91dGZpbGUubWFlPic=

>  <r_lp_tautomer_probability>  (34) 
1

>  <r_epik_Ionization_Penalty>  (34) 
5.84987e-05

>  <r_epik_Ionization_Penalty_Charging>  (34) 
0

>  <r_epik_Ionization_Penalty_Neutral>  (34) 
5.84987e-05

>  <r_epik_State_Penalty>  (34) 
-0

>  <r_epik_Charging_Adjusted_Penalty>  (34) 
0

>  <i_epik_Tot_Q>  (34) 
0

>  <i_epik_Tot_abs_Q>  (34) 
0

>  <s_epik_Chemistry_Notes>  (34) 
This compound has an ester and may undergo hydrolysis at high or low pH. This compound has an imine and may undergo hydrolysis.

>  <s_lp_Force_Field>  (34) 
OPLS3e

>  <r_lp_Energy>  (34) 
123.356

>  <b_lp_Chiralities_Consistent>  (34) 
0

>  <s_lp_Variant>  (34) 
5:0-4

>  <s_i_glide_gridfile>  (34) 
pfpi4k_grid

>  <i_i_glide_lignum>  (34) 
13

>  <i_i_glide_rotatable_bonds>  (34) 
1

>  <r_i_docking_score>  (34) 
-4.51381

>  <r_i_glide_ligand_efficiency>  (34) 
-0.15046

>  <r_i_glide_ligand_efficiency_sa>  (34) 
-0.467515

>  <r_i_glide_ligand_efficiency_ln>  (34) 
-1.02559

>  <r_i_glide_gscore>  (34) 
-4.51381

>  <r_i_glide_lipo>  (34) 
-0.651885

>  <r_i_glide_hbond>  (34) 
-0.590967

>  <r_i_glide_metal>  (34) 
-0

>  <r_i_glide_rewards>  (34) 
-0.70784

>  <r_i_glide_evdw>  (34) 
-21.3281

>  <r_i_glide_ecoul>  (34) 
-9.87867

>  <r_i_glide_erotb>  (34) 
0.115394

>  <r_i_glide_esite>  (34) 
-0.130309

>  <r_i_glide_emodel>  (34) 
-40.5278

>  <r_i_glide_energy>  (34) 
-31.2068

>  <r_i_glide_einternal>  (34) 
-0.000844113

>  <r_i_glide_intrahb_reward>  (34) 
-0

>  <i_i_glide_confnum>  (34) 
2

>  <i_i_glide_posenum>  (34) 
24

>  <r_i_glide_eff_state_penalty>  (34) 
0

>  <ligand_id>  (34) 
5

>  <original_smiles>  (34) 
CC1=CC23CC4(C)C(C=CC5C6COC(=O)C5(C6=NO)C2CC3F)C(C1=O)C4(C)C

>  <smiles>  (34) 
[H]ON=C1C2([H])C([H])([H])OC(=O)C13C2([H])C([H])=C([H])C1([H])C2([H])C(=O)C(C([H])([H])[H])=C([H])C4(C([H])([H])C1(C([H])([H])[H])C2(C([H])([H])[H])C([H])([H])[H])C([H])(F)C([H])([H])C34[H]

$$$$
5:3:1
     RDKit          3D

 58 63  0  0  1  0  0  0  0  0999 V2000
    7.0758   -5.6448    4.9002 C   0  0  0  0  0  0  0  0  0  0  0  0
    5.7985   -5.2596    4.1727 C   0  0  0  0  0  0  0  0  0  0  0  0
    5.6976   -4.7560    2.9360 C   0  0  0  0  0  0  0  0  0  0  0  0
    6.3250   -5.3607    1.6983 C   0  0  1  0  0  0  0  0  0  0  0  0
    5.9093   -6.8861    1.5513 C   0  0  0  0  0  0  0  0  0  0  0  0
    4.5528   -7.5803    2.0650 C   0  0  2  0  0  0  0  0  0  0  0  0
    4.2726   -8.6803    1.0135 C   0  0  0  0  0  0  0  0  0  0  0  0
    3.2833   -6.7619    2.4831 C   0  0  2  0  0  0  0  0  0  0  0  0
    2.9792   -5.4597    1.7484 C   0  0  0  0  0  0  0  0  0  0  0  0
    3.4112   -5.2935    0.4909 C   0  0  0  0  0  0  0  0  0  0  0  0
    3.6472   -4.0348   -0.3150 C   0  0  1  0  0  0  0  0  0  0  0  0
    3.0589   -2.6700    0.0749 C   0  0  2  0  0  0  0  0  0  0  0  0
    3.1790   -1.6775   -1.0855 C   0  0  0  0  0  0  0  0  0  0  0  0
    4.4869   -1.7186   -1.7067 O   0  0  0  0  0  0  0  0  0  0  0  0
    5.4853   -2.5673   -1.2882 C   0  0  0  0  0  0  0  0  0  0  0  0
    6.5684   -2.5910   -1.8714 O   0  0  0  0  0  0  0  0  0  0  0  0
    5.0846   -3.4525   -0.0916 C   0  0  1  0  0  0  0  0  0  0  0  0
    4.3161   -2.5513    0.8838 C   0  0  0  0  0  0  0  0  0  0  0  0
    4.5201   -1.9328    1.9652 N   0  0  0  0  0  0  0  0  0  0  0  0
    5.8915   -1.8272    2.2967 O   0  0  0  0  0  0  0  0  0  0  0  0
    6.2195   -4.4166    0.4249 C   0  0  1  0  0  0  0  0  0  0  0  0
    7.6254   -3.8893    0.6906 C   0  0  0  0  0  0  0  0  0  0  0  0
    7.8528   -5.0757    1.6059 C   0  0  2  0  0  0  0  0  0  0  0  0
    8.5037   -6.0290    0.9339 F   0  0  0  0  0  0  0  0  0  0  0  0
    3.7575   -6.8358    3.9686 C   0  0  2  0  0  0  0  0  0  0  0  0
    4.5328   -5.7448    4.7398 C   0  0  0  0  0  0  0  0  0  0  0  0
    4.1774   -5.3334    5.8437 O   0  0  0  0  0  0  0  0  0  0  0  0
    4.5005   -8.1434    3.5472 C   0  0  0  0  0  0  0  0  0  0  0  0
    3.6157   -9.3815    3.8073 C   0  0  0  0  0  0  0  0  0  0  0  0
    5.8303   -8.5607    4.2013 C   0  0  0  0  0  0  0  0  0  0  0  0
    6.8851   -6.4077    5.6576 H   0  0  0  0  0  0  0  0  0  0  0  0
    7.4666   -4.7750    5.4328 H   0  0  0  0  0  0  0  0  0  0  0  0
    7.8478   -6.0090    4.2274 H   0  0  0  0  0  0  0  0  0  0  0  0
    4.7544   -4.3351    2.7105 H   0  0  0  0  0  0  0  0  0  0  0  0
    5.9791   -7.0845    0.4926 H   0  0  0  0  0  0  0  0  0  0  0  0
    6.7426   -7.4922    1.9035 H   0  0  0  0  0  0  0  0  0  0  0  0
    3.3071   -9.1624    1.1706 H   0  0  0  0  0  0  0  0  0  0  0  0
    5.0241   -9.4718    1.0489 H   0  0  0  0  0  0  0  0  0  0  0  0
    4.2368   -8.3062   -0.0114 H   0  0  0  0  0  0  0  0  0  0  0  0
    2.3865   -7.3676    2.3784 H   0  0  0  0  0  0  0  0  0  0  0  0
    2.5979   -4.6289    2.3304 H   0  0  0  0  0  0  0  0  0  0  0  0
    3.8434   -6.1375   -0.0237 H   0  0  0  0  0  0  0  0  0  0  0  0
    3.4495   -4.2558   -1.3692 H   0  0  0  0  0  0  0  0  0  0  0  0
    2.1131   -2.6809    0.6101 H   0  0  0  0  0  0  0  0  0  0  0  0
    2.4281   -1.8976   -1.8529 H   0  0  0  0  0  0  0  0  0  0  0  0
    3.0110   -0.6699   -0.7285 H   0  0  0  0  0  0  0  0  0  0  0  0
    6.1723   -1.0858    1.7825 H   0  0  0  0  0  0  0  0  0  0  0  0
    6.3041   -5.0992   -0.4151 H   0  0  0  0  0  0  0  0  0  0  0  0
    8.2758   -3.8893   -0.1825 H   0  0  0  0  0  0  0  0  0  0  0  0
    7.6580   -2.9354    1.2144 H   0  0  0  0  0  0  0  0  0  0  0  0
    8.4008   -4.8134    2.4983 H   0  0  0  0  0  0  0  0  0  0  0  0
    2.8871   -7.1097    4.5707 H   0  0  0  0  0  0  0  0  0  0  0  0
    3.5215   -9.5874    4.8768 H   0  0  0  0  0  0  0  0  0  0  0  0
    4.0128  -10.2810    3.3330 H   0  0  0  0  0  0  0  0  0  0  0  0
    2.5964   -9.2572    3.4366 H   0  0  0  0  0  0  0  0  0  0  0  0
    6.1443   -9.5545    3.8763 H   0  0  0  0  0  0  0  0  0  0  0  0
    5.7605   -8.5809    5.2915 H   0  0  0  0  0  0  0  0  0  0  0  0
    6.6635   -7.9174    3.9454 H   0  0  0  0  0  0  0  0  0  0  0  0
  1  2  1  0
  1 31  1  0
  1 32  1  0
  1 33  1  0
  2 26  1  0
  2  3  2  3
  3  4  1  0
  3 34  1  0
  4 21  1  0
  4 23  1  0
  4  5  1  6
  5  6  1  0
  5 35  1  0
  5 36  1  0
  6 28  1  0
  6  7  1  6
  6  8  1  0
  7 37  1  0
  7 38  1  0
  7 39  1  0
  8  9  1  0
  8 25  1  0
  8 40  1  1
  9 10  2  3
  9 41  1  0
 10 11  1  0
 10 42  1  0
 11 17  1  0
 11 12  1  0
 11 43  1  6
 12 18  1  0
 12 13  1  0
 12 44  1  1
 13 14  1  0
 13 45  1  0
 13 46  1  0
 14 15  1  0
 15 16  2  0
 17 15  1  6
 17 18  1  0
 17 21  1  0
 18 19  2  3
 19 20  1  0
 20 47  1  0
 21 22  1  0
 21 48  1  6
 22 23  1  0
 22 49  1  0
 22 50  1  0
 23 24  1  0
 23 51  1  1
 25 26  1  0
 25 28  1  0
 25 52  1  1
 26 27  2  0
 28 29  1  0
 28 30  1  0
 29 53  1  0
 29 54  1  0
 29 55  1  0
 30 56  1  0
 30 57  1  0
 30 58  1  0
M  END
>  <i_m_ct_stereo_status>  (35) 
1

>  <s_m_source_file>  (35) 
/var/tmp/pbs.5076255.sched01/tmp9d3cgwpa/0mc_8ktg4.sdf

>  <i_m_source_file_index>  (35) 
13

>  <i_lp_mmshare_version>  (35) 
48012

>  <i_f3d_flags>  (35) 
2

>  <s_epik_input>  (35) 
W0NIM10vQyg9W0NIXS8xKUMoPU8pW0NAQEhdMkMoW0NIM10pKFtDSDNdKVtDQEBdKFtDSDJdMykoW0NIM10pW0NASF0yL1tDSF09W0NIXVxbQ0BASF0oW0NASF0oW0NIMl1PQzQ9TykvQzU9Ti9bT0hdKVtDQEBdNDVbQ0BASF0oW0NAQF0xMzYpW0NIMl1bQ0BASF02Rg==

>  <s_epik_cmdline>  (35) 
J2VwaWtfcHl0aG9uJywgJy1waHQnLCAnMi4wJywgJy1waCcsICc3LjAnLCAnLXRuJywgJzgnLCAnLW1hJywgJzIwMCcsICctaW1hZScsICc8aW5maWxlLm1hZT4nLCAnLW9tYWUnLCAnPG91dGZpbGUubWFlPic=

>  <r_lp_tautomer_probability>  (35) 
1

>  <r_epik_Ionization_Penalty>  (35) 
5.84987e-05

>  <r_epik_Ionization_Penalty_Charging>  (35) 
0

>  <r_epik_Ionization_Penalty_Neutral>  (35) 
5.84987e-05

>  <r_epik_State_Penalty>  (35) 
-0

>  <r_epik_Charging_Adjusted_Penalty>  (35) 
0

>  <i_epik_Tot_Q>  (35) 
0

>  <i_epik_Tot_abs_Q>  (35) 
0

>  <s_epik_Chemistry_Notes>  (35) 
This compound has an ester and may undergo hydrolysis at high or low pH. This compound has an imine and may undergo hydrolysis.

>  <s_lp_Force_Field>  (35) 
OPLS3e

>  <r_lp_Energy>  (35) 
123.356

>  <b_lp_Chiralities_Consistent>  (35) 
0

>  <s_lp_Variant>  (35) 
5:0-4

>  <s_i_glide_gridfile>  (35) 
pfpi4k_grid

>  <i_i_glide_lignum>  (35) 
13

>  <i_i_glide_rotatable_bonds>  (35) 
1

>  <r_i_docking_score>  (35) 
-2.79276

>  <r_i_glide_ligand_efficiency>  (35) 
-0.0930919

>  <r_i_glide_ligand_efficiency_sa>  (35) 
-0.289258

>  <r_i_glide_ligand_efficiency_ln>  (35) 
-0.634545

>  <r_i_glide_gscore>  (35) 
-2.79276

>  <r_i_glide_lipo>  (35) 
-0.589022

>  <r_i_glide_hbond>  (35) 
-0.048572

>  <r_i_glide_metal>  (35) 
-0

>  <r_i_glide_rewards>  (35) 
-0.589897

>  <r_i_glide_evdw>  (35) 
-21.4499

>  <r_i_glide_ecoul>  (35) 
-3.63626

>  <r_i_glide_erotb>  (35) 
0.115394

>  <r_i_glide_esite>  (35) 
-0.0627254

>  <r_i_glide_emodel>  (35) 
-30.8399

>  <r_i_glide_energy>  (35) 
-25.0862

>  <r_i_glide_einternal>  (35) 
-0.00223955

>  <r_i_glide_intrahb_reward>  (35) 
-0

>  <i_i_glide_confnum>  (35) 
2

>  <i_i_glide_posenum>  (35) 
40

>  <r_i_glide_eff_state_penalty>  (35) 
0

>  <ligand_id>  (35) 
5

>  <original_smiles>  (35) 
CC1=CC23CC4(C)C(C=CC5C6COC(=O)C5(C6=NO)C2CC3F)C(C1=O)C4(C)C

>  <smiles>  (35) 
[H]ON=C1C2([H])C([H])([H])OC(=O)C13C2([H])C([H])=C([H])C1([H])C2([H])C(=O)C(C([H])([H])[H])=C([H])C4(C([H])([H])C1(C([H])([H])[H])C2(C([H])([H])[H])C([H])([H])[H])C([H])(F)C([H])([H])C34[H]

$$$$
5:3:2
     RDKit          3D

 58 63  0  0  1  0  0  0  0  0999 V2000
    6.6169   -5.9780    5.0841 C   0  0  0  0  0  0  0  0  0  0  0  0
    5.4274   -5.5566    4.2399 C   0  0  0  0  0  0  0  0  0  0  0  0
    5.4714   -4.9748    3.0294 C   0  0  0  0  0  0  0  0  0  0  0  0
    6.1930   -5.5334    1.8370 C   0  0  1  0  0  0  0  0  0  0  0  0
    5.7739   -7.0466    1.5727 C   0  0  0  0  0  0  0  0  0  0  0  0
    4.3637   -7.7270    1.9229 C   0  0  2  0  0  0  0  0  0  0  0  0
    4.1888   -8.7708    0.7999 C   0  0  0  0  0  0  0  0  0  0  0  0
    3.0693   -6.9054    2.2538 C   0  0  2  0  0  0  0  0  0  0  0  0
    2.8644   -5.5598    1.5724 C   0  0  0  0  0  0  0  0  0  0  0  0
    3.4309   -5.3384    0.3743 C   0  0  0  0  0  0  0  0  0  0  0  0
    3.7450   -4.0496   -0.3657 C   0  0  1  0  0  0  0  0  0  0  0  0
    3.1540   -2.6978    0.0328 C   0  0  2  0  0  0  0  0  0  0  0  0
    3.3848   -1.6446   -1.0414 C   0  0  0  0  0  0  0  0  0  0  0  0
    4.7487   -1.6810   -1.5324 O   0  0  0  0  0  0  0  0  0  0  0  0
    5.7023   -2.5691   -1.0640 C   0  0  0  0  0  0  0  0  0  0  0  0
    6.8463   -2.5731   -1.5235 O   0  0  0  0  0  0  0  0  0  0  0  0
    5.1732   -3.5248    0.0190 C   0  0  1  0  0  0  0  0  0  0  0  0
    4.3293   -2.6645    0.9505 C   0  0  0  0  0  0  0  0  0  0  0  0
    4.4409   -2.1513    2.0951 N   0  0  0  0  0  0  0  0  0  0  0  0
    5.7858   -1.9892    2.4763 O   0  0  0  0  0  0  0  0  0  0  0  0
    6.2424   -4.5277    0.6053 C   0  0  1  0  0  0  0  0  0  0  0  0
    7.6066   -4.0380    1.0644 C   0  0  0  0  0  0  0  0  0  0  0  0
    7.7188   -5.2739    1.9376 C   0  0  2  0  0  0  0  0  0  0  0  0
    8.4163   -6.1887    1.2677 F   0  0  0  0  0  0  0  0  0  0  0  0
    3.3863   -7.0617    3.7736 C   0  0  2  0  0  0  0  0  0  0  0  0
    4.1041   -6.0231    4.6597 C   0  0  0  0  0  0  0  0  0  0  0  0
    3.6418   -5.6255    5.7339 O   0  0  0  0  0  0  0  0  0  0  0  0
    4.1556   -8.3545    3.3611 C   0  0  0  0  0  0  0  0  0  0  0  0
    3.2449   -9.5946    3.4746 C   0  0  0  0  0  0  0  0  0  0  0  0
    5.4016   -8.8355    4.1275 C   0  0  0  0  0  0  0  0  0  0  0  0
    6.3330   -6.7641    5.7899 H   0  0  0  0  0  0  0  0  0  0  0  0
    6.9607   -5.1301    5.6844 H   0  0  0  0  0  0  0  0  0  0  0  0
    7.4528   -6.3385    4.4894 H   0  0  0  0  0  0  0  0  0  0  0  0
    4.5663   -4.5176    2.7442 H   0  0  0  0  0  0  0  0  0  0  0  0
    5.9423   -7.1873    0.5048 H   0  0  0  0  0  0  0  0  0  0  0  0
    6.5605   -7.6858    1.9716 H   0  0  0  0  0  0  0  0  0  0  0  0
    3.2126   -9.2461    0.8441 H   0  0  0  0  0  0  0  0  0  0  0  0
    4.9291   -9.5679    0.8761 H   0  0  0  0  0  0  0  0  0  0  0  0
    4.2625   -8.3468   -0.2008 H   0  0  0  0  0  0  0  0  0  0  0  0
    2.1870   -7.5023    2.0282 H   0  0  0  0  0  0  0  0  0  0  0  0
    2.4354   -4.7538    2.1542 H   0  0  0  0  0  0  0  0  0  0  0  0
    3.9015   -6.1671   -0.1298 H   0  0  0  0  0  0  0  0  0  0  0  0
    3.6638   -4.2243   -1.4462 H   0  0  0  0  0  0  0  0  0  0  0  0
    2.1671   -2.7317    0.4845 H   0  0  0  0  0  0  0  0  0  0  0  0
    2.7001   -1.8005   -1.8751 H   0  0  0  0  0  0  0  0  0  0  0  0
    3.1813   -0.6572   -0.6493 H   0  0  0  0  0  0  0  0  0  0  0  0
    5.8272   -1.0597    2.6692 H   0  0  0  0  0  0  0  0  0  0  0  0
    6.4543   -5.1578   -0.2513 H   0  0  0  0  0  0  0  0  0  0  0  0
    8.3471   -4.0149    0.2634 H   0  0  0  0  0  0  0  0  0  0  0  0
    7.5619   -3.0997    1.6015 H   0  0  0  0  0  0  0  0  0  0  0  0
    8.1513   -5.0603    2.9161 H   0  0  0  0  0  0  0  0  0  0  0  0
    2.4535   -7.3599    4.2570 H   0  0  0  0  0  0  0  0  0  0  0  0
    3.0432   -9.8493    4.5188 H   0  0  0  0  0  0  0  0  0  0  0  0
    3.6839  -10.4752    2.9996 H   0  0  0  0  0  0  0  0  0  0  0  0
    2.2686   -9.4428    3.0095 H   0  0  0  0  0  0  0  0  0  0  0  0
    5.7288   -9.8180    3.7819 H   0  0  0  0  0  0  0  0  0  0  0  0
    5.2206   -8.9113    5.2035 H   0  0  0  0  0  0  0  0  0  0  0  0
    6.2661   -8.1992    3.9880 H   0  0  0  0  0  0  0  0  0  0  0  0
  1  2  1  0
  1 31  1  0
  1 32  1  0
  1 33  1  0
  2 26  1  0
  2  3  2  3
  3  4  1  0
  3 34  1  0
  4 21  1  0
  4 23  1  0
  4  5  1  6
  5  6  1  0
  5 35  1  0
  5 36  1  0
  6 28  1  0
  6  7  1  6
  6  8  1  0
  7 37  1  0
  7 38  1  0
  7 39  1  0
  8  9  1  0
  8 25  1  0
  8 40  1  1
  9 10  2  3
  9 41  1  0
 10 11  1  0
 10 42  1  0
 11 17  1  0
 11 12  1  0
 11 43  1  6
 12 18  1  0
 12 13  1  0
 12 44  1  1
 13 14  1  0
 13 45  1  0
 13 46  1  0
 14 15  1  0
 15 16  2  0
 17 15  1  6
 17 18  1  0
 17 21  1  0
 18 19  2  3
 19 20  1  0
 20 47  1  0
 21 22  1  0
 21 48  1  6
 22 23  1  0
 22 49  1  0
 22 50  1  0
 23 24  1  0
 23 51  1  1
 25 26  1  0
 25 28  1  0
 25 52  1  1
 26 27  2  0
 28 29  1  0
 28 30  1  0
 29 53  1  0
 29 54  1  0
 29 55  1  0
 30 56  1  0
 30 57  1  0
 30 58  1  0
M  END
>  <i_m_ct_stereo_status>  (36) 
1

>  <s_m_source_file>  (36) 
/var/tmp/pbs.5076255.sched01/tmp9d3cgwpa/0mc_8ktg4.sdf

>  <i_m_source_file_index>  (36) 
13

>  <i_lp_mmshare_version>  (36) 
48012

>  <i_f3d_flags>  (36) 
2

>  <s_epik_input>  (36) 
W0NIM10vQyg9W0NIXS8xKUMoPU8pW0NAQEhdMkMoW0NIM10pKFtDSDNdKVtDQEBdKFtDSDJdMykoW0NIM10pW0NASF0yL1tDSF09W0NIXVxbQ0BASF0oW0NASF0oW0NIMl1PQzQ9TykvQzU9Ti9bT0hdKVtDQEBdNDVbQ0BASF0oW0NAQF0xMzYpW0NIMl1bQ0BASF02Rg==

>  <s_epik_cmdline>  (36) 
J2VwaWtfcHl0aG9uJywgJy1waHQnLCAnMi4wJywgJy1waCcsICc3LjAnLCAnLXRuJywgJzgnLCAnLW1hJywgJzIwMCcsICctaW1hZScsICc8aW5maWxlLm1hZT4nLCAnLW9tYWUnLCAnPG91dGZpbGUubWFlPic=

>  <r_lp_tautomer_probability>  (36) 
1

>  <r_epik_Ionization_Penalty>  (36) 
5.84987e-05

>  <r_epik_Ionization_Penalty_Charging>  (36) 
0

>  <r_epik_Ionization_Penalty_Neutral>  (36) 
5.84987e-05

>  <r_epik_State_Penalty>  (36) 
-0

>  <r_epik_Charging_Adjusted_Penalty>  (36) 
0

>  <i_epik_Tot_Q>  (36) 
0

>  <i_epik_Tot_abs_Q>  (36) 
0

>  <s_epik_Chemistry_Notes>  (36) 
This compound has an ester and may undergo hydrolysis at high or low pH. This compound has an imine and may undergo hydrolysis.

>  <s_lp_Force_Field>  (36) 
OPLS3e

>  <r_lp_Energy>  (36) 
123.356

>  <b_lp_Chiralities_Consistent>  (36) 
0

>  <s_lp_Variant>  (36) 
5:0-4

>  <s_i_glide_gridfile>  (36) 
pfpi4k_grid

>  <i_i_glide_lignum>  (36) 
13

>  <i_i_glide_rotatable_bonds>  (36) 
1

>  <r_i_docking_score>  (36) 
-2.73675

>  <r_i_glide_ligand_efficiency>  (36) 
-0.0912249

>  <r_i_glide_ligand_efficiency_sa>  (36) 
-0.283457

>  <r_i_glide_ligand_efficiency_ln>  (36) 
-0.621819

>  <r_i_glide_gscore>  (36) 
-2.73675

>  <r_i_glide_lipo>  (36) 
-0.510247

>  <r_i_glide_hbond>  (36) 
-0.106517

>  <r_i_glide_metal>  (36) 
-0

>  <r_i_glide_rewards>  (36) 
-0.594783

>  <r_i_glide_evdw>  (36) 
-21.8533

>  <r_i_glide_ecoul>  (36) 
-3.18891

>  <r_i_glide_erotb>  (36) 
0.115394

>  <r_i_glide_esite>  (36) 
-0.0695925

>  <r_i_glide_emodel>  (36) 
-30.5057

>  <r_i_glide_energy>  (36) 
-25.0422

>  <r_i_glide_einternal>  (36) 
-0.00115446

>  <r_i_glide_intrahb_reward>  (36) 
-0

>  <i_i_glide_confnum>  (36) 
1

>  <i_i_glide_posenum>  (36) 
10

>  <r_i_glide_eff_state_penalty>  (36) 
0

>  <ligand_id>  (36) 
5

>  <original_smiles>  (36) 
CC1=CC23CC4(C)C(C=CC5C6COC(=O)C5(C6=NO)C2CC3F)C(C1=O)C4(C)C

>  <smiles>  (36) 
[H]ON=C1C2([H])C([H])([H])OC(=O)C13C2([H])C([H])=C([H])C1([H])C2([H])C(=O)C(C([H])([H])[H])=C([H])C4(C([H])([H])C1(C([H])([H])[H])C2(C([H])([H])[H])C([H])([H])[H])C([H])(F)C([H])([H])C34[H]

$$$$
5:4:0
     RDKit          3D

 58 63  0  0  1  0  0  0  0  0999 V2000
    0.6002   -2.5541    3.7031 C   0  0  0  0  0  0  0  0  0  0  0  0
    1.9498   -3.0511    3.2187 C   0  0  0  0  0  0  0  0  0  0  0  0
    2.9395   -2.1257    3.0427 C   0  0  0  0  0  0  0  0  0  0  0  0
    4.4409   -2.2228    2.7247 C   0  0  1  0  0  0  0  0  0  0  0  0
    5.2167   -3.0729    3.7874 C   0  0  0  0  0  0  0  0  0  0  0  0
    5.0713   -4.5948    3.8815 C   0  0  2  0  0  0  0  0  0  0  0  0
    6.4582   -5.2174    4.2637 C   0  0  0  0  0  0  0  0  0  0  0  0
    4.3935   -5.0914    2.6275 C   0  0  1  0  0  0  0  0  0  0  0  0
    5.1726   -6.0959    1.8651 C   0  0  0  0  0  0  0  0  0  0  0  0
    5.7554   -5.7481    0.7105 C   0  0  0  0  0  0  0  0  0  0  0  0
    5.7117   -4.4975   -0.2036 C   0  0  1  0  0  0  0  0  0  0  0  0
    4.6628   -4.8425   -1.2695 C   0  0  2  0  0  0  0  0  0  0  0  0
    4.8918   -4.2137   -2.6645 C   0  0  0  0  0  0  0  0  0  0  0  0
    5.3276   -2.8554   -2.5390 O   0  0  0  0  0  0  0  0  0  0  0  0
    5.4161   -2.1979   -1.3414 C   0  0  0  0  0  0  0  0  0  0  0  0
    5.8252   -1.0438   -1.3386 O   0  0  0  0  0  0  0  0  0  0  0  0
    5.0295   -3.0370   -0.0803 C   0  0  1  0  0  0  0  0  0  0  0  0
    3.8094   -3.8376   -0.5162 C   0  0  0  0  0  0  0  0  0  0  0  0
    2.6214   -3.7268   -0.2203 N   0  0  0  0  0  0  0  0  0  0  0  0
    1.7293   -4.6083   -0.9524 O   0  0  0  0  0  0  0  0  0  0  0  0
    4.7658   -2.0817    1.1480 C   0  0  2  0  0  0  0  0  0  0  0  0
    5.9055   -1.1475    1.5662 C   0  0  0  0  0  0  0  0  0  0  0  0
    5.0225   -0.7751    2.7362 C   0  0  2  0  0  0  0  0  0  0  0  0
    5.7488   -0.4282    3.7950 F   0  0  0  0  0  0  0  0  0  0  0  0
    3.1502   -5.4140    3.3948 C   0  0  2  0  0  0  0  0  0  0  0  0
    1.9909   -4.5408    3.0353 C   0  0  0  0  0  0  0  0  0  0  0  0
    1.0062   -5.1188    2.5429 O   0  0  0  0  0  0  0  0  0  0  0  0
    3.8853   -5.1640    4.7263 C   0  0  0  0  0  0  0  0  0  0  0  0
    4.1140   -6.4911    5.4732 C   0  0  0  0  0  0  0  0  0  0  0  0
    3.2873   -4.2445    5.8108 C   0  0  0  0  0  0  0  0  0  0  0  0
    0.2239   -3.1163    4.5561 H   0  0  0  0  0  0  0  0  0  0  0  0
   -0.1313   -2.8077    2.9617 H   0  0  0  0  0  0  0  0  0  0  0  0
    0.5827   -1.4710    3.8971 H   0  0  0  0  0  0  0  0  0  0  0  0
    2.6481   -1.0986    3.2425 H   0  0  0  0  0  0  0  0  0  0  0  0
    6.2145   -2.9742    3.4894 H   0  0  0  0  0  0  0  0  0  0  0  0
    5.1371   -2.6071    4.7783 H   0  0  0  0  0  0  0  0  0  0  0  0
    6.3846   -6.2951    4.4305 H   0  0  0  0  0  0  0  0  0  0  0  0
    6.8213   -4.8083    5.2017 H   0  0  0  0  0  0  0  0  0  0  0  0
    7.2841   -5.0634    3.5574 H   0  0  0  0  0  0  0  0  0  0  0  0
    4.1317   -4.3746    1.8892 H   0  0  0  0  0  0  0  0  0  0  0  0
    5.3571   -7.0670    2.3036 H   0  0  0  0  0  0  0  0  0  0  0  0
    6.2802   -6.5639    0.2329 H   0  0  0  0  0  0  0  0  0  0  0  0
    6.6901   -4.3870   -0.6569 H   0  0  0  0  0  0  0  0  0  0  0  0
    4.4786   -5.9270   -1.1318 H   0  0  0  0  0  0  0  0  0  0  0  0
    5.7050   -4.6579   -3.2048 H   0  0  0  0  0  0  0  0  0  0  0  0
    4.0171   -4.2507   -3.3274 H   0  0  0  0  0  0  0  0  0  0  0  0
    2.2768   -5.0126   -1.6160 H   0  0  0  0  0  0  0  0  0  0  0  0
    3.9648   -1.4382    0.7570 H   0  0  0  0  0  0  0  0  0  0  0  0
    6.8186   -1.6977    1.7918 H   0  0  0  0  0  0  0  0  0  0  0  0
    6.1054   -0.2991    0.9191 H   0  0  0  0  0  0  0  0  0  0  0  0
    4.3354    0.0340    2.4633 H   0  0  0  0  0  0  0  0  0  0  0  0
    2.9206   -6.4773    3.2953 H   0  0  0  0  0  0  0  0  0  0  0  0
    3.1862   -6.8785    5.9009 H   0  0  0  0  0  0  0  0  0  0  0  0
    4.8400   -6.3760    6.2819 H   0  0  0  0  0  0  0  0  0  0  0  0
    4.4901   -7.2620    4.7960 H   0  0  0  0  0  0  0  0  0  0  0  0
    2.3062   -4.5820    6.1501 H   0  0  0  0  0  0  0  0  0  0  0  0
    3.1614   -3.2152    5.4867 H   0  0  0  0  0  0  0  0  0  0  0  0
    3.9415   -4.1838    6.6811 H   0  0  0  0  0  0  0  0  0  0  0  0
  1  2  1  0
  1 31  1  0
  1 32  1  0
  1 33  1  0
  2 26  1  0
  2  3  2  3
  3  4  1  0
  3 34  1  0
  4 21  1  0
  4 23  1  0
  4  5  1  1
  5  6  1  0
  5 35  1  0
  5 36  1  0
  6 28  1  0
  6  7  1  1
  6  8  1  0
  7 37  1  0
  7 38  1  0
  7 39  1  0
  8  9  1  0
  8 25  1  0
  8 40  1  6
  9 10  2  3
  9 41  1  0
 10 11  1  0
 10 42  1  0
 11 17  1  0
 11 12  1  0
 11 43  1  6
 12 18  1  0
 12 13  1  0
 12 44  1  6
 13 14  1  0
 13 45  1  0
 13 46  1  0
 14 15  1  0
 15 16  2  0
 17 15  1  6
 17 18  1  0
 17 21  1  0
 18 19  2  3
 19 20  1  0
 20 47  1  0
 21 22  1  0
 21 48  1  6
 22 23  1  0
 22 49  1  0
 22 50  1  0
 23 24  1  0
 23 51  1  6
 25 26  1  0
 25 28  1  0
 25 52  1  1
 26 27  2  0
 28 29  1  0
 28 30  1  0
 29 53  1  0
 29 54  1  0
 29 55  1  0
 30 56  1  0
 30 57  1  0
 30 58  1  0
M  END
>  <i_m_ct_stereo_status>  (37) 
1

>  <s_m_source_file>  (37) 
/var/tmp/pbs.5076255.sched01/tmp9d3cgwpa/0mc_8ktg4.sdf

>  <i_m_source_file_index>  (37) 
14

>  <i_lp_mmshare_version>  (37) 
48012

>  <i_f3d_flags>  (37) 
0

>  <s_epik_input>  (37) 
W0NIM10vQyg9W0NIXS8xKUMoPU8pW0NAQEhdMkMoW0NIM10pKFtDSDNdKVtDQEBdKFtDSDJdMykoW0NIM10pW0NASF0yL1tDSF09W0NIXVxbQ0BASF0oW0NASF0oW0NIMl1PQzQ9TykvQzU9Ti9bT0hdKVtDQEBdNDVbQ0BASF0oW0NAQF0xMzYpW0NIMl1bQ0BASF02Rg==

>  <s_epik_cmdline>  (37) 
J2VwaWtfcHl0aG9uJywgJy1waHQnLCAnMi4wJywgJy1waCcsICc3LjAnLCAnLXRuJywgJzgnLCAnLW1hJywgJzIwMCcsICctaW1hZScsICc8aW5maWxlLm1hZT4nLCAnLW9tYWUnLCAnPG91dGZpbGUubWFlPic=

>  <r_lp_tautomer_probability>  (37) 
1

>  <r_epik_Ionization_Penalty>  (37) 
5.84987e-05

>  <r_epik_Ionization_Penalty_Charging>  (37) 
0

>  <r_epik_Ionization_Penalty_Neutral>  (37) 
5.84987e-05

>  <r_epik_State_Penalty>  (37) 
-0

>  <r_epik_Charging_Adjusted_Penalty>  (37) 
0

>  <i_epik_Tot_Q>  (37) 
0

>  <i_epik_Tot_abs_Q>  (37) 
0

>  <s_epik_Chemistry_Notes>  (37) 
This compound has an ester and may undergo hydrolysis at high or low pH. This compound has an imine and may undergo hydrolysis.

>  <s_lp_Force_Field>  (37) 
OPLS3e

>  <r_lp_Energy>  (37) 
121.76

>  <b_lp_Chiralities_Consistent>  (37) 
1

>  <s_lp_Variant>  (37) 
5:0-5

>  <s_i_glide_gridfile>  (37) 
pfpi4k_grid

>  <i_i_glide_lignum>  (37) 
14

>  <i_i_glide_rotatable_bonds>  (37) 
1

>  <r_i_docking_score>  (37) 
-3.58754

>  <r_i_glide_ligand_efficiency>  (37) 
-0.119585

>  <r_i_glide_ligand_efficiency_sa>  (37) 
-0.371578

>  <r_i_glide_ligand_efficiency_ln>  (37) 
-0.815129

>  <r_i_glide_gscore>  (37) 
-3.58754

>  <r_i_glide_lipo>  (37) 
-0.614677

>  <r_i_glide_hbond>  (37) 
-0.413599

>  <r_i_glide_metal>  (37) 
-0

>  <r_i_glide_rewards>  (37) 
-0.731635

>  <r_i_glide_evdw>  (37) 
-7.65493

>  <r_i_glide_ecoul>  (37) 
-9.36157

>  <r_i_glide_erotb>  (37) 
0.115394

>  <r_i_glide_esite>  (37) 
-0.156045

>  <r_i_glide_emodel>  (37) 
-20.2431

>  <r_i_glide_energy>  (37) 
-17.0165

>  <r_i_glide_einternal>  (37) 
-0.00561139

>  <r_i_glide_intrahb_reward>  (37) 
-0

>  <i_i_glide_confnum>  (37) 
1

>  <i_i_glide_posenum>  (37) 
17

>  <r_i_glide_eff_state_penalty>  (37) 
0

>  <ligand_id>  (37) 
5

>  <original_smiles>  (37) 
CC1=CC23CC4(C)C(C=CC5C6COC(=O)C5(C6=NO)C2CC3F)C(C1=O)C4(C)C

>  <smiles>  (37) 
[H]ON=C1C2([H])C([H])([H])OC(=O)C13C2([H])C([H])=C([H])C1([H])C2([H])C(=O)C(C([H])([H])[H])=C([H])C4(C([H])([H])C1(C([H])([H])[H])C2(C([H])([H])[H])C([H])([H])[H])C([H])(F)C([H])([H])C34[H]

$$$$
5:4:1
     RDKit          3D

 58 63  0  0  1  0  0  0  0  0999 V2000
    5.2936   -0.6731    4.4222 C   0  0  0  0  0  0  0  0  0  0  0  0
    4.9473   -1.8079    3.5129 C   0  0  0  0  0  0  0  0  0  0  0  0
    5.8935   -2.3314    2.7058 C   0  0  0  0  0  0  0  0  0  0  0  0
    6.1357   -3.5140    1.7379 C   0  0  1  0  0  0  0  0  0  0  0  0
    5.8485   -4.9390    2.3199 C   0  0  0  0  0  0  0  0  0  0  0  0
    4.4504   -5.3204    2.8104 C   0  0  2  0  0  0  0  0  0  0  0  0
    4.2969   -6.8442    2.5598 C   0  0  0  0  0  0  0  0  0  0  0  0
    3.4366   -4.3650    2.2055 C   0  0  1  0  0  0  0  0  0  0  0  0
    2.4300   -4.9831    1.3107 C   0  0  0  0  0  0  0  0  0  0  0  0
    2.4803   -4.8025   -0.0205 C   0  0  0  0  0  0  0  0  0  0  0  0
    3.3648   -3.9210   -0.9529 C   0  0  1  0  0  0  0  0  0  0  0  0
    2.5343   -2.6572   -1.2924 C   0  0  2  0  0  0  0  0  0  0  0  0
    2.7723   -2.1682   -2.7537 C   0  0  0  0  0  0  0  0  0  0  0  0
    4.1811   -2.1837   -3.0986 O   0  0  0  0  0  0  0  0  0  0  0  0
    5.1444   -2.6504   -2.2254 C   0  0  0  0  0  0  0  0  0  0  0  0
    6.2903   -2.7036   -2.6425 O   0  0  0  0  0  0  0  0  0  0  0  0
    4.6309   -2.9807   -0.7588 C   0  0  1  0  0  0  0  0  0  0  0  0
    3.5386   -1.9326   -0.3730 C   0  0  0  0  0  0  0  0  0  0  0  0
    3.5683   -1.0284    0.5448 N   0  0  0  0  0  0  0  0  0  0  0  0
    2.4076   -0.2316    0.6796 O   0  0  0  0  0  0  0  0  0  0  0  0
    5.8753   -3.0778    0.2113 C   0  0  2  0  0  0  0  0  0  0  0  0
    7.0936   -3.9551   -0.1527 C   0  0  0  0  0  0  0  0  0  0  0  0
    7.6151   -3.5688    1.2108 C   0  0  2  0  0  0  0  0  0  0  0  0
    8.4056   -4.5441    1.6566 F   0  0  0  0  0  0  0  0  0  0  0  0
    3.1404   -3.7350    3.5458 C   0  0  2  0  0  0  0  0  0  0  0  0
    3.5147   -2.2759    3.6748 C   0  0  0  0  0  0  0  0  0  0  0  0
    2.6496   -1.4257    3.8984 O   0  0  0  0  0  0  0  0  0  0  0  0
    3.9568   -4.8617    4.2332 C   0  0  0  0  0  0  0  0  0  0  0  0
    2.9682   -5.7964    4.9666 C   0  0  0  0  0  0  0  0  0  0  0  0
    5.0278   -4.5070    5.2818 C   0  0  0  0  0  0  0  0  0  0  0  0
    5.0121   -0.8979    5.4406 H   0  0  0  0  0  0  0  0  0  0  0  0
    4.8063    0.2496    4.1199 H   0  0  0  0  0  0  0  0  0  0  0  0
    6.3693   -0.4325    4.4746 H   0  0  0  0  0  0  0  0  0  0  0  0
    6.7333   -1.6582    2.5908 H   0  0  0  0  0  0  0  0  0  0  0  0
    6.1550   -5.7108    1.6214 H   0  0  0  0  0  0  0  0  0  0  0  0
    6.5450   -5.1236    3.1308 H   0  0  0  0  0  0  0  0  0  0  0  0
    3.2909   -7.2139    2.7745 H   0  0  0  0  0  0  0  0  0  0  0  0
    4.9900   -7.4127    3.1857 H   0  0  0  0  0  0  0  0  0  0  0  0
    4.4999   -7.1182    1.5164 H   0  0  0  0  0  0  0  0  0  0  0  0
    3.8049   -3.5927    1.5893 H   0  0  0  0  0  0  0  0  0  0  0  0
    1.7477   -5.6655    1.7690 H   0  0  0  0  0  0  0  0  0  0  0  0
    1.7115   -5.3208   -0.5649 H   0  0  0  0  0  0  0  0  0  0  0  0
    3.6298   -4.5665   -1.7998 H   0  0  0  0  0  0  0  0  0  0  0  0
    1.4695   -2.7792   -1.0000 H   0  0  0  0  0  0  0  0  0  0  0  0
    2.2010   -2.8058   -3.4387 H   0  0  0  0  0  0  0  0  0  0  0  0
    2.3659   -1.1624   -2.8733 H   0  0  0  0  0  0  0  0  0  0  0  0
    1.8211   -0.5866    0.0175 H   0  0  0  0  0  0  0  0  0  0  0  0
    6.1970   -2.0338    0.1608 H   0  0  0  0  0  0  0  0  0  0  0  0
    6.8934   -5.0146   -0.3148 H   0  0  0  0  0  0  0  0  0  0  0  0
    7.7563   -3.5929   -0.9411 H   0  0  0  0  0  0  0  0  0  0  0  0
    8.1576   -2.6211    1.1833 H   0  0  0  0  0  0  0  0  0  0  0  0
    2.0690   -3.8212    3.7433 H   0  0  0  0  0  0  0  0  0  0  0  0
    2.5632   -5.3090    5.8623 H   0  0  0  0  0  0  0  0  0  0  0  0
    3.4624   -6.7159    5.2762 H   0  0  0  0  0  0  0  0  0  0  0  0
    2.1183   -6.0565    4.3337 H   0  0  0  0  0  0  0  0  0  0  0  0
    4.6032   -3.9492    6.1197 H   0  0  0  0  0  0  0  0  0  0  0  0
    5.8531   -3.9231    4.8784 H   0  0  0  0  0  0  0  0  0  0  0  0
    5.4597   -5.4240    5.6918 H   0  0  0  0  0  0  0  0  0  0  0  0
  1  2  1  0
  1 31  1  0
  1 32  1  0
  1 33  1  0
  2 26  1  0
  2  3  2  3
  3  4  1  0
  3 34  1  0
  4 21  1  0
  4 23  1  0
  4  5  1  1
  5  6  1  0
  5 35  1  0
  5 36  1  0
  6 28  1  0
  6  7  1  6
  6  8  1  0
  7 37  1  0
  7 38  1  0
  7 39  1  0
  8  9  1  0
  8 25  1  0
  8 40  1  6
  9 10  2  3
  9 41  1  0
 10 11  1  0
 10 42  1  0
 11 17  1  0
 11 12  1  0
 11 43  1  6
 12 18  1  0
 12 13  1  0
 12 44  1  1
 13 14  1  0
 13 45  1  0
 13 46  1  0
 14 15  1  0
 15 16  2  0
 17 15  1  6
 17 18  1  0
 17 21  1  0
 18 19  2  3
 19 20  1  0
 20 47  1  0
 21 22  1  0
 21 48  1  1
 22 23  1  0
 22 49  1  0
 22 50  1  0
 23 24  1  0
 23 51  1  6
 25 26  1  0
 25 28  1  0
 25 52  1  1
 26 27  2  0
 28 29  1  0
 28 30  1  0
 29 53  1  0
 29 54  1  0
 29 55  1  0
 30 56  1  0
 30 57  1  0
 30 58  1  0
M  END
>  <i_m_ct_stereo_status>  (38) 
1

>  <s_m_source_file>  (38) 
/var/tmp/pbs.5076255.sched01/tmp9d3cgwpa/0mc_8ktg4.sdf

>  <i_m_source_file_index>  (38) 
14

>  <i_lp_mmshare_version>  (38) 
48012

>  <i_f3d_flags>  (38) 
0

>  <s_epik_input>  (38) 
W0NIM10vQyg9W0NIXS8xKUMoPU8pW0NAQEhdMkMoW0NIM10pKFtDSDNdKVtDQEBdKFtDSDJdMykoW0NIM10pW0NASF0yL1tDSF09W0NIXVxbQ0BASF0oW0NASF0oW0NIMl1PQzQ9TykvQzU9Ti9bT0hdKVtDQEBdNDVbQ0BASF0oW0NAQF0xMzYpW0NIMl1bQ0BASF02Rg==

>  <s_epik_cmdline>  (38) 
J2VwaWtfcHl0aG9uJywgJy1waHQnLCAnMi4wJywgJy1waCcsICc3LjAnLCAnLXRuJywgJzgnLCAnLW1hJywgJzIwMCcsICctaW1hZScsICc8aW5maWxlLm1hZT4nLCAnLW9tYWUnLCAnPG91dGZpbGUubWFlPic=

>  <r_lp_tautomer_probability>  (38) 
1

>  <r_epik_Ionization_Penalty>  (38) 
5.84987e-05

>  <r_epik_Ionization_Penalty_Charging>  (38) 
0

>  <r_epik_Ionization_Penalty_Neutral>  (38) 
5.84987e-05

>  <r_epik_State_Penalty>  (38) 
-0

>  <r_epik_Charging_Adjusted_Penalty>  (38) 
0

>  <i_epik_Tot_Q>  (38) 
0

>  <i_epik_Tot_abs_Q>  (38) 
0

>  <s_epik_Chemistry_Notes>  (38) 
This compound has an ester and may undergo hydrolysis at high or low pH. This compound has an imine and may undergo hydrolysis.

>  <s_lp_Force_Field>  (38) 
OPLS3e

>  <r_lp_Energy>  (38) 
121.76

>  <b_lp_Chiralities_Consistent>  (38) 
1

>  <s_lp_Variant>  (38) 
5:0-5

>  <s_i_glide_gridfile>  (38) 
pfpi4k_grid

>  <i_i_glide_lignum>  (38) 
14

>  <i_i_glide_rotatable_bonds>  (38) 
1

>  <r_i_docking_score>  (38) 
-1.86385

>  <r_i_glide_ligand_efficiency>  (38) 
-0.0621284

>  <r_i_glide_ligand_efficiency_sa>  (38) 
-0.193047

>  <r_i_glide_ligand_efficiency_ln>  (38) 
-0.423488

>  <r_i_glide_gscore>  (38) 
-1.86385

>  <r_i_glide_lipo>  (38) 
-0.455996

>  <r_i_glide_hbond>  (38) 
0

>  <r_i_glide_metal>  (38) 
-0

>  <r_i_glide_rewards>  (38) 
-0.765662

>  <r_i_glide_evdw>  (38) 
7.4838

>  <r_i_glide_ecoul>  (38) 
-7.80938

>  <r_i_glide_erotb>  (38) 
0.115394

>  <r_i_glide_esite>  (38) 
-0.176906

>  <r_i_glide_emodel>  (38) 
1.63668

>  <r_i_glide_energy>  (38) 
-0.325572

>  <r_i_glide_einternal>  (38) 
-0.00623094

>  <r_i_glide_intrahb_reward>  (38) 
-0

>  <i_i_glide_confnum>  (38) 
2

>  <i_i_glide_posenum>  (38) 
30

>  <r_i_glide_eff_state_penalty>  (38) 
0

>  <ligand_id>  (38) 
5

>  <original_smiles>  (38) 
CC1=CC23CC4(C)C(C=CC5C6COC(=O)C5(C6=NO)C2CC3F)C(C1=O)C4(C)C

>  <smiles>  (38) 
[H]ON=C1C2([H])C([H])([H])OC(=O)C13C2([H])C([H])=C([H])C1([H])C2([H])C(=O)C(C([H])([H])[H])=C([H])C4(C([H])([H])C1(C([H])([H])[H])C2(C([H])([H])[H])C([H])([H])[H])C([H])(F)C([H])([H])C34[H]

$$$$
5:5:0
     RDKit          3D

 58 63  0  0  1  0  0  0  0  0999 V2000
    4.5046   -2.6232    6.0167 C   0  0  0  0  0  0  0  0  0  0  0  0
    4.8793   -3.2995    4.7066 C   0  0  0  0  0  0  0  0  0  0  0  0
    4.6444   -2.6884    3.5309 C   0  0  0  0  0  0  0  0  0  0  0  0
    3.2216   -2.6554    2.9236 C   0  0  2  0  0  0  0  0  0  0  0  0
    2.2682   -3.6821    3.6302 C   0  0  0  0  0  0  0  0  0  0  0  0
    2.5725   -5.2026    3.3985 C   0  0  1  0  0  0  0  0  0  0  0  0
    1.3120   -5.7813    2.7383 C   0  0  0  0  0  0  0  0  0  0  0  0
    3.9264   -5.4818    2.7125 C   0  0  2  0  0  0  0  0  0  0  0  0
    3.9405   -6.2896    1.4436 C   0  0  0  0  0  0  0  0  0  0  0  0
    4.3112   -5.7361    0.2543 C   0  0  0  0  0  0  0  0  0  0  0  0
    5.0047   -4.3615    0.0508 C   0  0  1  0  0  0  0  0  0  0  0  0
    5.1505   -3.9468   -1.4319 C   0  0  2  0  0  0  0  0  0  0  0  0
    6.2628   -2.9259   -1.7049 C   0  0  0  0  0  0  0  0  0  0  0  0
    6.2414   -1.8561   -0.7447 O   0  0  0  0  0  0  0  0  0  0  0  0
    5.3169   -1.7796    0.2755 C   0  0  0  0  0  0  0  0  0  0  0  0
    5.3388   -0.8389    1.0647 O   0  0  0  0  0  0  0  0  0  0  0  0
    4.3075   -2.9487    0.3337 C   0  0  1  0  0  0  0  0  0  0  0  0
    3.8803   -3.2175   -1.1079 C   0  0  0  0  0  0  0  0  0  0  0  0
    2.8368   -3.0197   -1.7712 N   0  0  0  0  0  0  0  0  0  0  0  0
    3.0572   -3.4345   -3.1235 O   0  0  0  0  0  0  0  0  0  0  0  0
    3.1139   -2.7275    1.3410 C   0  0  2  0  0  0  0  0  0  0  0  0
    2.3296   -1.3953    1.3907 C   0  0  0  0  0  0  0  0  0  0  0  0
    2.7590   -1.1973    2.8396 C   0  0  1  0  0  0  0  0  0  0  0  0
    1.7537   -0.9363    3.6712 F   0  0  0  0  0  0  0  0  0  0  0  0
    4.5754   -5.8313    4.0623 C   0  0  1  0  0  0  0  0  0  0  0  0
    5.3797   -4.7063    4.7766 C   0  0  0  0  0  0  0  0  0  0  0  0
    6.3628   -4.9391    5.4780 O   0  0  0  0  0  0  0  0  0  0  0  0
    3.1309   -6.0976    4.5841 C   0  0  0  0  0  0  0  0  0  0  0  0
    2.7290   -5.7231    6.0285 C   0  0  0  0  0  0  0  0  0  0  0  0
    2.8146   -7.6029    4.5523 C   0  0  0  0  0  0  0  0  0  0  0  0
    5.3056   -1.9438    6.3153 H   0  0  0  0  0  0  0  0  0  0  0  0
    4.3841   -3.3494    6.8164 H   0  0  0  0  0  0  0  0  0  0  0  0
    3.5929   -2.0374    5.8982 H   0  0  0  0  0  0  0  0  0  0  0  0
    5.3066   -3.0063    2.7438 H   0  0  0  0  0  0  0  0  0  0  0  0
    2.2146   -3.4476    4.6846 H   0  0  0  0  0  0  0  0  0  0  0  0
    1.2438   -3.4703    3.3190 H   0  0  0  0  0  0  0  0  0  0  0  0
    1.4270   -6.8270    2.4578 H   0  0  0  0  0  0  0  0  0  0  0  0
    1.0550   -5.2481    1.8281 H   0  0  0  0  0  0  0  0  0  0  0  0
    0.4620   -5.7283    3.4204 H   0  0  0  0  0  0  0  0  0  0  0  0
    4.4686   -4.6794    2.3307 H   0  0  0  0  0  0  0  0  0  0  0  0
    3.6043   -7.3092    1.4875 H   0  0  0  0  0  0  0  0  0  0  0  0
    4.2501   -6.3659   -0.6213 H   0  0  0  0  0  0  0  0  0  0  0  0
    5.9830   -4.3904    0.5353 H   0  0  0  0  0  0  0  0  0  0  0  0
    5.0742   -4.7656   -2.1622 H   0  0  0  0  0  0  0  0  0  0  0  0
    7.2392   -3.4123   -1.6539 H   0  0  0  0  0  0  0  0  0  0  0  0
    6.1721   -2.4844   -2.6984 H   0  0  0  0  0  0  0  0  0  0  0  0
    2.9437   -4.3814   -3.0435 H   0  0  0  0  0  0  0  0  0  0  0  0
    2.3640   -3.4708    1.0712 H   0  0  0  0  0  0  0  0  0  0  0  0
    2.6697   -0.6085    0.7191 H   0  0  0  0  0  0  0  0  0  0  0  0
    1.2501   -1.5392    1.3168 H   0  0  0  0  0  0  0  0  0  0  0  0
    3.5754   -0.4738    2.9540 H   0  0  0  0  0  0  0  0  0  0  0  0
    5.1331   -6.7691    4.0011 H   0  0  0  0  0  0  0  0  0  0  0  0
    1.6918   -5.9941    6.2335 H   0  0  0  0  0  0  0  0  0  0  0  0
    2.7973   -4.6638    6.2403 H   0  0  0  0  0  0  0  0  0  0  0  0
    3.3516   -6.2234    6.7747 H   0  0  0  0  0  0  0  0  0  0  0  0
    3.3808   -8.1469    5.3144 H   0  0  0  0  0  0  0  0  0  0  0  0
    3.0822   -8.0487    3.5914 H   0  0  0  0  0  0  0  0  0  0  0  0
    1.7550   -7.8009    4.7270 H   0  0  0  0  0  0  0  0  0  0  0  0
  1  2  1  0
  1 31  1  0
  1 32  1  0
  1 33  1  0
  2 26  1  0
  2  3  2  3
  3  4  1  0
  3 34  1  0
  4 21  1  0
  4 23  1  0
  4  5  1  1
  5  6  1  0
  5 35  1  0
  5 36  1  0
  6 28  1  0
  6  7  1  6
  6  8  1  0
  7 37  1  0
  7 38  1  0
  7 39  1  0
  8  9  1  0
  8 25  1  0
  8 40  1  6
  9 10  2  3
  9 41  1  0
 10 11  1  0
 10 42  1  0
 11 17  1  0
 11 12  1  0
 11 43  1  1
 12 18  1  0
 12 13  1  0
 12 44  1  6
 13 14  1  0
 13 45  1  0
 13 46  1  0
 14 15  1  0
 15 16  2  0
 17 15  1  6
 17 18  1  0
 17 21  1  0
 18 19  2  3
 19 20  1  0
 20 47  1  0
 21 22  1  0
 21 48  1  1
 22 23  1  0
 22 49  1  0
 22 50  1  0
 23 24  1  0
 23 51  1  6
 25 26  1  0
 25 28  1  0
 25 52  1  6
 26 27  2  0
 28 29  1  0
 28 30  1  0
 29 53  1  0
 29 54  1  0
 29 55  1  0
 30 56  1  0
 30 57  1  0
 30 58  1  0
M  END
>  <i_m_ct_stereo_status>  (39) 
1

>  <s_m_source_file>  (39) 
/var/tmp/pbs.5076255.sched01/tmp9d3cgwpa/0mc_8ktg4.sdf

>  <i_m_source_file_index>  (39) 
15

>  <i_lp_mmshare_version>  (39) 
48012

>  <i_f3d_flags>  (39) 
2

>  <s_epik_input>  (39) 
W0NIM10vQyg9W0NIXS8xKUMoPU8pW0NAQEhdMkMoW0NIM10pKFtDSDNdKVtDQEBdKFtDSDJdMykoW0NIM10pW0NASF0yL1tDSF09W0NIXVxbQ0BASF0oW0NASF0oW0NIMl1PQzQ9TykvQzU9Ti9bT0hdKVtDQEBdNDVbQ0BASF0oW0NAQF0xMzYpW0NIMl1bQ0BASF02Rg==

>  <s_epik_cmdline>  (39) 
J2VwaWtfcHl0aG9uJywgJy1waHQnLCAnMi4wJywgJy1waCcsICc3LjAnLCAnLXRuJywgJzgnLCAnLW1hJywgJzIwMCcsICctaW1hZScsICc8aW5maWxlLm1hZT4nLCAnLW9tYWUnLCAnPG91dGZpbGUubWFlPic=

>  <r_lp_tautomer_probability>  (39) 
1

>  <r_epik_Ionization_Penalty>  (39) 
5.84987e-05

>  <r_epik_Ionization_Penalty_Charging>  (39) 
0

>  <r_epik_Ionization_Penalty_Neutral>  (39) 
5.84987e-05

>  <r_epik_State_Penalty>  (39) 
-0

>  <r_epik_Charging_Adjusted_Penalty>  (39) 
0

>  <i_epik_Tot_Q>  (39) 
0

>  <i_epik_Tot_abs_Q>  (39) 
0

>  <s_epik_Chemistry_Notes>  (39) 
This compound has an ester and may undergo hydrolysis at high or low pH. This compound has an imine and may undergo hydrolysis.

>  <s_lp_Force_Field>  (39) 
OPLS3e

>  <r_lp_Energy>  (39) 
131.15

>  <b_lp_Chiralities_Consistent>  (39) 
0

>  <s_lp_Variant>  (39) 
5:0-6

>  <s_i_glide_gridfile>  (39) 
pfpi4k_grid

>  <i_i_glide_lignum>  (39) 
15

>  <i_i_glide_rotatable_bonds>  (39) 
1

>  <r_i_docking_score>  (39) 
-3.16009

>  <r_i_glide_ligand_efficiency>  (39) 
-0.105336

>  <r_i_glide_ligand_efficiency_sa>  (39) 
-0.327304

>  <r_i_glide_ligand_efficiency_ln>  (39) 
-0.718006

>  <r_i_glide_gscore>  (39) 
-3.16009

>  <r_i_glide_lipo>  (39) 
-0.262556

>  <r_i_glide_hbond>  (39) 
-0.412912

>  <r_i_glide_metal>  (39) 
-0

>  <r_i_glide_rewards>  (39) 
-0.64553

>  <r_i_glide_evdw>  (39) 
-22.5871

>  <r_i_glide_ecoul>  (39) 
-5.47219

>  <r_i_glide_erotb>  (39) 
0.115394

>  <r_i_glide_esite>  (39) 
-0.00429976

>  <r_i_glide_emodel>  (39) 
-32.94

>  <r_i_glide_energy>  (39) 
-28.0593

>  <r_i_glide_einternal>  (39) 
-0.00275425

>  <r_i_glide_intrahb_reward>  (39) 
-0

>  <i_i_glide_confnum>  (39) 
1

>  <i_i_glide_posenum>  (39) 
1

>  <r_i_glide_eff_state_penalty>  (39) 
0

>  <ligand_id>  (39) 
5

>  <original_smiles>  (39) 
CC1=CC23CC4(C)C(C=CC5C6COC(=O)C5(C6=NO)C2CC3F)C(C1=O)C4(C)C

>  <smiles>  (39) 
[H]ON=C1C2([H])C([H])([H])OC(=O)C13C2([H])C([H])=C([H])C1([H])C2([H])C(=O)C(C([H])([H])[H])=C([H])C4(C([H])([H])C1(C([H])([H])[H])C2(C([H])([H])[H])C([H])([H])[H])C([H])(F)C([H])([H])C34[H]

$$$$
5:5:1
     RDKit          3D

 58 63  0  0  1  0  0  0  0  0999 V2000
    7.8997   -4.6013    0.1460 C   0  0  0  0  0  0  0  0  0  0  0  0
    6.9930   -3.5917    0.8324 C   0  0  0  0  0  0  0  0  0  0  0  0
    6.1377   -3.9891    1.7982 C   0  0  0  0  0  0  0  0  0  0  0  0
    4.8021   -4.6787    1.4553 C   0  0  2  0  0  0  0  0  0  0  0  0
    4.4525   -4.5472   -0.0633 C   0  0  0  0  0  0  0  0  0  0  0  0
    4.0799   -3.1105   -0.5662 C   0  0  1  0  0  0  0  0  0  0  0  0
    2.6494   -3.2300   -1.1136 C   0  0  0  0  0  0  0  0  0  0  0  0
    4.3712   -1.9872    0.4475 C   0  0  2  0  0  0  0  0  0  0  0  0
    3.2509   -1.0652    0.8578 C   0  0  0  0  0  0  0  0  0  0  0  0
    2.7551   -1.0526    2.1187 C   0  0  0  0  0  0  0  0  0  0  0  0
    3.4018   -1.7110    3.3744 C   0  0  1  0  0  0  0  0  0  0  0  0
    2.5202   -1.6740    4.6417 C   0  0  2  0  0  0  0  0  0  0  0  0
    3.3017   -1.7997    5.9416 C   0  0  0  0  0  0  0  0  0  0  0  0
    4.2762   -2.8492    5.8711 O   0  0  0  0  0  0  0  0  0  0  0  0
    4.4483   -3.6608    4.7751 C   0  0  0  0  0  0  0  0  0  0  0  0
    5.2921   -4.5455    4.7732 O   0  0  0  0  0  0  0  0  0  0  0  0
    3.5400   -3.2943    3.5727 C   0  0  1  0  0  0  0  0  0  0  0  0
    2.1476   -3.0350    4.1462 C   0  0  0  0  0  0  0  0  0  0  0  0
    1.0487   -3.6691    4.1397 N   0  0  0  0  0  0  0  0  0  0  0  0
    0.0789   -2.9830    4.9298 O   0  0  0  0  0  0  0  0  0  0  0  0
    3.5694   -4.3595    2.4001 C   0  0  2  0  0  0  0  0  0  0  0  0
    3.4552   -5.8781    2.6850 C   0  0  0  0  0  0  0  0  0  0  0  0
    4.8348   -6.0951    2.0635 C   0  0  1  0  0  0  0  0  0  0  0  0
    4.8861   -7.0537    1.1390 F   0  0  0  0  0  0  0  0  0  0  0  0
    5.6647   -1.6151   -0.2789 C   0  0  1  0  0  0  0  0  0  0  0  0
    6.9857   -2.2088    0.2751 C   0  0  0  0  0  0  0  0  0  0  0  0
    8.0531   -1.5990    0.2010 O   0  0  0  0  0  0  0  0  0  0  0  0
    5.0508   -2.3171   -1.5297 C   0  0  0  0  0  0  0  0  0  0  0  0
    5.9351   -3.1492   -2.4778 C   0  0  0  0  0  0  0  0  0  0  0  0
    4.4215   -1.2963   -2.4853 C   0  0  0  0  0  0  0  0  0  0  0  0
    8.7947   -4.7492    0.7542 H   0  0  0  0  0  0  0  0  0  0  0  0
    8.2291   -4.2432   -0.8363 H   0  0  0  0  0  0  0  0  0  0  0  0
    7.3981   -5.5649    0.0763 H   0  0  0  0  0  0  0  0  0  0  0  0
    5.9092   -3.1969    2.4873 H   0  0  0  0  0  0  0  0  0  0  0  0
    5.2461   -4.9944   -0.6454 H   0  0  0  0  0  0  0  0  0  0  0  0
    3.6405   -5.2398   -0.2846 H   0  0  0  0  0  0  0  0  0  0  0  0
    2.2493   -2.2755   -1.4505 H   0  0  0  0  0  0  0  0  0  0  0  0
    1.9568   -3.6311   -0.3708 H   0  0  0  0  0  0  0  0  0  0  0  0
    2.6283   -3.8706   -1.9924 H   0  0  0  0  0  0  0  0  0  0  0  0
    4.6523   -2.2444    1.4156 H   0  0  0  0  0  0  0  0  0  0  0  0
    2.7774   -0.4708    0.0888 H   0  0  0  0  0  0  0  0  0  0  0  0
    1.9017   -0.4150    2.3093 H   0  0  0  0  0  0  0  0  0  0  0  0
    4.3739   -1.2319    3.5423 H   0  0  0  0  0  0  0  0  0  0  0  0
    1.7583   -0.8898    4.6290 H   0  0  0  0  0  0  0  0  0  0  0  0
    3.8261   -0.8699    6.1768 H   0  0  0  0  0  0  0  0  0  0  0  0
    2.6449   -2.0046    6.7859 H   0  0  0  0  0  0  0  0  0  0  0  0
    0.2135   -2.0919    4.6359 H   0  0  0  0  0  0  0  0  0  0  0  0
    2.7020   -4.1317    1.7737 H   0  0  0  0  0  0  0  0  0  0  0  0
    3.3991   -6.1771    3.7299 H   0  0  0  0  0  0  0  0  0  0  0  0
    2.6806   -6.3656    2.0893 H   0  0  0  0  0  0  0  0  0  0  0  0
    5.6323   -6.2313    2.8106 H   0  0  0  0  0  0  0  0  0  0  0  0
    5.7268   -0.5350   -0.4398 H   0  0  0  0  0  0  0  0  0  0  0  0
    5.3639   -3.5704   -3.3104 H   0  0  0  0  0  0  0  0  0  0  0  0
    6.3947   -3.9829   -1.9705 H   0  0  0  0  0  0  0  0  0  0  0  0
    6.7842   -2.6117   -2.8958 H   0  0  0  0  0  0  0  0  0  0  0  0
    5.1752   -0.6762   -2.9701 H   0  0  0  0  0  0  0  0  0  0  0  0
    3.7611   -0.6008   -1.9530 H   0  0  0  0  0  0  0  0  0  0  0  0
    3.8347   -1.7774   -3.2712 H   0  0  0  0  0  0  0  0  0  0  0  0
  1  2  1  0
  1 31  1  0
  1 32  1  0
  1 33  1  0
  2 26  1  0
  2  3  2  3
  3  4  1  0
  3 34  1  0
  4 21  1  0
  4 23  1  0
  4  5  1  6
  5  6  1  0
  5 35  1  0
  5 36  1  0
  6 28  1  0
  6  7  1  6
  6  8  1  0
  7 37  1  0
  7 38  1  0
  7 39  1  0
  8  9  1  0
  8 25  1  0
  8 40  1  1
  9 10  2  3
  9 41  1  0
 10 11  1  0
 10 42  1  0
 11 17  1  0
 11 12  1  0
 11 43  1  1
 12 18  1  0
 12 13  1  0
 12 44  1  1
 13 14  1  0
 13 45  1  0
 13 46  1  0
 14 15  1  0
 15 16  2  0
 17 15  1  1
 17 18  1  0
 17 21  1  0
 18 19  2  3
 19 20  1  0
 20 47  1  0
 21 22  1  0
 21 48  1  6
 22 23  1  0
 22 49  1  0
 22 50  1  0
 23 24  1  0
 23 51  1  1
 25 26  1  0
 25 28  1  0
 25 52  1  6
 26 27  2  0
 28 29  1  0
 28 30  1  0
 29 53  1  0
 29 54  1  0
 29 55  1  0
 30 56  1  0
 30 57  1  0
 30 58  1  0
M  END
>  <i_m_ct_stereo_status>  (40) 
1

>  <s_m_source_file>  (40) 
/var/tmp/pbs.5076255.sched01/tmp9d3cgwpa/0mc_8ktg4.sdf

>  <i_m_source_file_index>  (40) 
15

>  <i_lp_mmshare_version>  (40) 
48012

>  <i_f3d_flags>  (40) 
2

>  <s_epik_input>  (40) 
W0NIM10vQyg9W0NIXS8xKUMoPU8pW0NAQEhdMkMoW0NIM10pKFtDSDNdKVtDQEBdKFtDSDJdMykoW0NIM10pW0NASF0yL1tDSF09W0NIXVxbQ0BASF0oW0NASF0oW0NIMl1PQzQ9TykvQzU9Ti9bT0hdKVtDQEBdNDVbQ0BASF0oW0NAQF0xMzYpW0NIMl1bQ0BASF02Rg==

>  <s_epik_cmdline>  (40) 
J2VwaWtfcHl0aG9uJywgJy1waHQnLCAnMi4wJywgJy1waCcsICc3LjAnLCAnLXRuJywgJzgnLCAnLW1hJywgJzIwMCcsICctaW1hZScsICc8aW5maWxlLm1hZT4nLCAnLW9tYWUnLCAnPG91dGZpbGUubWFlPic=

>  <r_lp_tautomer_probability>  (40) 
1

>  <r_epik_Ionization_Penalty>  (40) 
5.84987e-05

>  <r_epik_Ionization_Penalty_Charging>  (40) 
0

>  <r_epik_Ionization_Penalty_Neutral>  (40) 
5.84987e-05

>  <r_epik_State_Penalty>  (40) 
-0

>  <r_epik_Charging_Adjusted_Penalty>  (40) 
0

>  <i_epik_Tot_Q>  (40) 
0

>  <i_epik_Tot_abs_Q>  (40) 
0

>  <s_epik_Chemistry_Notes>  (40) 
This compound has an ester and may undergo hydrolysis at high or low pH. This compound has an imine and may undergo hydrolysis.

>  <s_lp_Force_Field>  (40) 
OPLS3e

>  <r_lp_Energy>  (40) 
131.15

>  <b_lp_Chiralities_Consistent>  (40) 
0

>  <s_lp_Variant>  (40) 
5:0-6

>  <s_i_glide_gridfile>  (40) 
pfpi4k_grid

>  <i_i_glide_lignum>  (40) 
15

>  <i_i_glide_rotatable_bonds>  (40) 
1

>  <r_i_docking_score>  (40) 
-2.69876

>  <r_i_glide_ligand_efficiency>  (40) 
-0.0899588

>  <r_i_glide_ligand_efficiency_sa>  (40) 
-0.279523

>  <r_i_glide_ligand_efficiency_ln>  (40) 
-0.613189

>  <r_i_glide_gscore>  (40) 
-2.69876

>  <r_i_glide_lipo>  (40) 
-0.581917

>  <r_i_glide_hbond>  (40) 
-0.0667816

>  <r_i_glide_metal>  (40) 
-0

>  <r_i_glide_rewards>  (40) 
-0.793145

>  <r_i_glide_evdw>  (40) 
-21.4154

>  <r_i_glide_ecoul>  (40) 
-2.01031

>  <r_i_glide_erotb>  (40) 
0.115394

>  <r_i_glide_esite>  (40) 
0

>  <r_i_glide_emodel>  (40) 
-27.443

>  <r_i_glide_energy>  (40) 
-23.4257

>  <r_i_glide_einternal>  (40) 
-0.00461559

>  <r_i_glide_intrahb_reward>  (40) 
-0

>  <i_i_glide_confnum>  (40) 
1

>  <i_i_glide_posenum>  (40) 
21

>  <r_i_glide_eff_state_penalty>  (40) 
0

>  <ligand_id>  (40) 
5

>  <original_smiles>  (40) 
CC1=CC23CC4(C)C(C=CC5C6COC(=O)C5(C6=NO)C2CC3F)C(C1=O)C4(C)C

>  <smiles>  (40) 
[H]ON=C1C2([H])C([H])([H])OC(=O)C13C2([H])C([H])=C([H])C1([H])C2([H])C(=O)C(C([H])([H])[H])=C([H])C4(C([H])([H])C1(C([H])([H])[H])C2(C([H])([H])[H])C([H])([H])[H])C([H])(F)C([H])([H])C34[H]

$$$$
5:5:2
     RDKit          3D

 58 63  0  0  1  0  0  0  0  0999 V2000
    7.9466   -4.4907    0.0903 C   0  0  0  0  0  0  0  0  0  0  0  0
    6.9537   -3.6611    0.8751 C   0  0  0  0  0  0  0  0  0  0  0  0
    6.1900   -4.2336    1.8284 C   0  0  0  0  0  0  0  0  0  0  0  0
    4.9247   -5.0450    1.4547 C   0  0  2  0  0  0  0  0  0  0  0  0
    4.5136   -4.8068   -0.0327 C   0  0  0  0  0  0  0  0  0  0  0  0
    3.9682   -3.3806   -0.3759 C   0  0  1  0  0  0  0  0  0  0  0  0
    2.5380   -3.6079   -0.8862 C   0  0  0  0  0  0  0  0  0  0  0  0
    4.1639   -2.3308    0.7397 C   0  0  2  0  0  0  0  0  0  0  0  0
    2.9656   -1.5891    1.2637 C   0  0  0  0  0  0  0  0  0  0  0  0
    2.5115   -1.7723    2.5403 C   0  0  0  0  0  0  0  0  0  0  0  0
    3.2736   -2.4736    3.6967 C   0  0  1  0  0  0  0  0  0  0  0  0
    2.4496   -2.6387    4.9924 C   0  0  2  0  0  0  0  0  0  0  0  0
    3.2909   -2.8137    6.2523 C   0  0  0  0  0  0  0  0  0  0  0  0
    4.3650   -3.7449    6.0415 O   0  0  0  0  0  0  0  0  0  0  0  0
    4.5753   -4.4029    4.8540 C   0  0  0  0  0  0  0  0  0  0  0  0
    5.5147   -5.1872    4.7360 O   0  0  0  0  0  0  0  0  0  0  0  0
    3.5930   -4.0394    3.7371 C   0  0  1  0  0  0  0  0  0  0  0  0
    2.2163   -3.9959    4.3886 C   0  0  0  0  0  0  0  0  0  0  0  0
    1.2071   -4.7544    4.3921 N   0  0  0  0  0  0  0  0  0  0  0  0
    0.1525   -4.1977    5.1704 O   0  0  0  0  0  0  0  0  0  0  0  0
    3.7021   -4.9700    2.4597 C   0  0  2  0  0  0  0  0  0  0  0  0
    3.7654   -6.5093    2.5824 C   0  0  0  0  0  0  0  0  0  0  0  0
    5.1393   -6.4981    1.9156 C   0  0  1  0  0  0  0  0  0  0  0  0
    5.2433   -7.3455    0.8898 F   0  0  0  0  0  0  0  0  0  0  0  0
    5.3829   -1.7434    0.0139 C   0  0  1  0  0  0  0  0  0  0  0  0
    6.7814   -2.2327    0.4726 C   0  0  0  0  0  0  0  0  0  0  0  0
    7.7756   -1.5017    0.4309 O   0  0  0  0  0  0  0  0  0  0  0  0
    4.8109   -2.3923   -1.2793 C   0  0  0  0  0  0  0  0  0  0  0  0
    5.7542   -3.0094   -2.3312 C   0  0  0  0  0  0  0  0  0  0  0  0
    4.0467   -1.3497   -2.1137 C   0  0  0  0  0  0  0  0  0  0  0  0
    8.8878   -4.5868    0.6349 H   0  0  0  0  0  0  0  0  0  0  0  0
    8.1790   -4.0368   -0.8761 H   0  0  0  0  0  0  0  0  0  0  0  0
    7.5501   -5.5029   -0.0162 H   0  0  0  0  0  0  0  0  0  0  0  0
    5.8995   -3.5482    2.6006 H   0  0  0  0  0  0  0  0  0  0  0  0
    5.3294   -5.0919   -0.6803 H   0  0  0  0  0  0  0  0  0  0  0  0
    3.7684   -5.5585   -0.2974 H   0  0  0  0  0  0  0  0  0  0  0  0
    2.0292   -2.6720   -1.1093 H   0  0  0  0  0  0  0  0  0  0  0  0
    1.9149   -4.1569   -0.1738 H   0  0  0  0  0  0  0  0  0  0  0  0
    2.5276   -4.1692   -1.8198 H   0  0  0  0  0  0  0  0  0  0  0  0
    4.4995   -2.6584    1.6707 H   0  0  0  0  0  0  0  0  0  0  0  0
    2.4282   -0.9486    0.5932 H   0  0  0  0  0  0  0  0  0  0  0  0
    1.6221   -1.2333    2.8219 H   0  0  0  0  0  0  0  0  0  0  0  0
    4.1904   -1.9173    3.8938 H   0  0  0  0  0  0  0  0  0  0  0  0
    1.5953   -1.9634    5.0834 H   0  0  0  0  0  0  0  0  0  0  0  0
    3.7272   -1.8605    6.5491 H   0  0  0  0  0  0  0  0  0  0  0  0
    2.7001   -3.1768    7.0955 H   0  0  0  0  0  0  0  0  0  0  0  0
    0.5690   -4.0372    6.0033 H   0  0  0  0  0  0  0  0  0  0  0  0
    2.8002   -4.7772    1.8833 H   0  0  0  0  0  0  0  0  0  0  0  0
    3.7847   -6.9059    3.5972 H   0  0  0  0  0  0  0  0  0  0  0  0
    3.0255   -7.0193    1.9671 H   0  0  0  0  0  0  0  0  0  0  0  0
    5.9710   -6.6249    2.6241 H   0  0  0  0  0  0  0  0  0  0  0  0
    5.3228   -0.6522   -0.0453 H   0  0  0  0  0  0  0  0  0  0  0  0
    5.2008   -3.4119   -3.1878 H   0  0  0  0  0  0  0  0  0  0  0  0
    6.3392   -3.8401   -1.9576 H   0  0  0  0  0  0  0  0  0  0  0  0
    6.4765   -2.2893   -2.7135 H   0  0  0  0  0  0  0  0  0  0  0  0
    4.7214   -0.6105   -2.5615 H   0  0  0  0  0  0  0  0  0  0  0  0
    3.3428   -0.7902   -1.5000 H   0  0  0  0  0  0  0  0  0  0  0  0
    3.4746   -1.8079   -2.9256 H   0  0  0  0  0  0  0  0  0  0  0  0
  1  2  1  0
  1 31  1  0
  1 32  1  0
  1 33  1  0
  2 26  1  0
  2  3  2  3
  3  4  1  0
  3 34  1  0
  4 21  1  0
  4 23  1  0
  4  5  1  6
  5  6  1  0
  5 35  1  0
  5 36  1  0
  6 28  1  0
  6  7  1  6
  6  8  1  0
  7 37  1  0
  7 38  1  0
  7 39  1  0
  8  9  1  0
  8 25  1  0
  8 40  1  1
  9 10  2  3
  9 41  1  0
 10 11  1  0
 10 42  1  0
 11 17  1  0
 11 12  1  0
 11 43  1  1
 12 18  1  0
 12 13  1  0
 12 44  1  1
 13 14  1  0
 13 45  1  0
 13 46  1  0
 14 15  1  0
 15 16  2  0
 17 15  1  1
 17 18  1  0
 17 21  1  0
 18 19  2  3
 19 20  1  0
 20 47  1  0
 21 22  1  0
 21 48  1  6
 22 23  1  0
 22 49  1  0
 22 50  1  0
 23 24  1  0
 23 51  1  1
 25 26  1  0
 25 28  1  0
 25 52  1  6
 26 27  2  0
 28 29  1  0
 28 30  1  0
 29 53  1  0
 29 54  1  0
 29 55  1  0
 30 56  1  0
 30 57  1  0
 30 58  1  0
M  END
>  <i_m_ct_stereo_status>  (41) 
1

>  <s_m_source_file>  (41) 
/var/tmp/pbs.5076255.sched01/tmp9d3cgwpa/0mc_8ktg4.sdf

>  <i_m_source_file_index>  (41) 
15

>  <i_lp_mmshare_version>  (41) 
48012

>  <i_f3d_flags>  (41) 
2

>  <s_epik_input>  (41) 
W0NIM10vQyg9W0NIXS8xKUMoPU8pW0NAQEhdMkMoW0NIM10pKFtDSDNdKVtDQEBdKFtDSDJdMykoW0NIM10pW0NASF0yL1tDSF09W0NIXVxbQ0BASF0oW0NASF0oW0NIMl1PQzQ9TykvQzU9Ti9bT0hdKVtDQEBdNDVbQ0BASF0oW0NAQF0xMzYpW0NIMl1bQ0BASF02Rg==

>  <s_epik_cmdline>  (41) 
J2VwaWtfcHl0aG9uJywgJy1waHQnLCAnMi4wJywgJy1waCcsICc3LjAnLCAnLXRuJywgJzgnLCAnLW1hJywgJzIwMCcsICctaW1hZScsICc8aW5maWxlLm1hZT4nLCAnLW9tYWUnLCAnPG91dGZpbGUubWFlPic=

>  <r_lp_tautomer_probability>  (41) 
1

>  <r_epik_Ionization_Penalty>  (41) 
5.84987e-05

>  <r_epik_Ionization_Penalty_Charging>  (41) 
0

>  <r_epik_Ionization_Penalty_Neutral>  (41) 
5.84987e-05

>  <r_epik_State_Penalty>  (41) 
-0

>  <r_epik_Charging_Adjusted_Penalty>  (41) 
0

>  <i_epik_Tot_Q>  (41) 
0

>  <i_epik_Tot_abs_Q>  (41) 
0

>  <s_epik_Chemistry_Notes>  (41) 
This compound has an ester and may undergo hydrolysis at high or low pH. This compound has an imine and may undergo hydrolysis.

>  <s_lp_Force_Field>  (41) 
OPLS3e

>  <r_lp_Energy>  (41) 
131.15

>  <b_lp_Chiralities_Consistent>  (41) 
0

>  <s_lp_Variant>  (41) 
5:0-6

>  <s_i_glide_gridfile>  (41) 
pfpi4k_grid

>  <i_i_glide_lignum>  (41) 
15

>  <i_i_glide_rotatable_bonds>  (41) 
1

>  <r_i_docking_score>  (41) 
-2.47414

>  <r_i_glide_ligand_efficiency>  (41) 
-0.0824713

>  <r_i_glide_ligand_efficiency_sa>  (41) 
-0.256257

>  <r_i_glide_ligand_efficiency_ln>  (41) 
-0.562151

>  <r_i_glide_gscore>  (41) 
-2.47414

>  <r_i_glide_lipo>  (41) 
-0.548006

>  <r_i_glide_hbond>  (41) 
-0.032447

>  <r_i_glide_metal>  (41) 
-0

>  <r_i_glide_rewards>  (41) 
-0.768077

>  <r_i_glide_evdw>  (41) 
-20.7813

>  <r_i_glide_ecoul>  (41) 
-1.30647

>  <r_i_glide_erotb>  (41) 
0.115394

>  <r_i_glide_esite>  (41) 
-0.00596942

>  <r_i_glide_emodel>  (41) 
-25.6777

>  <r_i_glide_energy>  (41) 
-22.0878

>  <r_i_glide_einternal>  (41) 
-0.00354169

>  <r_i_glide_intrahb_reward>  (41) 
-0

>  <i_i_glide_confnum>  (41) 
2

>  <i_i_glide_posenum>  (41) 
11

>  <r_i_glide_eff_state_penalty>  (41) 
0

>  <ligand_id>  (41) 
5

>  <original_smiles>  (41) 
CC1=CC23CC4(C)C(C=CC5C6COC(=O)C5(C6=NO)C2CC3F)C(C1=O)C4(C)C

>  <smiles>  (41) 
[H]ON=C1C2([H])C([H])([H])OC(=O)C13C2([H])C([H])=C([H])C1([H])C2([H])C(=O)C(C([H])([H])[H])=C([H])C4(C([H])([H])C1(C([H])([H])[H])C2(C([H])([H])[H])C([H])([H])[H])C([H])(F)C([H])([H])C34[H]

$$$$
5:6:0
     RDKit          3D

 58 63  0  0  1  0  0  0  0  0999 V2000
    4.5902   -2.9609    4.5627 C   0  0  0  0  0  0  0  0  0  0  0  0
    4.6581   -4.0774    3.5156 C   0  0  0  0  0  0  0  0  0  0  0  0
    5.6864   -4.0960    2.6363 C   0  0  0  0  0  0  0  0  0  0  0  0
    6.2200   -4.9947    1.5011 C   0  0  1  0  0  0  0  0  0  0  0  0
    6.2764   -6.5449    1.7802 C   0  0  0  0  0  0  0  0  0  0  0  0
    5.1108   -7.4466    2.2901 C   0  0  2  0  0  0  0  0  0  0  0  0
    5.5039   -8.8666    1.8375 C   0  0  0  0  0  0  0  0  0  0  0  0
    3.6656   -7.0708    1.9327 C   0  0  2  0  0  0  0  0  0  0  0  0
    3.5784   -6.2137    0.6974 C   0  0  0  0  0  0  0  0  0  0  0  0
    2.9746   -5.0298    0.5757 C   0  0  0  0  0  0  0  0  0  0  0  0
    3.3247   -4.1237   -0.5774 C   0  0  1  0  0  0  0  0  0  0  0  0
    2.8300   -2.6786   -0.5264 C   0  0  2  0  0  0  0  0  0  0  0  0
    2.8919   -1.9820   -1.8991 C   0  0  0  0  0  0  0  0  0  0  0  0
    4.1304   -2.2833   -2.5788 O   0  0  0  0  0  0  0  0  0  0  0  0
    5.1141   -3.0869   -2.0373 C   0  0  0  0  0  0  0  0  0  0  0  0
    6.1348   -3.3488   -2.6709 O   0  0  0  0  0  0  0  0  0  0  0  0
    4.7940   -3.6288   -0.6369 C   0  0  1  0  0  0  0  0  0  0  0  0
    4.1625   -2.4734    0.1202 C   0  0  0  0  0  0  0  0  0  0  0  0
    4.5370   -1.7543    1.0708 N   0  0  0  0  0  0  0  0  0  0  0  0
    3.5335   -0.8161    1.4813 O   0  0  0  0  0  0  0  0  0  0  0  0
    5.9898   -4.3799    0.0469 C   0  0  1  0  0  0  0  0  0  0  0  0
    7.2966   -3.5971    0.1647 C   0  0  0  0  0  0  0  0  0  0  0  0
    7.7082   -4.5480    1.2590 C   0  0  2  0  0  0  0  0  0  0  0  0
    8.4749   -5.4812    0.6878 F   0  0  0  0  0  0  0  0  0  0  0  0
    3.5280   -6.4590    3.3322 C   0  0  2  0  0  0  0  0  0  0  0  0
    3.4896   -4.9743    3.5921 C   0  0  0  0  0  0  0  0  0  0  0  0
    2.4033   -4.4541    3.8860 O   0  0  0  0  0  0  0  0  0  0  0  0
    4.7099   -7.3315    3.8040 C   0  0  0  0  0  0  0  0  0  0  0  0
    4.2065   -8.6153    4.4859 C   0  0  0  0  0  0  0  0  0  0  0  0
    5.7522   -6.7835    4.7950 C   0  0  0  0  0  0  0  0  0  0  0  0
    4.4340   -3.3860    5.5554 H   0  0  0  0  0  0  0  0  0  0  0  0
    3.7583   -2.2850    4.3659 H   0  0  0  0  0  0  0  0  0  0  0  0
    5.4959   -2.3561    4.6181 H   0  0  0  0  0  0  0  0  0  0  0  0
    6.2880   -3.2150    2.7476 H   0  0  0  0  0  0  0  0  0  0  0  0
    6.6224   -6.9913    0.8499 H   0  0  0  0  0  0  0  0  0  0  0  0
    7.1274   -6.7381    2.4338 H   0  0  0  0  0  0  0  0  0  0  0  0
    4.7328   -9.5995    2.0705 H   0  0  0  0  0  0  0  0  0  0  0  0
    6.4216   -9.2025    2.3208 H   0  0  0  0  0  0  0  0  0  0  0  0
    5.6467   -8.9405    0.7578 H   0  0  0  0  0  0  0  0  0  0  0  0
    3.0375   -7.9588    1.8327 H   0  0  0  0  0  0  0  0  0  0  0  0
    4.2066   -6.5502   -0.1137 H   0  0  0  0  0  0  0  0  0  0  0  0
    2.3296   -4.6171    1.3307 H   0  0  0  0  0  0  0  0  0  0  0  0
    3.0242   -4.5546   -1.5046 H   0  0  0  0  0  0  0  0  0  0  0  0
    1.9294   -2.6093    0.0851 H   0  0  0  0  0  0  0  0  0  0  0  0
    2.0667   -2.3093   -2.5324 H   0  0  0  0  0  0  0  0  0  0  0  0
    2.8214   -0.8948   -1.8110 H   0  0  0  0  0  0  0  0  0  0  0  0
    2.7991   -1.0125    0.9213 H   0  0  0  0  0  0  0  0  0  0  0  0
    6.1520   -5.2222   -0.6084 H   0  0  0  0  0  0  0  0  0  0  0  0
    7.9209   -3.6517   -0.7295 H   0  0  0  0  0  0  0  0  0  0  0  0
    7.1530   -2.5710    0.5088 H   0  0  0  0  0  0  0  0  0  0  0  0
    8.2604   -4.0988    2.0838 H   0  0  0  0  0  0  0  0  0  0  0  0
    2.6187   -6.8789    3.7587 H   0  0  0  0  0  0  0  0  0  0  0  0
    3.7832   -8.4122    5.4726 H   0  0  0  0  0  0  0  0  0  0  0  0
    5.0046   -9.3474    4.6132 H   0  0  0  0  0  0  0  0  0  0  0  0
    3.4178   -9.0996    3.9072 H   0  0  0  0  0  0  0  0  0  0  0  0
    5.2971   -6.4689    5.7360 H   0  0  0  0  0  0  0  0  0  0  0  0
    6.3097   -5.9332    4.4152 H   0  0  0  0  0  0  0  0  0  0  0  0
    6.5033   -7.5367    5.0331 H   0  0  0  0  0  0  0  0  0  0  0  0
  1  2  1  0
  1 31  1  0
  1 32  1  0
  1 33  1  0
  2 26  1  0
  2  3  2  3
  3  4  1  0
  3 34  1  0
  4 21  1  0
  4 23  1  0
  4  5  1  6
  5  6  1  0
  5 35  1  0
  5 36  1  0
  6 28  1  0
  6  7  1  1
  6  8  1  0
  7 37  1  0
  7 38  1  0
  7 39  1  0
  8  9  1  0
  8 25  1  0
  8 40  1  6
  9 10  2  3
  9 41  1  0
 10 11  1  0
 10 42  1  0
 11 17  1  0
 11 12  1  0
 11 43  1  6
 12 18  1  0
 12 13  1  0
 12 44  1  1
 13 14  1  0
 13 45  1  0
 13 46  1  0
 14 15  1  0
 15 16  2  0
 17 15  1  6
 17 18  1  0
 17 21  1  0
 18 19  2  3
 19 20  1  0
 20 47  1  0
 21 22  1  0
 21 48  1  6
 22 23  1  0
 22 49  1  0
 22 50  1  0
 23 24  1  0
 23 51  1  1
 25 26  1  0
 25 28  1  0
 25 52  1  1
 26 27  2  0
 28 29  1  0
 28 30  1  0
 29 53  1  0
 29 54  1  0
 29 55  1  0
 30 56  1  0
 30 57  1  0
 30 58  1  0
M  END
>  <i_m_ct_stereo_status>  (42) 
1

>  <s_m_source_file>  (42) 
/var/tmp/pbs.5076255.sched01/tmp9d3cgwpa/0mc_8ktg4.sdf

>  <i_m_source_file_index>  (42) 
16

>  <i_lp_mmshare_version>  (42) 
48012

>  <i_f3d_flags>  (42) 
2

>  <s_epik_input>  (42) 
W0NIM10vQyg9W0NIXS8xKUMoPU8pW0NAQEhdMkMoW0NIM10pKFtDSDNdKVtDQEBdKFtDSDJdMykoW0NIM10pW0NASF0yL1tDSF09W0NIXVxbQ0BASF0oW0NASF0oW0NIMl1PQzQ9TykvQzU9Ti9bT0hdKVtDQEBdNDVbQ0BASF0oW0NAQF0xMzYpW0NIMl1bQ0BASF02Rg==

>  <s_epik_cmdline>  (42) 
J2VwaWtfcHl0aG9uJywgJy1waHQnLCAnMi4wJywgJy1waCcsICc3LjAnLCAnLXRuJywgJzgnLCAnLW1hJywgJzIwMCcsICctaW1hZScsICc8aW5maWxlLm1hZT4nLCAnLW9tYWUnLCAnPG91dGZpbGUubWFlPic=

>  <r_lp_tautomer_probability>  (42) 
1

>  <r_epik_Ionization_Penalty>  (42) 
5.84987e-05

>  <r_epik_Ionization_Penalty_Charging>  (42) 
0

>  <r_epik_Ionization_Penalty_Neutral>  (42) 
5.84987e-05

>  <r_epik_State_Penalty>  (42) 
-0

>  <r_epik_Charging_Adjusted_Penalty>  (42) 
0

>  <i_epik_Tot_Q>  (42) 
0

>  <i_epik_Tot_abs_Q>  (42) 
0

>  <s_epik_Chemistry_Notes>  (42) 
This compound has an ester and may undergo hydrolysis at high or low pH. This compound has an imine and may undergo hydrolysis.

>  <s_lp_Force_Field>  (42) 
OPLS3e

>  <r_lp_Energy>  (42) 
95.5802

>  <b_lp_Chiralities_Consistent>  (42) 
0

>  <s_lp_Variant>  (42) 
5:0-7

>  <s_i_glide_gridfile>  (42) 
pfpi4k_grid

>  <i_i_glide_lignum>  (42) 
16

>  <i_i_glide_rotatable_bonds>  (42) 
1

>  <r_i_docking_score>  (42) 
-2.67225

>  <r_i_glide_ligand_efficiency>  (42) 
-0.0890748

>  <r_i_glide_ligand_efficiency_sa>  (42) 
-0.276776

>  <r_i_glide_ligand_efficiency_ln>  (42) 
-0.607163

>  <r_i_glide_gscore>  (42) 
-2.67225

>  <r_i_glide_lipo>  (42) 
-0.657956

>  <r_i_glide_hbond>  (42) 
0

>  <r_i_glide_metal>  (42) 
-0

>  <r_i_glide_rewards>  (42) 
-0.744705

>  <r_i_glide_evdw>  (42) 
-17.1788

>  <r_i_glide_ecoul>  (42) 
-3.31376

>  <r_i_glide_erotb>  (42) 
0.115394

>  <r_i_glide_esite>  (42) 
-0.0289773

>  <r_i_glide_emodel>  (42) 
-25.0784

>  <r_i_glide_energy>  (42) 
-20.4925

>  <r_i_glide_einternal>  (42) 
-0.00608448

>  <r_i_glide_intrahb_reward>  (42) 
-0

>  <i_i_glide_confnum>  (42) 
1

>  <i_i_glide_posenum>  (42) 
21

>  <r_i_glide_eff_state_penalty>  (42) 
0

>  <ligand_id>  (42) 
5

>  <original_smiles>  (42) 
CC1=CC23CC4(C)C(C=CC5C6COC(=O)C5(C6=NO)C2CC3F)C(C1=O)C4(C)C

>  <smiles>  (42) 
[H]ON=C1C2([H])C([H])([H])OC(=O)C13C2([H])C([H])=C([H])C1([H])C2([H])C(=O)C(C([H])([H])[H])=C([H])C4(C([H])([H])C1(C([H])([H])[H])C2(C([H])([H])[H])C([H])([H])[H])C([H])(F)C([H])([H])C34[H]

$$$$
5:6:1
     RDKit          3D

 58 63  0  0  1  0  0  0  0  0999 V2000
    4.3177   -4.0831    5.2934 C   0  0  0  0  0  0  0  0  0  0  0  0
    4.2336   -4.8410    3.9722 C   0  0  0  0  0  0  0  0  0  0  0  0
    5.3574   -4.9911    3.2170 C   0  0  0  0  0  0  0  0  0  0  0  0
    5.7345   -5.6554    1.8774 C   0  0  1  0  0  0  0  0  0  0  0  0
    5.2902   -7.1554    1.6789 C   0  0  0  0  0  0  0  0  0  0  0  0
    3.8482   -7.7410    1.8243 C   0  0  2  0  0  0  0  0  0  0  0  0
    3.8773   -9.0470    0.9996 C   0  0  0  0  0  0  0  0  0  0  0  0
    2.6496   -6.8406    1.5016 C   0  0  2  0  0  0  0  0  0  0  0  0
    2.9958   -5.7151    0.5575 C   0  0  0  0  0  0  0  0  0  0  0  0
    2.7839   -4.4079    0.7307 C   0  0  0  0  0  0  0  0  0  0  0  0
    3.5349   -3.4019   -0.0963 C   0  0  1  0  0  0  0  0  0  0  0  0
    3.4911   -1.9214    0.3714 C   0  0  2  0  0  0  0  0  0  0  0  0
    3.9784   -0.9551   -0.7036 C   0  0  0  0  0  0  0  0  0  0  0  0
    5.1721   -1.4447   -1.3569 O   0  0  0  0  0  0  0  0  0  0  0  0
    5.7719   -2.6428   -1.0227 C   0  0  0  0  0  0  0  0  0  0  0  0
    6.7540   -3.0379   -1.6474 O   0  0  0  0  0  0  0  0  0  0  0  0
    5.0822   -3.4006    0.1252 C   0  0  1  0  0  0  0  0  0  0  0  0
    4.7022   -2.3514    1.1593 C   0  0  0  0  0  0  0  0  0  0  0  0
    5.1430   -2.0533    2.3006 N   0  0  0  0  0  0  0  0  0  0  0  0
    4.4224   -0.9903    2.9216 O   0  0  0  0  0  0  0  0  0  0  0  0
    5.9049   -4.6587    0.6329 C   0  0  1  0  0  0  0  0  0  0  0  0
    7.3465   -4.3857    1.0613 C   0  0  0  0  0  0  0  0  0  0  0  0
    7.3066   -5.6633    1.8615 C   0  0  2  0  0  0  0  0  0  0  0  0
    7.8353   -6.6317    1.1081 F   0  0  0  0  0  0  0  0  0  0  0  0
    2.4908   -6.5976    3.0088 C   0  0  2  0  0  0  0  0  0  0  0  0
    2.8492   -5.2943    3.6854 C   0  0  0  0  0  0  0  0  0  0  0  0
    1.9256   -4.5588    4.0465 O   0  0  0  0  0  0  0  0  0  0  0  0
    3.2727   -7.9023    3.2756 C   0  0  0  0  0  0  0  0  0  0  0  0
    2.3175   -9.0873    3.5111 C   0  0  0  0  0  0  0  0  0  0  0  0
    4.2669   -7.9961    4.4475 C   0  0  0  0  0  0  0  0  0  0  0  0
    3.8882   -4.6792    6.1032 H   0  0  0  0  0  0  0  0  0  0  0  0
    3.7559   -3.1476    5.2461 H   0  0  0  0  0  0  0  0  0  0  0  0
    5.3391   -3.8341    5.5847 H   0  0  0  0  0  0  0  0  0  0  0  0
    6.2131   -4.5213    3.6740 H   0  0  0  0  0  0  0  0  0  0  0  0
    5.6161   -7.4151    0.6713 H   0  0  0  0  0  0  0  0  0  0  0  0
    5.9376   -7.7808    2.2924 H   0  0  0  0  0  0  0  0  0  0  0  0
    2.8967   -9.5253    0.9493 H   0  0  0  0  0  0  0  0  0  0  0  0
    4.5645   -9.7784    1.4230 H   0  0  0  0  0  0  0  0  0  0  0  0
    4.1774   -8.8808   -0.0356 H   0  0  0  0  0  0  0  0  0  0  0  0
    1.8114   -7.4156    1.1073 H   0  0  0  0  0  0  0  0  0  0  0  0
    3.6155   -6.0189   -0.2726 H   0  0  0  0  0  0  0  0  0  0  0  0
    2.1920   -4.0133    1.5471 H   0  0  0  0  0  0  0  0  0  0  0  0
    3.2731   -3.5113   -1.1527 H   0  0  0  0  0  0  0  0  0  0  0  0
    2.5868   -1.6345    0.9093 H   0  0  0  0  0  0  0  0  0  0  0  0
    3.2009   -0.8265   -1.4572 H   0  0  0  0  0  0  0  0  0  0  0  0
    4.2057    0.0279   -0.2837 H   0  0  0  0  0  0  0  0  0  0  0  0
    3.8049   -0.7263    2.2570 H   0  0  0  0  0  0  0  0  0  0  0  0
    5.9390   -5.3062   -0.2398 H   0  0  0  0  0  0  0  0  0  0  0  0
    8.0656   -4.3962    0.2404 H   0  0  0  0  0  0  0  0  0  0  0  0
    7.4513   -3.4961    1.6788 H   0  0  0  0  0  0  0  0  0  0  0  0
    7.8320   -5.6209    2.8189 H   0  0  0  0  0  0  0  0  0  0  0  0
    1.4408   -6.7936    3.2421 H   0  0  0  0  0  0  0  0  0  0  0  0
    1.8269   -9.0268    4.4844 H   0  0  0  0  0  0  0  0  0  0  0  0
    2.8388  -10.0445    3.4650 H   0  0  0  0  0  0  0  0  0  0  0  0
    1.5185   -9.1242    2.7654 H   0  0  0  0  0  0  0  0  0  0  0  0
    3.7838   -7.8047    5.4074 H   0  0  0  0  0  0  0  0  0  0  0  0
    5.1001   -7.3021    4.3735 H   0  0  0  0  0  0  0  0  0  0  0  0
    4.7220   -8.9845    4.5002 H   0  0  0  0  0  0  0  0  0  0  0  0
  1  2  1  0
  1 31  1  0
  1 32  1  0
  1 33  1  0
  2 26  1  0
  2  3  2  3
  3  4  1  0
  3 34  1  0
  4 21  1  0
  4 23  1  0
  4  5  1  6
  5  6  1  0
  5 35  1  0
  5 36  1  0
  6 28  1  0
  6  7  1  6
  6  8  1  0
  7 37  1  0
  7 38  1  0
  7 39  1  0
  8  9  1  0
  8 25  1  0
  8 40  1  6
  9 10  2  3
  9 41  1  0
 10 11  1  0
 10 42  1  0
 11 17  1  0
 11 12  1  0
 11 43  1  6
 12 18  1  0
 12 13  1  0
 12 44  1  1
 13 14  1  0
 13 45  1  0
 13 46  1  0
 14 15  1  0
 15 16  2  0
 17 15  1  6
 17 18  1  0
 17 21  1  0
 18 19  2  3
 19 20  1  0
 20 47  1  0
 21 22  1  0
 21 48  1  6
 22 23  1  0
 22 49  1  0
 22 50  1  0
 23 24  1  0
 23 51  1  1
 25 26  1  0
 25 28  1  0
 25 52  1  6
 26 27  2  0
 28 29  1  0
 28 30  1  0
 29 53  1  0
 29 54  1  0
 29 55  1  0
 30 56  1  0
 30 57  1  0
 30 58  1  0
M  END
>  <i_m_ct_stereo_status>  (43) 
1

>  <s_m_source_file>  (43) 
/var/tmp/pbs.5076255.sched01/tmp9d3cgwpa/0mc_8ktg4.sdf

>  <i_m_source_file_index>  (43) 
16

>  <i_lp_mmshare_version>  (43) 
48012

>  <i_f3d_flags>  (43) 
2

>  <s_epik_input>  (43) 
W0NIM10vQyg9W0NIXS8xKUMoPU8pW0NAQEhdMkMoW0NIM10pKFtDSDNdKVtDQEBdKFtDSDJdMykoW0NIM10pW0NASF0yL1tDSF09W0NIXVxbQ0BASF0oW0NASF0oW0NIMl1PQzQ9TykvQzU9Ti9bT0hdKVtDQEBdNDVbQ0BASF0oW0NAQF0xMzYpW0NIMl1bQ0BASF02Rg==

>  <s_epik_cmdline>  (43) 
J2VwaWtfcHl0aG9uJywgJy1waHQnLCAnMi4wJywgJy1waCcsICc3LjAnLCAnLXRuJywgJzgnLCAnLW1hJywgJzIwMCcsICctaW1hZScsICc8aW5maWxlLm1hZT4nLCAnLW9tYWUnLCAnPG91dGZpbGUubWFlPic=

>  <r_lp_tautomer_probability>  (43) 
1

>  <r_epik_Ionization_Penalty>  (43) 
5.84987e-05

>  <r_epik_Ionization_Penalty_Charging>  (43) 
0

>  <r_epik_Ionization_Penalty_Neutral>  (43) 
5.84987e-05

>  <r_epik_State_Penalty>  (43) 
-0

>  <r_epik_Charging_Adjusted_Penalty>  (43) 
0

>  <i_epik_Tot_Q>  (43) 
0

>  <i_epik_Tot_abs_Q>  (43) 
0

>  <s_epik_Chemistry_Notes>  (43) 
This compound has an ester and may undergo hydrolysis at high or low pH. This compound has an imine and may undergo hydrolysis.

>  <s_lp_Force_Field>  (43) 
OPLS3e

>  <r_lp_Energy>  (43) 
95.5802

>  <b_lp_Chiralities_Consistent>  (43) 
0

>  <s_lp_Variant>  (43) 
5:0-7

>  <s_i_glide_gridfile>  (43) 
pfpi4k_grid

>  <i_i_glide_lignum>  (43) 
16

>  <i_i_glide_rotatable_bonds>  (43) 
1

>  <r_i_docking_score>  (43) 
-2.59364

>  <r_i_glide_ligand_efficiency>  (43) 
-0.0864548

>  <r_i_glide_ligand_efficiency_sa>  (43) 
-0.268635

>  <r_i_glide_ligand_efficiency_ln>  (43) 
-0.589304

>  <r_i_glide_gscore>  (43) 
-2.59364

>  <r_i_glide_lipo>  (43) 
-0.476863

>  <r_i_glide_hbond>  (43) 
0

>  <r_i_glide_metal>  (43) 
-0

>  <r_i_glide_rewards>  (43) 
-0.615741

>  <r_i_glide_evdw>  (43) 
-24.6909

>  <r_i_glide_ecoul>  (43) 
-2.27722

>  <r_i_glide_erotb>  (43) 
0.115394

>  <r_i_glide_esite>  (43) 
-0.040308

>  <r_i_glide_emodel>  (43) 
-31.6013

>  <r_i_glide_energy>  (43) 
-26.9681

>  <r_i_glide_einternal>  (43) 
-0.00602936

>  <r_i_glide_intrahb_reward>  (43) 
-0

>  <i_i_glide_confnum>  (43) 
2

>  <i_i_glide_posenum>  (43) 
24

>  <r_i_glide_eff_state_penalty>  (43) 
0

>  <ligand_id>  (43) 
5

>  <original_smiles>  (43) 
CC1=CC23CC4(C)C(C=CC5C6COC(=O)C5(C6=NO)C2CC3F)C(C1=O)C4(C)C

>  <smiles>  (43) 
[H]ON=C1C2([H])C([H])([H])OC(=O)C13C2([H])C([H])=C([H])C1([H])C2([H])C(=O)C(C([H])([H])[H])=C([H])C4(C([H])([H])C1(C([H])([H])[H])C2(C([H])([H])[H])C([H])([H])[H])C([H])(F)C([H])([H])C34[H]

$$$$
5:6:2
     RDKit          3D

 58 63  0  0  1  0  0  0  0  0999 V2000
    4.3943   -1.7904    3.8768 C   0  0  0  0  0  0  0  0  0  0  0  0
    4.2053   -3.0026    2.9722 C   0  0  0  0  0  0  0  0  0  0  0  0
    5.2960   -3.5252    2.3243 C   0  0  0  0  0  0  0  0  0  0  0  0
    5.5724   -4.6805    1.3591 C   0  0  1  0  0  0  0  0  0  0  0  0
    5.0305   -6.1068    1.7728 C   0  0  0  0  0  0  0  0  0  0  0  0
    3.5649   -6.4686    2.1597 C   0  0  2  0  0  0  0  0  0  0  0  0
    3.4861   -7.9851    1.9103 C   0  0  0  0  0  0  0  0  0  0  0  0
    2.4078   -5.6852    1.5353 C   0  0  2  0  0  0  0  0  0  0  0  0
    2.7821   -5.0377    0.2428 C   0  0  0  0  0  0  0  0  0  0  0  0
    2.6280   -3.7555   -0.1244 C   0  0  0  0  0  0  0  0  0  0  0  0
    3.3721   -3.2264   -1.3084 C   0  0  1  0  0  0  0  0  0  0  0  0
    3.4404   -1.6758   -1.4579 C   0  0  2  0  0  0  0  0  0  0  0  0
    3.9120   -1.2370   -2.8438 C   0  0  0  0  0  0  0  0  0  0  0  0
    4.9593   -2.1243   -3.2965 O   0  0  0  0  0  0  0  0  0  0  0  0
    5.5917   -2.9940   -2.4446 C   0  0  0  0  0  0  0  0  0  0  0  0
    6.6738   -3.4595   -2.7296 O   0  0  0  0  0  0  0  0  0  0  0  0
    4.9167   -3.2569   -1.1216 C   0  0  1  0  0  0  0  0  0  0  0  0
    4.6593   -1.8693   -0.5830 C   0  0  0  0  0  0  0  0  0  0  0  0
    5.1900   -1.2167    0.3390 N   0  0  0  0  0  0  0  0  0  0  0  0
    4.5512    0.0334    0.5340 O   0  0  0  0  0  0  0  0  0  0  0  0
    5.7287   -4.2418   -0.1724 C   0  0  1  0  0  0  0  0  0  0  0  0
    7.2075   -3.9089    0.0843 C   0  0  0  0  0  0  0  0  0  0  0  0
    7.1384   -4.8056    1.2891 C   0  0  2  0  0  0  0  0  0  0  0  0
    7.5680   -6.0205    0.9499 F   0  0  0  0  0  0  0  0  0  0  0  0
    2.3139   -4.8606    2.8167 C   0  0  2  0  0  0  0  0  0  0  0  0
    2.7964   -3.4294    2.9136 C   0  0  0  0  0  0  0  0  0  0  0  0
    1.9356   -2.5314    2.9766 O   0  0  0  0  0  0  0  0  0  0  0  0
    3.0344   -6.0003    3.5620 C   0  0  0  0  0  0  0  0  0  0  0  0
    2.0230   -6.9223    4.2619 C   0  0  0  0  0  0  0  0  0  0  0  0
    4.0549   -5.7006    4.6649 C   0  0  0  0  0  0  0  0  0  0  0  0
    3.9547   -1.9914    4.8541 H   0  0  0  0  0  0  0  0  0  0  0  0
    3.8828   -0.9197    3.4679 H   0  0  0  0  0  0  0  0  0  0  0  0
    5.4351   -1.5198    4.0337 H   0  0  0  0  0  0  0  0  0  0  0  0
    6.1957   -2.9640    2.5187 H   0  0  0  0  0  0  0  0  0  0  0  0
    5.3058   -6.7754    0.9592 H   0  0  0  0  0  0  0  0  0  0  0  0
    5.6567   -6.4815    2.5786 H   0  0  0  0  0  0  0  0  0  0  0  0
    2.4793   -8.3732    2.0735 H   0  0  0  0  0  0  0  0  0  0  0  0
    4.1530   -8.5262    2.5795 H   0  0  0  0  0  0  0  0  0  0  0  0
    3.7401   -8.2621    0.8859 H   0  0  0  0  0  0  0  0  0  0  0  0
    1.5245   -6.3166    1.4039 H   0  0  0  0  0  0  0  0  0  0  0  0
    3.3852   -5.6730   -0.3881 H   0  0  0  0  0  0  0  0  0  0  0  0
    2.1274   -3.0020    0.4652 H   0  0  0  0  0  0  0  0  0  0  0  0
    3.0923   -3.7422   -2.2356 H   0  0  0  0  0  0  0  0  0  0  0  0
    2.6076   -1.1204   -1.0214 H   0  0  0  0  0  0  0  0  0  0  0  0
    3.1015   -1.3099   -3.5701 H   0  0  0  0  0  0  0  0  0  0  0  0
    4.3107   -0.2169   -2.8480 H   0  0  0  0  0  0  0  0  0  0  0  0
    3.6540   -0.1852    0.3318 H   0  0  0  0  0  0  0  0  0  0  0  0
    5.7312   -5.1903   -0.7106 H   0  0  0  0  0  0  0  0  0  0  0  0
    7.9206   -4.2801   -0.6552 H   0  0  0  0  0  0  0  0  0  0  0  0
    7.4094   -2.8686    0.3347 H   0  0  0  0  0  0  0  0  0  0  0  0
    7.7383   -4.4112    2.0983 H   0  0  0  0  0  0  0  0  0  0  0  0
    1.2658   -4.8827    3.1056 H   0  0  0  0  0  0  0  0  0  0  0  0
    1.5803   -6.4422    5.1367 H   0  0  0  0  0  0  0  0  0  0  0  0
    2.4942   -7.8473    4.5902 H   0  0  0  0  0  0  0  0  0  0  0  0
    1.1974   -7.1952    3.6000 H   0  0  0  0  0  0  0  0  0  0  0  0
    3.6214   -5.1140    5.4772 H   0  0  0  0  0  0  0  0  0  0  0  0
    4.9276   -5.1564    4.3091 H   0  0  0  0  0  0  0  0  0  0  0  0
    4.4428   -6.6204    5.0935 H   0  0  0  0  0  0  0  0  0  0  0  0
  1  2  1  0
  1 31  1  0
  1 32  1  0
  1 33  1  0
  2 26  1  0
  2  3  2  3
  3  4  1  0
  3 34  1  0
  4 21  1  0
  4 23  1  0
  4  5  1  6
  5  6  1  0
  5 35  1  0
  5 36  1  0
  6 28  1  0
  6  7  1  1
  6  8  1  0
  7 37  1  0
  7 38  1  0
  7 39  1  0
  8  9  1  0
  8 25  1  0
  8 40  1  6
  9 10  2  3
  9 41  1  0
 10 11  1  0
 10 42  1  0
 11 17  1  0
 11 12  1  0
 11 43  1  6
 12 18  1  0
 12 13  1  0
 12 44  1  1
 13 14  1  0
 13 45  1  0
 13 46  1  0
 14 15  1  0
 15 16  2  0
 17 15  1  6
 17 18  1  0
 17 21  1  0
 18 19  2  3
 19 20  1  0
 20 47  1  0
 21 22  1  0
 21 48  1  6
 22 23  1  0
 22 49  1  0
 22 50  1  0
 23 24  1  0
 23 51  1  1
 25 26  1  0
 25 28  1  0
 25 52  1  1
 26 27  2  0
 28 29  1  0
 28 30  1  0
 29 53  1  0
 29 54  1  0
 29 55  1  0
 30 56  1  0
 30 57  1  0
 30 58  1  0
M  END
>  <i_m_ct_stereo_status>  (44) 
1

>  <s_m_source_file>  (44) 
/var/tmp/pbs.5076255.sched01/tmp9d3cgwpa/0mc_8ktg4.sdf

>  <i_m_source_file_index>  (44) 
16

>  <i_lp_mmshare_version>  (44) 
48012

>  <i_f3d_flags>  (44) 
2

>  <s_epik_input>  (44) 
W0NIM10vQyg9W0NIXS8xKUMoPU8pW0NAQEhdMkMoW0NIM10pKFtDSDNdKVtDQEBdKFtDSDJdMykoW0NIM10pW0NASF0yL1tDSF09W0NIXVxbQ0BASF0oW0NASF0oW0NIMl1PQzQ9TykvQzU9Ti9bT0hdKVtDQEBdNDVbQ0BASF0oW0NAQF0xMzYpW0NIMl1bQ0BASF02Rg==

>  <s_epik_cmdline>  (44) 
J2VwaWtfcHl0aG9uJywgJy1waHQnLCAnMi4wJywgJy1waCcsICc3LjAnLCAnLXRuJywgJzgnLCAnLW1hJywgJzIwMCcsICctaW1hZScsICc8aW5maWxlLm1hZT4nLCAnLW9tYWUnLCAnPG91dGZpbGUubWFlPic=

>  <r_lp_tautomer_probability>  (44) 
1

>  <r_epik_Ionization_Penalty>  (44) 
5.84987e-05

>  <r_epik_Ionization_Penalty_Charging>  (44) 
0

>  <r_epik_Ionization_Penalty_Neutral>  (44) 
5.84987e-05

>  <r_epik_State_Penalty>  (44) 
-0

>  <r_epik_Charging_Adjusted_Penalty>  (44) 
0

>  <i_epik_Tot_Q>  (44) 
0

>  <i_epik_Tot_abs_Q>  (44) 
0

>  <s_epik_Chemistry_Notes>  (44) 
This compound has an ester and may undergo hydrolysis at high or low pH. This compound has an imine and may undergo hydrolysis.

>  <s_lp_Force_Field>  (44) 
OPLS3e

>  <r_lp_Energy>  (44) 
95.5802

>  <b_lp_Chiralities_Consistent>  (44) 
0

>  <s_lp_Variant>  (44) 
5:0-7

>  <s_i_glide_gridfile>  (44) 
pfpi4k_grid

>  <i_i_glide_lignum>  (44) 
16

>  <i_i_glide_rotatable_bonds>  (44) 
1

>  <r_i_docking_score>  (44) 
-2.37554

>  <r_i_glide_ligand_efficiency>  (44) 
-0.0791847

>  <r_i_glide_ligand_efficiency_sa>  (44) 
-0.246045

>  <r_i_glide_ligand_efficiency_ln>  (44) 
-0.539749

>  <r_i_glide_gscore>  (44) 
-2.37554

>  <r_i_glide_lipo>  (44) 
-0.558679

>  <r_i_glide_hbond>  (44) 
0

>  <r_i_glide_metal>  (44) 
-0

>  <r_i_glide_rewards>  (44) 
-0.849267

>  <r_i_glide_evdw>  (44) 
-19.7043

>  <r_i_glide_ecoul>  (44) 
-0.475457

>  <r_i_glide_erotb>  (44) 
0.115394

>  <r_i_glide_esite>  (44) 
-0.0264539

>  <r_i_glide_emodel>  (44) 
-23.7409

>  <r_i_glide_energy>  (44) 
-20.1798

>  <r_i_glide_einternal>  (44) 
-0.00502166

>  <r_i_glide_intrahb_reward>  (44) 
-0

>  <i_i_glide_confnum>  (44) 
1

>  <i_i_glide_posenum>  (44) 
36

>  <r_i_glide_eff_state_penalty>  (44) 
0

>  <ligand_id>  (44) 
5

>  <original_smiles>  (44) 
CC1=CC23CC4(C)C(C=CC5C6COC(=O)C5(C6=NO)C2CC3F)C(C1=O)C4(C)C

>  <smiles>  (44) 
[H]ON=C1C2([H])C([H])([H])OC(=O)C13C2([H])C([H])=C([H])C1([H])C2([H])C(=O)C(C([H])([H])[H])=C([H])C4(C([H])([H])C1(C([H])([H])[H])C2(C([H])([H])[H])C([H])([H])[H])C([H])(F)C([H])([H])C34[H]

$$$$
5:7:0
     RDKit          3D

 58 63  0  0  1  0  0  0  0  0999 V2000
    6.3832   -4.9542    5.2857 C   0  0  0  0  0  0  0  0  0  0  0  0
    5.3847   -4.2875    4.3440 C   0  0  0  0  0  0  0  0  0  0  0  0
    5.7282   -3.7922    3.1393 C   0  0  0  0  0  0  0  0  0  0  0  0
    6.1389   -4.6908    1.9602 C   0  0  1  0  0  0  0  0  0  0  0  0
    5.5944   -6.1881    2.0992 C   0  0  0  0  0  0  0  0  0  0  0  0
    4.0740   -6.5271    2.3261 C   0  0  2  0  0  0  0  0  0  0  0  0
    3.7709   -7.7723    1.4483 C   0  0  0  0  0  0  0  0  0  0  0  0
    3.2375   -5.2534    2.2962 C   0  0  1  0  0  0  0  0  0  0  0  0
    2.3851   -4.8941    1.1211 C   0  0  0  0  0  0  0  0  0  0  0  0
    3.0735   -5.0927   -0.0192 C   0  0  0  0  0  0  0  0  0  0  0  0
    3.7070   -4.0538   -0.9233 C   0  0  1  0  0  0  0  0  0  0  0  0
    3.0161   -2.6878   -1.0807 C   0  0  2  0  0  0  0  0  0  0  0  0
    3.4119   -1.9875   -2.3805 C   0  0  0  0  0  0  0  0  0  0  0  0
    4.8323   -2.0883   -2.6179 O   0  0  0  0  0  0  0  0  0  0  0  0
    5.7119   -2.6909   -1.7218 C   0  0  0  0  0  0  0  0  0  0  0  0
    6.9220   -2.6703   -1.9407 O   0  0  0  0  0  0  0  0  0  0  0  0
    5.0366   -3.3297   -0.4744 C   0  0  1  0  0  0  0  0  0  0  0  0
    4.0015   -2.2884   -0.0200 C   0  0  0  0  0  0  0  0  0  0  0  0
    3.9253   -1.4475    0.9257 N   0  0  0  0  0  0  0  0  0  0  0  0
    2.6424   -0.8061    0.9892 O   0  0  0  0  0  0  0  0  0  0  0  0
    6.1311   -3.7934    0.6205 C   0  0  2  0  0  0  0  0  0  0  0  0
    7.3580   -4.6306    0.2209 C   0  0  0  0  0  0  0  0  0  0  0  0
    7.6665   -4.7128    1.7091 C   0  0  2  0  0  0  0  0  0  0  0  0
    8.2968   -5.8430    2.0358 F   0  0  0  0  0  0  0  0  0  0  0  0
    3.0241   -5.2280    3.8186 C   0  0  2  0  0  0  0  0  0  0  0  0
    3.9430   -4.3576    4.7087 C   0  0  0  0  0  0  0  0  0  0  0  0
    3.5520   -3.8062    5.7341 O   0  0  0  0  0  0  0  0  0  0  0  0
    3.3865   -6.7425    3.7459 C   0  0  0  0  0  0  0  0  0  0  0  0
    2.0716   -7.5430    3.7770 C   0  0  0  0  0  0  0  0  0  0  0  0
    4.2362   -7.4230    4.8314 C   0  0  0  0  0  0  0  0  0  0  0  0
    5.8861   -5.5733    6.0356 H   0  0  0  0  0  0  0  0  0  0  0  0
    6.9240   -4.1890    5.8430 H   0  0  0  0  0  0  0  0  0  0  0  0
    7.1132   -5.5505    4.7453 H   0  0  0  0  0  0  0  0  0  0  0  0
    5.0362   -3.0652    2.7585 H   0  0  0  0  0  0  0  0  0  0  0  0
    5.9430   -6.7391    1.2259 H   0  0  0  0  0  0  0  0  0  0  0  0
    6.1657   -6.6798    2.8774 H   0  0  0  0  0  0  0  0  0  0  0  0
    2.7093   -7.8351    1.1905 H   0  0  0  0  0  0  0  0  0  0  0  0
    4.0253   -8.6868    1.9781 H   0  0  0  0  0  0  0  0  0  0  0  0
    4.3153   -7.8231    0.5056 H   0  0  0  0  0  0  0  0  0  0  0  0
    3.7540   -4.3489    2.0895 H   0  0  0  0  0  0  0  0  0  0  0  0
    1.8549   -3.9633    1.2704 H   0  0  0  0  0  0  0  0  0  0  0  0
    3.7287   -5.9422   -0.1037 H   0  0  0  0  0  0  0  0  0  0  0  0
    3.8896   -4.4882   -1.8986 H   0  0  0  0  0  0  0  0  0  0  0  0
    1.9554   -2.7055   -0.8417 H   0  0  0  0  0  0  0  0  0  0  0  0
    2.8804   -2.4353   -3.2251 H   0  0  0  0  0  0  0  0  0  0  0  0
    3.1317   -0.9334   -2.3623 H   0  0  0  0  0  0  0  0  0  0  0  0
    2.2256   -1.0213    0.1566 H   0  0  0  0  0  0  0  0  0  0  0  0
    6.5308   -2.8173    0.9080 H   0  0  0  0  0  0  0  0  0  0  0  0
    7.0805   -5.5911   -0.2007 H   0  0  0  0  0  0  0  0  0  0  0  0
    8.1391   -4.1312   -0.3407 H   0  0  0  0  0  0  0  0  0  0  0  0
    8.2485   -3.8523    2.0362 H   0  0  0  0  0  0  0  0  0  0  0  0
    1.9666   -5.0769    4.0489 H   0  0  0  0  0  0  0  0  0  0  0  0
    1.5775   -7.4494    4.7476 H   0  0  0  0  0  0  0  0  0  0  0  0
    2.2189   -8.6049    3.5828 H   0  0  0  0  0  0  0  0  0  0  0  0
    1.3589   -7.1720    3.0288 H   0  0  0  0  0  0  0  0  0  0  0  0
    4.1547   -8.5083    4.7850 H   0  0  0  0  0  0  0  0  0  0  0  0
    3.9411   -7.1114    5.8373 H   0  0  0  0  0  0  0  0  0  0  0  0
    5.3016   -7.2261    4.7189 H   0  0  0  0  0  0  0  0  0  0  0  0
  1  2  1  0
  1 31  1  0
  1 32  1  0
  1 33  1  0
  2 26  1  0
  2  3  2  3
  3  4  1  0
  3 34  1  0
  4 21  1  0
  4 23  1  0
  4  5  1  6
  5  6  1  0
  5 35  1  0
  5 36  1  0
  6 28  1  0
  6  7  1  6
  6  8  1  0
  7 37  1  0
  7 38  1  0
  7 39  1  0
  8  9  1  0
  8 25  1  0
  8 40  1  1
  9 10  2  3
  9 41  1  0
 10 11  1  0
 10 42  1  0
 11 17  1  0
 11 12  1  0
 11 43  1  6
 12 18  1  0
 12 13  1  0
 12 44  1  1
 13 14  1  0
 13 45  1  0
 13 46  1  0
 14 15  1  0
 15 16  2  0
 17 15  1  6
 17 18  1  0
 17 21  1  0
 18 19  2  3
 19 20  1  0
 20 47  1  0
 21 22  1  0
 21 48  1  1
 22 23  1  0
 22 49  1  0
 22 50  1  0
 23 24  1  0
 23 51  1  1
 25 26  1  0
 25 28  1  0
 25 52  1  6
 26 27  2  0
 28 29  1  0
 28 30  1  0
 29 53  1  0
 29 54  1  0
 29 55  1  0
 30 56  1  0
 30 57  1  0
 30 58  1  0
M  END
>  <i_m_ct_stereo_status>  (45) 
1

>  <s_m_source_file>  (45) 
/var/tmp/pbs.5076255.sched01/tmp9d3cgwpa/0mc_8ktg4.sdf

>  <i_m_source_file_index>  (45) 
17

>  <i_lp_mmshare_version>  (45) 
48012

>  <i_f3d_flags>  (45) 
0

>  <s_epik_input>  (45) 
W0NIM10vQyg9W0NIXS8xKUMoPU8pW0NAQEhdMkMoW0NIM10pKFtDSDNdKVtDQEBdKFtDSDJdMykoW0NIM10pW0NASF0yL1tDSF09W0NIXVxbQ0BASF0oW0NASF0oW0NIMl1PQzQ9TykvQzU9Ti9bT0hdKVtDQEBdNDVbQ0BASF0oW0NAQF0xMzYpW0NIMl1bQ0BASF02Rg==

>  <s_epik_cmdline>  (45) 
J2VwaWtfcHl0aG9uJywgJy1waHQnLCAnMi4wJywgJy1waCcsICc3LjAnLCAnLXRuJywgJzgnLCAnLW1hJywgJzIwMCcsICctaW1hZScsICc8aW5maWxlLm1hZT4nLCAnLW9tYWUnLCAnPG91dGZpbGUubWFlPic=

>  <r_lp_tautomer_probability>  (45) 
1

>  <r_epik_Ionization_Penalty>  (45) 
5.84987e-05

>  <r_epik_Ionization_Penalty_Charging>  (45) 
0

>  <r_epik_Ionization_Penalty_Neutral>  (45) 
5.84987e-05

>  <r_epik_State_Penalty>  (45) 
-0

>  <r_epik_Charging_Adjusted_Penalty>  (45) 
0

>  <i_epik_Tot_Q>  (45) 
0

>  <i_epik_Tot_abs_Q>  (45) 
0

>  <s_epik_Chemistry_Notes>  (45) 
This compound has an ester and may undergo hydrolysis at high or low pH. This compound has an imine and may undergo hydrolysis.

>  <s_lp_Force_Field>  (45) 
OPLS3e

>  <r_lp_Energy>  (45) 
194.398

>  <b_lp_Chiralities_Consistent>  (45) 
1

>  <s_lp_Variant>  (45) 
5:0-8

>  <s_i_glide_gridfile>  (45) 
pfpi4k_grid

>  <i_i_glide_lignum>  (45) 
17

>  <i_i_glide_rotatable_bonds>  (45) 
1

>  <r_i_docking_score>  (45) 
-2.68888

>  <r_i_glide_ligand_efficiency>  (45) 
-0.0896293

>  <r_i_glide_ligand_efficiency_sa>  (45) 
-0.278499

>  <r_i_glide_ligand_efficiency_ln>  (45) 
-0.610942

>  <r_i_glide_gscore>  (45) 
-2.68888

>  <r_i_glide_lipo>  (45) 
-0.460869

>  <r_i_glide_hbond>  (45) 
-0.228297

>  <r_i_glide_metal>  (45) 
-0

>  <r_i_glide_rewards>  (45) 
-0.589897

>  <r_i_glide_evdw>  (45) 
-9.5339

>  <r_i_glide_ecoul>  (45) 
-6.11659

>  <r_i_glide_erotb>  (45) 
0.115394

>  <r_i_glide_esite>  (45) 
-0.131026

>  <r_i_glide_emodel>  (45) 
-19.0404

>  <r_i_glide_energy>  (45) 
-15.6505

>  <r_i_glide_einternal>  (45) 
-0.00505804

>  <r_i_glide_intrahb_reward>  (45) 
-0

>  <i_i_glide_confnum>  (45) 
2

>  <i_i_glide_posenum>  (45) 
1

>  <r_i_glide_eff_state_penalty>  (45) 
0

>  <ligand_id>  (45) 
5

>  <original_smiles>  (45) 
CC1=CC23CC4(C)C(C=CC5C6COC(=O)C5(C6=NO)C2CC3F)C(C1=O)C4(C)C

>  <smiles>  (45) 
[H]ON=C1C2([H])C([H])([H])OC(=O)C13C2([H])C([H])=C([H])C1([H])C2([H])C(=O)C(C([H])([H])[H])=C([H])C4(C([H])([H])C1(C([H])([H])[H])C2(C([H])([H])[H])C([H])([H])[H])C([H])(F)C([H])([H])C34[H]

$$$$
5:7:1
     RDKit          3D

 58 63  0  0  1  0  0  0  0  0999 V2000
    5.6103   -6.3801    5.9532 C   0  0  0  0  0  0  0  0  0  0  0  0
    5.0050   -5.3680    4.9889 C   0  0  0  0  0  0  0  0  0  0  0  0
    5.7298   -4.8287    3.9904 C   0  0  0  0  0  0  0  0  0  0  0  0
    6.0828   -5.6224    2.7172 C   0  0  1  0  0  0  0  0  0  0  0  0
    5.1704   -6.9206    2.5071 C   0  0  0  0  0  0  0  0  0  0  0  0
    3.6021   -6.8472    2.4334 C   0  0  2  0  0  0  0  0  0  0  0  0
    3.1787   -7.8386    1.3179 C   0  0  0  0  0  0  0  0  0  0  0  0
    3.1411   -5.3920    2.4915 C   0  0  1  0  0  0  0  0  0  0  0  0
    2.6302   -4.6781    1.2684 C   0  0  0  0  0  0  0  0  0  0  0  0
    3.4317   -4.9197    0.2086 C   0  0  0  0  0  0  0  0  0  0  0  0
    4.4623   -3.9863   -0.3865 C   0  0  1  0  0  0  0  0  0  0  0  0
    4.1751   -2.4597   -0.3607 C   0  0  2  0  0  0  0  0  0  0  0  0
    4.9820   -1.7152   -1.4375 C   0  0  0  0  0  0  0  0  0  0  0  0
    6.3541   -2.1541   -1.4685 O   0  0  0  0  0  0  0  0  0  0  0  0
    6.8539   -3.1124   -0.5936 C   0  0  0  0  0  0  0  0  0  0  0  0
    8.0450   -3.4052   -0.6288 O   0  0  0  0  0  0  0  0  0  0  0  0
    5.8180   -3.7254    0.3931 C   0  0  1  0  0  0  0  0  0  0  0  0
    5.0128   -2.5371    0.8951 C   0  0  0  0  0  0  0  0  0  0  0  0
    4.9545   -1.9007    1.9923 N   0  0  0  0  0  0  0  0  0  0  0  0
    3.9602   -0.8979    1.8589 O   0  0  0  0  0  0  0  0  0  0  0  0
    6.5345   -4.5972    1.5584 C   0  0  2  0  0  0  0  0  0  0  0  0
    7.5920   -5.6595    1.2211 C   0  0  0  0  0  0  0  0  0  0  0  0
    7.5704   -6.0239    2.7010 C   0  0  2  0  0  0  0  0  0  0  0  0
    7.8247   -7.3074    2.9236 F   0  0  0  0  0  0  0  0  0  0  0  0
    2.6324   -5.5211    3.9405 C   0  0  2  0  0  0  0  0  0  0  0  0
    3.5509   -5.0614    5.0971 C   0  0  0  0  0  0  0  0  0  0  0  0
    3.1271   -4.5576    6.1337 O   0  0  0  0  0  0  0  0  0  0  0  0
    2.6151   -7.0558    3.6676 C   0  0  0  0  0  0  0  0  0  0  0  0
    1.1656   -7.4692    3.3589 C   0  0  0  0  0  0  0  0  0  0  0  0
    3.0416   -8.0796    4.7321 C   0  0  0  0  0  0  0  0  0  0  0  0
    4.8340   -6.9253    6.4895 H   0  0  0  0  0  0  0  0  0  0  0  0
    6.2044   -5.8589    6.7031 H   0  0  0  0  0  0  0  0  0  0  0  0
    6.2572   -7.0773    5.4289 H   0  0  0  0  0  0  0  0  0  0  0  0
    5.3346   -3.8911    3.6405 H   0  0  0  0  0  0  0  0  0  0  0  0
    5.5347   -7.4230    1.6132 H   0  0  0  0  0  0  0  0  0  0  0  0
    5.4374   -7.6510    3.2628 H   0  0  0  0  0  0  0  0  0  0  0  0
    2.2074   -7.5747    0.8886 H   0  0  0  0  0  0  0  0  0  0  0  0
    3.0905   -8.8495    1.7172 H   0  0  0  0  0  0  0  0  0  0  0  0
    3.8761   -7.9213    0.4848 H   0  0  0  0  0  0  0  0  0  0  0  0
    3.9081   -4.6543    2.5404 H   0  0  0  0  0  0  0  0  0  0  0  0
    2.3213   -3.6601    1.4933 H   0  0  0  0  0  0  0  0  0  0  0  0
    3.8776   -5.8902    0.0920 H   0  0  0  0  0  0  0  0  0  0  0  0
    4.6647   -4.3300   -1.4066 H   0  0  0  0  0  0  0  0  0  0  0  0
    3.1139   -2.1821   -0.2848 H   0  0  0  0  0  0  0  0  0  0  0  0
    4.5318   -1.8888   -2.4242 H   0  0  0  0  0  0  0  0  0  0  0  0
    4.9630   -0.6350   -1.2737 H   0  0  0  0  0  0  0  0  0  0  0  0
    3.8555   -0.6612    2.7660 H   0  0  0  0  0  0  0  0  0  0  0  0
    7.0811   -3.8071    2.0686 H   0  0  0  0  0  0  0  0  0  0  0  0
    7.1942   -6.4401    0.5733 H   0  0  0  0  0  0  0  0  0  0  0  0
    8.5646   -5.3107    0.8990 H   0  0  0  0  0  0  0  0  0  0  0  0
    8.2430   -5.4227    3.3081 H   0  0  0  0  0  0  0  0  0  0  0  0
    1.6168   -5.1235    4.0202 H   0  0  0  0  0  0  0  0  0  0  0  0
    0.5374   -7.3755    4.2477 H   0  0  0  0  0  0  0  0  0  0  0  0
    1.0928   -8.4968    3.0079 H   0  0  0  0  0  0  0  0  0  0  0  0
    0.7245   -6.8241    2.5879 H   0  0  0  0  0  0  0  0  0  0  0  0
    2.7046   -9.0807    4.4783 H   0  0  0  0  0  0  0  0  0  0  0  0
    2.6424   -7.8339    5.7184 H   0  0  0  0  0  0  0  0  0  0  0  0
    4.1225   -8.1686    4.8166 H   0  0  0  0  0  0  0  0  0  0  0  0
  1  2  1  0
  1 31  1  0
  1 32  1  0
  1 33  1  0
  2 26  1  0
  2  3  2  3
  3  4  1  0
  3 34  1  0
  4 21  1  0
  4 23  1  0
  4  5  1  6
  5  6  1  0
  5 35  1  0
  5 36  1  0
  6 28  1  0
  6  7  1  6
  6  8  1  0
  7 37  1  0
  7 38  1  0
  7 39  1  0
  8  9  1  0
  8 25  1  0
  8 40  1  1
  9 10  2  3
  9 41  1  0
 10 11  1  0
 10 42  1  0
 11 17  1  0
 11 12  1  0
 11 43  1  6
 12 18  1  0
 12 13  1  0
 12 44  1  1
 13 14  1  0
 13 45  1  0
 13 46  1  0
 14 15  1  0
 15 16  2  0
 17 15  1  6
 17 18  1  0
 17 21  1  0
 18 19  2  3
 19 20  1  0
 20 47  1  0
 21 22  1  0
 21 48  1  1
 22 23  1  0
 22 49  1  0
 22 50  1  0
 23 24  1  0
 23 51  1  1
 25 26  1  0
 25 28  1  0
 25 52  1  6
 26 27  2  0
 28 29  1  0
 28 30  1  0
 29 53  1  0
 29 54  1  0
 29 55  1  0
 30 56  1  0
 30 57  1  0
 30 58  1  0
M  END
>  <i_m_ct_stereo_status>  (46) 
1

>  <s_m_source_file>  (46) 
/var/tmp/pbs.5076255.sched01/tmp9d3cgwpa/0mc_8ktg4.sdf

>  <i_m_source_file_index>  (46) 
17

>  <i_lp_mmshare_version>  (46) 
48012

>  <i_f3d_flags>  (46) 
0

>  <s_epik_input>  (46) 
W0NIM10vQyg9W0NIXS8xKUMoPU8pW0NAQEhdMkMoW0NIM10pKFtDSDNdKVtDQEBdKFtDSDJdMykoW0NIM10pW0NASF0yL1tDSF09W0NIXVxbQ0BASF0oW0NASF0oW0NIMl1PQzQ9TykvQzU9Ti9bT0hdKVtDQEBdNDVbQ0BASF0oW0NAQF0xMzYpW0NIMl1bQ0BASF02Rg==

>  <s_epik_cmdline>  (46) 
J2VwaWtfcHl0aG9uJywgJy1waHQnLCAnMi4wJywgJy1waCcsICc3LjAnLCAnLXRuJywgJzgnLCAnLW1hJywgJzIwMCcsICctaW1hZScsICc8aW5maWxlLm1hZT4nLCAnLW9tYWUnLCAnPG91dGZpbGUubWFlPic=

>  <r_lp_tautomer_probability>  (46) 
1

>  <r_epik_Ionization_Penalty>  (46) 
5.84987e-05

>  <r_epik_Ionization_Penalty_Charging>  (46) 
0

>  <r_epik_Ionization_Penalty_Neutral>  (46) 
5.84987e-05

>  <r_epik_State_Penalty>  (46) 
-0

>  <r_epik_Charging_Adjusted_Penalty>  (46) 
0

>  <i_epik_Tot_Q>  (46) 
0

>  <i_epik_Tot_abs_Q>  (46) 
0

>  <s_epik_Chemistry_Notes>  (46) 
This compound has an ester and may undergo hydrolysis at high or low pH. This compound has an imine and may undergo hydrolysis.

>  <s_lp_Force_Field>  (46) 
OPLS3e

>  <r_lp_Energy>  (46) 
194.398

>  <b_lp_Chiralities_Consistent>  (46) 
1

>  <s_lp_Variant>  (46) 
5:0-8

>  <s_i_glide_gridfile>  (46) 
pfpi4k_grid

>  <i_i_glide_lignum>  (46) 
17

>  <i_i_glide_rotatable_bonds>  (46) 
1

>  <r_i_docking_score>  (46) 
-2.38654

>  <r_i_glide_ligand_efficiency>  (46) 
-0.0795514

>  <r_i_glide_ligand_efficiency_sa>  (46) 
-0.247185

>  <r_i_glide_ligand_efficiency_ln>  (46) 
-0.542248

>  <r_i_glide_gscore>  (46) 
-2.38654

>  <r_i_glide_lipo>  (46) 
-0.253636

>  <r_i_glide_hbond>  (46) 
-0.134824

>  <r_i_glide_metal>  (46) 
-0

>  <r_i_glide_rewards>  (46) 
-0.738869

>  <r_i_glide_evdw>  (46) 
-20.5817

>  <r_i_glide_ecoul>  (46) 
-2.17381

>  <r_i_glide_erotb>  (46) 
0.115394

>  <r_i_glide_esite>  (46) 
-0.0194499

>  <r_i_glide_emodel>  (46) 
-25.8162

>  <r_i_glide_energy>  (46) 
-22.7555

>  <r_i_glide_einternal>  (46) 
-0.000838041

>  <r_i_glide_intrahb_reward>  (46) 
-0

>  <i_i_glide_confnum>  (46) 
2

>  <i_i_glide_posenum>  (46) 
6

>  <r_i_glide_eff_state_penalty>  (46) 
0

>  <ligand_id>  (46) 
5

>  <original_smiles>  (46) 
CC1=CC23CC4(C)C(C=CC5C6COC(=O)C5(C6=NO)C2CC3F)C(C1=O)C4(C)C

>  <smiles>  (46) 
[H]ON=C1C2([H])C([H])([H])OC(=O)C13C2([H])C([H])=C([H])C1([H])C2([H])C(=O)C(C([H])([H])[H])=C([H])C4(C([H])([H])C1(C([H])([H])[H])C2(C([H])([H])[H])C([H])([H])[H])C([H])(F)C([H])([H])C34[H]

$$$$
5:7:2
     RDKit          3D

 58 63  0  0  1  0  0  0  0  0999 V2000
    5.7769   -7.0499    5.9960 C   0  0  0  0  0  0  0  0  0  0  0  0
    4.9257   -6.1345    5.1410 C   0  0  0  0  0  0  0  0  0  0  0  0
    5.4687   -5.3726    4.1710 C   0  0  0  0  0  0  0  0  0  0  0  0
    5.8351   -6.0095    2.8074 C   0  0  1  0  0  0  0  0  0  0  0  0
    5.1748   -7.4290    2.5585 C   0  0  0  0  0  0  0  0  0  0  0  0
    3.6269   -7.6385    2.5827 C   0  0  2  0  0  0  0  0  0  0  0  0
    3.3219   -8.6181    1.4217 C   0  0  0  0  0  0  0  0  0  0  0  0
    2.9154   -6.3145    2.8175 C   0  0  1  0  0  0  0  0  0  0  0  0
    2.1732   -5.6267    1.7083 C   0  0  0  0  0  0  0  0  0  0  0  0
    2.9138   -5.6254    0.5776 C   0  0  0  0  0  0  0  0  0  0  0  0
    3.6809   -4.4625   -0.0447 C   0  0  1  0  0  0  0  0  0  0  0  0
    3.1359   -3.0346    0.1238 C   0  0  2  0  0  0  0  0  0  0  0  0
    3.6760   -2.0650   -0.9065 C   0  0  0  0  0  0  0  0  0  0  0  0
    5.1006   -2.2327   -1.0334 O   0  0  0  0  0  0  0  0  0  0  0  0
    5.8687   -3.1332   -0.3011 C   0  0  0  0  0  0  0  0  0  0  0  0
    7.0842   -3.1901   -0.4280 O   0  0  0  0  0  0  0  0  0  0  0  0
    5.0559   -4.0351    0.6543 C   0  0  1  0  0  0  0  0  0  0  0  0
    4.0667   -3.0633    1.2842 C   0  0  0  0  0  0  0  0  0  0  0  0
    4.0176   -2.4997    2.4110 N   0  0  0  0  0  0  0  0  0  0  0  0
    2.7568   -1.8119    2.5508 O   0  0  0  0  0  0  0  0  0  0  0  0
    5.9800   -4.7918    1.7355 C   0  0  2  0  0  0  0  0  0  0  0  0
    7.2028   -5.6082    1.2563 C   0  0  0  0  0  0  0  0  0  0  0  0
    7.3694   -6.0653    2.6980 C   0  0  2  0  0  0  0  0  0  0  0  0
    7.8728   -7.3007    2.7621 F   0  0  0  0  0  0  0  0  0  0  0  0
    2.5378   -6.6380    4.2579 C   0  0  2  0  0  0  0  0  0  0  0  0
    3.4453   -6.1276    5.3889 C   0  0  0  0  0  0  0  0  0  0  0  0
    3.0412   -5.7417    6.4899 O   0  0  0  0  0  0  0  0  0  0  0  0
    2.8017   -8.1149    3.8553 C   0  0  0  0  0  0  0  0  0  0  0  0
    1.4461   -8.8010    3.6132 C   0  0  0  0  0  0  0  0  0  0  0  0
    3.4817   -9.1248    4.7997 C   0  0  0  0  0  0  0  0  0  0  0  0
    5.1639   -7.7741    6.5398 H   0  0  0  0  0  0  0  0  0  0  0  0
    6.3235   -6.4755    6.7516 H   0  0  0  0  0  0  0  0  0  0  0  0
    6.5108   -7.5802    5.3814 H   0  0  0  0  0  0  0  0  0  0  0  0
    4.8816   -4.4985    3.9448 H   0  0  0  0  0  0  0  0  0  0  0  0
    5.5631   -7.7841    1.6042 H   0  0  0  0  0  0  0  0  0  0  0  0
    5.6407   -8.1396    3.2278 H   0  0  0  0  0  0  0  0  0  0  0  0
    2.2900   -8.5295    1.0829 H   0  0  0  0  0  0  0  0  0  0  0  0
    3.4600   -9.6530    1.7341 H   0  0  0  0  0  0  0  0  0  0  0  0
    3.9449   -8.5006    0.5335 H   0  0  0  0  0  0  0  0  0  0  0  0
    3.5222   -5.4482    2.8797 H   0  0  0  0  0  0  0  0  0  0  0  0
    1.6957   -4.7126    2.0430 H   0  0  0  0  0  0  0  0  0  0  0  0
    3.5247   -6.4858    0.3475 H   0  0  0  0  0  0  0  0  0  0  0  0
    3.8900   -4.6766   -1.0906 H   0  0  0  0  0  0  0  0  0  0  0  0
    2.0596   -2.9933    0.3233 H   0  0  0  0  0  0  0  0  0  0  0  0
    3.2097   -2.2434   -1.8728 H   0  0  0  0  0  0  0  0  0  0  0  0
    3.4767   -1.0314   -0.6393 H   0  0  0  0  0  0  0  0  0  0  0  0
    2.7270   -1.2922    1.7772 H   0  0  0  0  0  0  0  0  0  0  0  0
    6.4209   -3.9546    2.2914 H   0  0  0  0  0  0  0  0  0  0  0  0
    6.9112   -6.4088    0.5803 H   0  0  0  0  0  0  0  0  0  0  0  0
    8.0759   -5.0507    0.9142 H   0  0  0  0  0  0  0  0  0  0  0  0
    7.9447   -5.3751    3.3135 H   0  0  0  0  0  0  0  0  0  0  0  0
    1.4706   -6.4785    4.4210 H   0  0  0  0  0  0  0  0  0  0  0  0
    0.8786   -8.9062    4.5470 H   0  0  0  0  0  0  0  0  0  0  0  0
    1.5418   -9.8040    3.1798 H   0  0  0  0  0  0  0  0  0  0  0  0
    0.8220   -8.2122    2.9326 H   0  0  0  0  0  0  0  0  0  0  0  0
    3.3235  -10.1623    4.4766 H   0  0  0  0  0  0  0  0  0  0  0  0
    3.1245   -9.0483    5.8323 H   0  0  0  0  0  0  0  0  0  0  0  0
    4.5632   -9.0178    4.8106 H   0  0  0  0  0  0  0  0  0  0  0  0
  1  2  1  0
  1 31  1  0
  1 32  1  0
  1 33  1  0
  2 26  1  0
  2  3  2  3
  3  4  1  0
  3 34  1  0
  4 21  1  0
  4 23  1  0
  4  5  1  6
  5  6  1  0
  5 35  1  0
  5 36  1  0
  6 28  1  0
  6  7  1  6
  6  8  1  0
  7 37  1  0
  7 38  1  0
  7 39  1  0
  8  9  1  0
  8 25  1  0
  8 40  1  1
  9 10  2  3
  9 41  1  0
 10 11  1  0
 10 42  1  0
 11 17  1  0
 11 12  1  0
 11 43  1  6
 12 18  1  0
 12 13  1  0
 12 44  1  1
 13 14  1  0
 13 45  1  0
 13 46  1  0
 14 15  1  0
 15 16  2  0
 17 15  1  6
 17 18  1  0
 17 21  1  0
 18 19  2  3
 19 20  1  0
 20 47  1  0
 21 22  1  0
 21 48  1  1
 22 23  1  0
 22 49  1  0
 22 50  1  0
 23 24  1  0
 23 51  1  1
 25 26  1  0
 25 28  1  0
 25 52  1  1
 26 27  2  0
 28 29  1  0
 28 30  1  0
 29 53  1  0
 29 54  1  0
 29 55  1  0
 30 56  1  0
 30 57  1  0
 30 58  1  0
M  END
>  <i_m_ct_stereo_status>  (47) 
1

>  <s_m_source_file>  (47) 
/var/tmp/pbs.5076255.sched01/tmp9d3cgwpa/0mc_8ktg4.sdf

>  <i_m_source_file_index>  (47) 
17

>  <i_lp_mmshare_version>  (47) 
48012

>  <i_f3d_flags>  (47) 
0

>  <s_epik_input>  (47) 
W0NIM10vQyg9W0NIXS8xKUMoPU8pW0NAQEhdMkMoW0NIM10pKFtDSDNdKVtDQEBdKFtDSDJdMykoW0NIM10pW0NASF0yL1tDSF09W0NIXVxbQ0BASF0oW0NASF0oW0NIMl1PQzQ9TykvQzU9Ti9bT0hdKVtDQEBdNDVbQ0BASF0oW0NAQF0xMzYpW0NIMl1bQ0BASF02Rg==

>  <s_epik_cmdline>  (47) 
J2VwaWtfcHl0aG9uJywgJy1waHQnLCAnMi4wJywgJy1waCcsICc3LjAnLCAnLXRuJywgJzgnLCAnLW1hJywgJzIwMCcsICctaW1hZScsICc8aW5maWxlLm1hZT4nLCAnLW9tYWUnLCAnPG91dGZpbGUubWFlPic=

>  <r_lp_tautomer_probability>  (47) 
1

>  <r_epik_Ionization_Penalty>  (47) 
5.84987e-05

>  <r_epik_Ionization_Penalty_Charging>  (47) 
0

>  <r_epik_Ionization_Penalty_Neutral>  (47) 
5.84987e-05

>  <r_epik_State_Penalty>  (47) 
-0

>  <r_epik_Charging_Adjusted_Penalty>  (47) 
0

>  <i_epik_Tot_Q>  (47) 
0

>  <i_epik_Tot_abs_Q>  (47) 
0

>  <s_epik_Chemistry_Notes>  (47) 
This compound has an ester and may undergo hydrolysis at high or low pH. This compound has an imine and may undergo hydrolysis.

>  <s_lp_Force_Field>  (47) 
OPLS3e

>  <r_lp_Energy>  (47) 
194.398

>  <b_lp_Chiralities_Consistent>  (47) 
1

>  <s_lp_Variant>  (47) 
5:0-8

>  <s_i_glide_gridfile>  (47) 
pfpi4k_grid

>  <i_i_glide_lignum>  (47) 
17

>  <i_i_glide_rotatable_bonds>  (47) 
1

>  <r_i_docking_score>  (47) 
-2.22862

>  <r_i_glide_ligand_efficiency>  (47) 
-0.0742874

>  <r_i_glide_ligand_efficiency_sa>  (47) 
-0.230828

>  <r_i_glide_ligand_efficiency_ln>  (47) 
-0.506367

>  <r_i_glide_gscore>  (47) 
-2.22862

>  <r_i_glide_lipo>  (47) 
-0.2099

>  <r_i_glide_hbond>  (47) 
0

>  <r_i_glide_metal>  (47) 
-0

>  <r_i_glide_rewards>  (47) 
-0.666255

>  <r_i_glide_evdw>  (47) 
-19.6924

>  <r_i_glide_ecoul>  (47) 
-3.01177

>  <r_i_glide_erotb>  (47) 
0.115394

>  <r_i_glide_esite>  (47) 
-0.0314741

>  <r_i_glide_emodel>  (47) 
-25.4626

>  <r_i_glide_energy>  (47) 
-22.7042

>  <r_i_glide_einternal>  (47) 
-0.00362394

>  <r_i_glide_intrahb_reward>  (47) 
-0

>  <i_i_glide_confnum>  (47) 
1

>  <i_i_glide_posenum>  (47) 
12

>  <r_i_glide_eff_state_penalty>  (47) 
0

>  <ligand_id>  (47) 
5

>  <original_smiles>  (47) 
CC1=CC23CC4(C)C(C=CC5C6COC(=O)C5(C6=NO)C2CC3F)C(C1=O)C4(C)C

>  <smiles>  (47) 
[H]ON=C1C2([H])C([H])([H])OC(=O)C13C2([H])C([H])=C([H])C1([H])C2([H])C(=O)C(C([H])([H])[H])=C([H])C4(C([H])([H])C1(C([H])([H])[H])C2(C([H])([H])[H])C([H])([H])[H])C([H])(F)C([H])([H])C34[H]

$$$$
6:0:0
     RDKit          3D

 64 68  0  0  1  0  0  0  0  0999 V2000
    1.8336   -6.7055    6.9477 C   0  0  0  0  0  0  0  0  0  0  0  0
    2.0022   -7.6567    5.9001 O   0  0  0  0  0  0  0  0  0  0  0  0
    2.2898   -7.1020    4.6108 C   0  0  2  0  0  0  0  0  0  0  0  0
    1.3081   -7.6699    3.5776 C   0  0  1  0  0  0  0  0  0  0  0  0
    0.9125   -9.1270    3.7666 C   0  0  2  0  0  0  0  0  0  0  0  0
    1.3226  -10.0808    2.6661 C   0  0  0  0  0  0  0  0  0  0  0  0
    2.8447  -10.3245    2.6286 C   0  0  2  0  0  0  0  0  0  0  0  0
    3.3912  -10.8133    3.8375 O   0  0  0  0  0  0  0  0  0  0  0  0
    3.9682   -9.7956    4.5809 C   0  0  1  0  0  0  0  0  0  0  0  0
    5.0282  -10.2670    5.3789 O   0  0  0  0  0  0  0  0  0  0  0  0
    4.3900   -8.6397    3.5851 C   0  0  2  0  0  0  0  0  0  0  0  0
    3.6824   -9.0998    2.2614 C   0  0  1  0  0  0  0  0  0  0  0  0
    4.5152   -9.4548    1.1732 O   0  0  0  0  0  0  0  0  0  0  0  0
    5.9857   -8.5162    3.4490 C   0  0  1  0  0  0  0  0  0  0  0  0
    6.8456   -9.7390    2.9707 C   0  0  0  0  0  0  0  0  0  0  0  0
    6.2182  -11.0077    2.9782 O   0  0  0  0  0  0  0  0  0  0  0  0
    6.4761   -7.2341    2.6979 C   0  0  1  0  0  0  0  0  0  0  0  0
    6.3097   -7.3598    1.2967 O   0  0  0  0  0  0  0  0  0  0  0  0
    5.8461   -5.9039    3.2042 C   0  0  1  0  0  0  0  0  0  0  0  0
    6.5350   -5.4848    4.3655 O   0  0  0  0  0  0  0  0  0  0  0  0
    5.8883   -4.8120    2.1588 C   0  0  0  0  0  0  0  0  0  0  0  0
    4.6952   -4.6058    1.5941 C   0  0  0  0  0  0  0  0  0  0  0  0
    4.3628   -3.6847    0.4464 C   0  0  0  0  0  0  0  0  0  0  0  0
    3.6437   -5.5026    2.1940 C   0  0  0  0  0  0  0  0  0  0  0  0
    4.3297   -5.9936    3.4926 C   0  0  1  0  0  0  0  0  0  0  0  0
    3.8289   -7.2755    4.2278 C   0  0  1  0  0  0  0  0  0  0  0  0
    4.4936   -7.1361    5.4852 O   0  0  0  0  0  0  0  0  0  0  0  0
   -0.1580   -8.0664    3.7072 C   0  0  0  0  0  0  0  0  0  0  0  0
   -0.9602   -7.7552    4.9415 C   0  0  0  0  0  0  0  0  0  0  0  0
   -1.0665   -7.9543    2.4932 C   0  0  0  0  0  0  0  0  0  0  0  0
    1.6130   -7.2391    7.8723 H   0  0  0  0  0  0  0  0  0  0  0  0
    1.0004   -6.0301    6.7440 H   0  0  0  0  0  0  0  0  0  0  0  0
    2.7352   -6.1116    7.1089 H   0  0  0  0  0  0  0  0  0  0  0  0
    2.0636   -6.0363    4.6477 H   0  0  0  0  0  0  0  0  0  0  0  0
    1.4777   -7.2677    2.5833 H   0  0  0  0  0  0  0  0  0  0  0  0
    1.0183   -9.5852    4.7504 H   0  0  0  0  0  0  0  0  0  0  0  0
    0.8027  -11.0272    2.8324 H   0  0  0  0  0  0  0  0  0  0  0  0
    1.0060   -9.7168    1.6911 H   0  0  0  0  0  0  0  0  0  0  0  0
    3.0073  -11.1160    1.9152 H   0  0  0  0  0  0  0  0  0  0  0  0
    3.2031   -9.5177    5.2924 H   0  0  0  0  0  0  0  0  0  0  0  0
    5.6268  -10.7058    4.7882 H   0  0  0  0  0  0  0  0  0  0  0  0
    3.0610   -8.3379    1.8191 H   0  0  0  0  0  0  0  0  0  0  0  0
    4.3011  -10.3459    0.8820 H   0  0  0  0  0  0  0  0  0  0  0  0
    6.3527   -8.3665    4.4644 H   0  0  0  0  0  0  0  0  0  0  0  0
    7.2225   -9.5777    1.9592 H   0  0  0  0  0  0  0  0  0  0  0  0
    7.7195   -9.8213    3.6251 H   0  0  0  0  0  0  0  0  0  0  0  0
    5.4494  -10.9569    2.4183 H   0  0  0  0  0  0  0  0  0  0  0  0
    7.5574   -7.1631    2.8375 H   0  0  0  0  0  0  0  0  0  0  0  0
    5.4175   -7.6368    1.1243 H   0  0  0  0  0  0  0  0  0  0  0  0
    6.3379   -6.1198    5.0440 H   0  0  0  0  0  0  0  0  0  0  0  0
    6.7999   -4.3060    1.8906 H   0  0  0  0  0  0  0  0  0  0  0  0
    3.5701   -2.9948    0.7353 H   0  0  0  0  0  0  0  0  0  0  0  0
    4.0182   -4.2713   -0.4063 H   0  0  0  0  0  0  0  0  0  0  0  0
    5.2387   -3.1113    0.1416 H   0  0  0  0  0  0  0  0  0  0  0  0
    2.7232   -4.9545    2.3883 H   0  0  0  0  0  0  0  0  0  0  0  0
    3.4499   -6.2908    1.4719 H   0  0  0  0  0  0  0  0  0  0  0  0
    4.1325   -5.1768    4.1882 H   0  0  0  0  0  0  0  0  0  0  0  0
    4.1517   -7.8056    6.0653 H   0  0  0  0  0  0  0  0  0  0  0  0
   -1.8822   -8.3361    4.9223 H   0  0  0  0  0  0  0  0  0  0  0  0
   -1.1943   -6.6909    4.9846 H   0  0  0  0  0  0  0  0  0  0  0  0
   -0.4059   -8.0404    5.8332 H   0  0  0  0  0  0  0  0  0  0  0  0
   -1.8514   -8.7115    2.5371 H   0  0  0  0  0  0  0  0  0  0  0  0
   -0.5031   -8.0938    1.5725 H   0  0  0  0  0  0  0  0  0  0  0  0
   -1.5343   -6.9714    2.4661 H   0  0  0  0  0  0  0  0  0  0  0  0
  1  2  1  0
  1 31  1  0
  1 32  1  0
  1 33  1  0
  2  3  1  0
  3 26  1  0
  3  4  1  0
  3 34  1  1
  4 28  1  0
  4  5  1  0
  4 35  1  6
  5  6  1  0
  5 28  1  0
  5 36  1  1
  6  7  1  0
  6 37  1  0
  6 38  1  0
  7 12  1  0
  7  8  1  0
  7 39  1  6
  8  9  1  0
  9 10  1  0
  9 11  1  0
  9 40  1  1
 10 41  1  0
 11 26  1  1
 11 12  1  0
 11 14  1  0
 12 13  1  0
 12 42  1  6
 13 43  1  0
 14 15  1  0
 14 17  1  0
 14 44  1  1
 15 16  1  0
 15 45  1  0
 15 46  1  0
 16 47  1  0
 17 18  1  0
 17 19  1  0
 17 48  1  6
 18 49  1  0
 19 25  1  0
 19 20  1  1
 19 21  1  0
 20 50  1  0
 21 22  2  0
 21 51  1  0
 22 23  1  0
 22 24  1  0
 23 52  1  0
 23 53  1  0
 23 54  1  0
 24 25  1  0
 24 55  1  0
 24 56  1  0
 25 26  1  0
 25 57  1  1
 26 27  1  1
 27 58  1  0
 28 29  1  0
 28 30  1  0
 29 59  1  0
 29 60  1  0
 29 61  1  0
 30 62  1  0
 30 63  1  0
 30 64  1  0
M  END
>  <i_m_ct_stereo_status>  (48) 
1

>  <s_m_source_file>  (48) 
/var/tmp/pbs.5076255.sched01/tmp9d3cgwpa/0mc_8ktg4.sdf

>  <i_m_source_file_index>  (48) 
18

>  <i_lp_mmshare_version>  (48) 
48012

>  <i_f3d_flags>  (48) 
0

>  <s_epik_input>  (48) 
W09IXVtDSDJdW0NASF0xW0NAQEhdKFtPSF0pW0NAQF0oW09IXSkoW0NIXT1DKFtDSDNdKVtDSDJdMilbQ0BASF0yW0NAQF0oW0NAQF0xMzQpKFtPSF0pW0NASF0oT1tDSDNdKVtDQEhdNVtDQEBIXShDNShbQ0gzXSlbQ0gzXSlbQ0gyXVtDQEBIXShbQ0BASF00W09IXSlPW0NASF0zW09IXQ==

>  <s_epik_cmdline>  (48) 
J2VwaWtfcHl0aG9uJywgJy1waHQnLCAnMi4wJywgJy1waCcsICc3LjAnLCAnLXRuJywgJzgnLCAnLW1hJywgJzIwMCcsICctaW1hZScsICc8aW5maWxlLm1hZT4nLCAnLW9tYWUnLCAnPG91dGZpbGUubWFlPic=

>  <r_lp_tautomer_probability>  (48) 
1

>  <r_epik_Ionization_Penalty>  (48) 
6.08564e-07

>  <r_epik_Ionization_Penalty_Charging>  (48) 
0

>  <r_epik_Ionization_Penalty_Neutral>  (48) 
6.08564e-07

>  <r_epik_State_Penalty>  (48) 
-0

>  <r_epik_Charging_Adjusted_Penalty>  (48) 
0

>  <i_epik_Tot_Q>  (48) 
0

>  <i_epik_Tot_abs_Q>  (48) 
0

>  <s_epik_Chemistry_Notes>  (48) 
This compound contains an acetal/aminal-like group ( X-CH(R)-Y where X, Y are N, S, or O) that may be acid/base labile, releasing an aldehyde.

>  <s_lp_Force_Field>  (48) 
OPLS3e

>  <r_lp_Energy>  (48) 
55.4122

>  <b_lp_Chiralities_Consistent>  (48) 
1

>  <s_lp_Variant>  (48) 
6:0-1

>  <s_i_glide_gridfile>  (48) 
pfpi4k_grid

>  <i_i_glide_lignum>  (48) 
18

>  <i_i_glide_rotatable_bonds>  (48) 
8

>  <r_i_docking_score>  (48) 
-3.71694

>  <r_i_glide_ligand_efficiency>  (48) 
-0.123898

>  <r_i_glide_ligand_efficiency_sa>  (48) 
-0.38498

>  <r_i_glide_ligand_efficiency_ln>  (48) 
-0.844529

>  <r_i_glide_gscore>  (48) 
-3.71694

>  <r_i_glide_lipo>  (48) 
-0.268546

>  <r_i_glide_hbond>  (48) 
0

>  <r_i_glide_metal>  (48) 
-0

>  <r_i_glide_rewards>  (48) 
-2.00113

>  <r_i_glide_evdw>  (48) 
-18.1117

>  <r_i_glide_ecoul>  (48) 
-4.30807

>  <r_i_glide_erotb>  (48) 
0.109106

>  <r_i_glide_esite>  (48) 
-0.00456623

>  <r_i_glide_emodel>  (48) 
-40.6082

>  <r_i_glide_energy>  (48) 
-22.4198

>  <r_i_glide_einternal>  (48) 
7.48212

>  <r_i_glide_intrahb_reward>  (48) 
-1.5

>  <i_i_glide_confnum>  (48) 
3

>  <i_i_glide_posenum>  (48) 
40

>  <r_i_glide_eff_state_penalty>  (48) 
0

>  <ligand_id>  (48) 
6

>  <original_smiles>  (48) 
COC1C2C(CC3OC(O)C4(C3O)C(CO)C(O)C3(O)C=C(C)CC3C14O)C2(C)C

>  <smiles>  (48) 
[H]OC([H])([H])C1([H])C([H])(O[H])C2(O[H])C([H])=C(C([H])([H])[H])C([H])([H])C2([H])C2(O[H])C([H])(OC([H])([H])[H])C3([H])C([H])(C([H])([H])C4([H])OC([H])(O[H])C12C4([H])O[H])C3(C([H])([H])[H])C([H])([H])[H]

$$$$
6:0:1
     RDKit          3D

 64 68  0  0  1  0  0  0  0  0999 V2000
    0.6821   -7.8256    7.2988 C   0  0  0  0  0  0  0  0  0  0  0  0
    1.0612   -8.6682    6.2145 O   0  0  0  0  0  0  0  0  0  0  0  0
    1.7680   -8.0236    5.1464 C   0  0  2  0  0  0  0  0  0  0  0  0
    1.0608   -8.3236    3.8279 C   0  0  1  0  0  0  0  0  0  0  0  0
    0.4864   -9.7256    3.6925 C   0  0  2  0  0  0  0  0  0  0  0  0
    1.0898  -10.6030    2.6296 C   0  0  0  0  0  0  0  0  0  0  0  0
    2.5345  -11.0652    2.9289 C   0  0  2  0  0  0  0  0  0  0  0  0
    2.7005  -11.7611    4.1548 O   0  0  0  0  0  0  0  0  0  0  0  0
    3.1291  -10.9154    5.1600 C   0  0  1  0  0  0  0  0  0  0  0  0
    3.8072  -11.6191    6.1939 O   0  0  0  0  0  0  0  0  0  0  0  0
    3.9134   -9.7175    4.4956 C   0  0  2  0  0  0  0  0  0  0  0  0
    3.5497   -9.9212    2.9777 C   0  0  1  0  0  0  0  0  0  0  0  0
    4.5890  -10.2681    2.0807 O   0  0  0  0  0  0  0  0  0  0  0  0
    5.4947   -9.7784    4.7695 C   0  0  1  0  0  0  0  0  0  0  0  0
    6.2629  -11.1109    4.4518 C   0  0  0  0  0  0  0  0  0  0  0  0
    6.8948  -11.1828    3.1918 O   0  0  0  0  0  0  0  0  0  0  0  0
    6.2983   -8.4816    4.4047 C   0  0  1  0  0  0  0  0  0  0  0  0
    6.4829   -8.3865    2.9977 O   0  0  0  0  0  0  0  0  0  0  0  0
    5.6878   -7.1525    4.9520 C   0  0  1  0  0  0  0  0  0  0  0  0
    6.1153   -6.9362    6.2889 O   0  0  0  0  0  0  0  0  0  0  0  0
    6.1175   -5.9539    4.1192 C   0  0  0  0  0  0  0  0  0  0  0  0
    5.1654   -5.5401    3.3141 C   0  0  0  0  0  0  0  0  0  0  0  0
    5.2663   -4.4598    2.2398 C   0  0  0  0  0  0  0  0  0  0  0  0
    3.9016   -6.3550    3.4597 C   0  0  0  0  0  0  0  0  0  0  0  0
    4.1469   -7.0784    4.8124 C   0  0  1  0  0  0  0  0  0  0  0  0
    3.3322   -8.3624    5.1656 C   0  0  1  0  0  0  0  0  0  0  0  0
    3.6001   -8.4764    6.5645 O   0  0  0  0  0  0  0  0  0  0  0  0
   -0.4198   -8.5232    3.4994 C   0  0  0  0  0  0  0  0  0  0  0  0
   -1.5029   -8.2385    4.5095 C   0  0  0  0  0  0  0  0  0  0  0  0
   -0.9234   -8.1377    2.1183 C   0  0  0  0  0  0  0  0  0  0  0  0
    0.1570   -8.4215    8.0458 H   0  0  0  0  0  0  0  0  0  0  0  0
    0.0087   -7.0303    6.9744 H   0  0  0  0  0  0  0  0  0  0  0  0
    1.5475   -7.3704    7.7825 H   0  0  0  0  0  0  0  0  0  0  0  0
    1.6520   -6.9505    5.2843 H   0  0  0  0  0  0  0  0  0  0  0  0
    1.5408   -7.8388    2.9834 H   0  0  0  0  0  0  0  0  0  0  0  0
    0.2506  -10.2941    4.5894 H   0  0  0  0  0  0  0  0  0  0  0  0
    0.4398  -11.4681    2.4965 H   0  0  0  0  0  0  0  0  0  0  0  0
    1.0913  -10.0626    1.6838 H   0  0  0  0  0  0  0  0  0  0  0  0
    2.8051  -11.7823    2.1655 H   0  0  0  0  0  0  0  0  0  0  0  0
    2.2205  -10.6037    5.6471 H   0  0  0  0  0  0  0  0  0  0  0  0
    3.1930  -12.2062    6.5817 H   0  0  0  0  0  0  0  0  0  0  0  0
    3.1474   -9.0286    2.5181 H   0  0  0  0  0  0  0  0  0  0  0  0
    4.2620  -10.9068    1.4567 H   0  0  0  0  0  0  0  0  0  0  0  0
    5.5573   -9.7856    5.8517 H   0  0  0  0  0  0  0  0  0  0  0  0
    7.0545  -11.2460    5.1930 H   0  0  0  0  0  0  0  0  0  0  0  0
    5.6110  -11.9832    4.5259 H   0  0  0  0  0  0  0  0  0  0  0  0
    6.2509  -10.9067    2.5440 H   0  0  0  0  0  0  0  0  0  0  0  0
    7.3021   -8.5869    4.8167 H   0  0  0  0  0  0  0  0  0  0  0  0
    5.6745   -8.5968    2.5732 H   0  0  0  0  0  0  0  0  0  0  0  0
    7.0225   -7.1655    6.3528 H   0  0  0  0  0  0  0  0  0  0  0  0
    7.1209   -5.5469    4.1806 H   0  0  0  0  0  0  0  0  0  0  0  0
    4.5017   -3.7091    2.4089 H   0  0  0  0  0  0  0  0  0  0  0  0
    5.1217   -4.9014    1.2558 H   0  0  0  0  0  0  0  0  0  0  0  0
    6.2448   -3.9874    2.2688 H   0  0  0  0  0  0  0  0  0  0  0  0
    3.0207   -5.7150    3.4736 H   0  0  0  0  0  0  0  0  0  0  0  0
    3.8451   -7.0224    2.6009 H   0  0  0  0  0  0  0  0  0  0  0  0
    3.8361   -6.3290    5.5396 H   0  0  0  0  0  0  0  0  0  0  0  0
    3.1102   -9.2046    6.9073 H   0  0  0  0  0  0  0  0  0  0  0  0
   -2.4475   -8.6649    4.1680 H   0  0  0  0  0  0  0  0  0  0  0  0
   -1.6222   -7.1640    4.6543 H   0  0  0  0  0  0  0  0  0  0  0  0
   -1.2599   -8.7049    5.4596 H   0  0  0  0  0  0  0  0  0  0  0  0
   -1.7643   -8.7712    1.8289 H   0  0  0  0  0  0  0  0  0  0  0  0
   -0.1400   -8.2545    1.3719 H   0  0  0  0  0  0  0  0  0  0  0  0
   -1.2505   -7.0969    2.1120 H   0  0  0  0  0  0  0  0  0  0  0  0
  1  2  1  0
  1 31  1  0
  1 32  1  0
  1 33  1  0
  2  3  1  0
  3 26  1  0
  3  4  1  0
  3 34  1  1
  4 28  1  0
  4  5  1  0
  4 35  1  6
  5  6  1  0
  5 28  1  0
  5 36  1  1
  6  7  1  0
  6 37  1  0
  6 38  1  0
  7 12  1  0
  7  8  1  0
  7 39  1  6
  8  9  1  0
  9 10  1  0
  9 11  1  0
  9 40  1  1
 10 41  1  0
 11 26  1  1
 11 12  1  0
 11 14  1  0
 12 13  1  0
 12 42  1  6
 13 43  1  0
 14 15  1  0
 14 17  1  0
 14 44  1  1
 15 16  1  0
 15 45  1  0
 15 46  1  0
 16 47  1  0
 17 18  1  0
 17 19  1  0
 17 48  1  1
 18 49  1  0
 19 25  1  0
 19 20  1  1
 19 21  1  0
 20 50  1  0
 21 22  2  0
 21 51  1  0
 22 23  1  0
 22 24  1  0
 23 52  1  0
 23 53  1  0
 23 54  1  0
 24 25  1  0
 24 55  1  0
 24 56  1  0
 25 26  1  0
 25 57  1  1
 26 27  1  1
 27 58  1  0
 28 29  1  0
 28 30  1  0
 29 59  1  0
 29 60  1  0
 29 61  1  0
 30 62  1  0
 30 63  1  0
 30 64  1  0
M  END
>  <i_m_ct_stereo_status>  (49) 
1

>  <s_m_source_file>  (49) 
/var/tmp/pbs.5076255.sched01/tmp9d3cgwpa/0mc_8ktg4.sdf

>  <i_m_source_file_index>  (49) 
18

>  <i_lp_mmshare_version>  (49) 
48012

>  <i_f3d_flags>  (49) 
0

>  <s_epik_input>  (49) 
W09IXVtDSDJdW0NASF0xW0NAQEhdKFtPSF0pW0NAQF0oW09IXSkoW0NIXT1DKFtDSDNdKVtDSDJdMilbQ0BASF0yW0NAQF0oW0NAQF0xMzQpKFtPSF0pW0NASF0oT1tDSDNdKVtDQEhdNVtDQEBIXShDNShbQ0gzXSlbQ0gzXSlbQ0gyXVtDQEBIXShbQ0BASF00W09IXSlPW0NASF0zW09IXQ==

>  <s_epik_cmdline>  (49) 
J2VwaWtfcHl0aG9uJywgJy1waHQnLCAnMi4wJywgJy1waCcsICc3LjAnLCAnLXRuJywgJzgnLCAnLW1hJywgJzIwMCcsICctaW1hZScsICc8aW5maWxlLm1hZT4nLCAnLW9tYWUnLCAnPG91dGZpbGUubWFlPic=

>  <r_lp_tautomer_probability>  (49) 
1

>  <r_epik_Ionization_Penalty>  (49) 
6.08564e-07

>  <r_epik_Ionization_Penalty_Charging>  (49) 
0

>  <r_epik_Ionization_Penalty_Neutral>  (49) 
6.08564e-07

>  <r_epik_State_Penalty>  (49) 
-0

>  <r_epik_Charging_Adjusted_Penalty>  (49) 
0

>  <i_epik_Tot_Q>  (49) 
0

>  <i_epik_Tot_abs_Q>  (49) 
0

>  <s_epik_Chemistry_Notes>  (49) 
This compound contains an acetal/aminal-like group ( X-CH(R)-Y where X, Y are N, S, or O) that may be acid/base labile, releasing an aldehyde.

>  <s_lp_Force_Field>  (49) 
OPLS3e

>  <r_lp_Energy>  (49) 
55.4122

>  <b_lp_Chiralities_Consistent>  (49) 
1

>  <s_lp_Variant>  (49) 
6:0-1

>  <s_i_glide_gridfile>  (49) 
pfpi4k_grid

>  <i_i_glide_lignum>  (49) 
18

>  <i_i_glide_rotatable_bonds>  (49) 
8

>  <r_i_docking_score>  (49) 
-3.61807

>  <r_i_glide_ligand_efficiency>  (49) 
-0.120602

>  <r_i_glide_ligand_efficiency_sa>  (49) 
-0.37474

>  <r_i_glide_ligand_efficiency_ln>  (49) 
-0.822065

>  <r_i_glide_gscore>  (49) 
-3.61807

>  <r_i_glide_lipo>  (49) 
-0.187486

>  <r_i_glide_hbond>  (49) 
0

>  <r_i_glide_metal>  (49) 
-0

>  <r_i_glide_rewards>  (49) 
-1.50113

>  <r_i_glide_evdw>  (49) 
-17.7654

>  <r_i_glide_ecoul>  (49) 
-7.36033

>  <r_i_glide_erotb>  (49) 
0.109106

>  <r_i_glide_esite>  (49) 
-0.0462406

>  <r_i_glide_emodel>  (49) 
-37.364

>  <r_i_glide_energy>  (49) 
-25.1257

>  <r_i_glide_einternal>  (49) 
8.49795

>  <r_i_glide_intrahb_reward>  (49) 
-1

>  <i_i_glide_confnum>  (49) 
2

>  <i_i_glide_posenum>  (49) 
35

>  <r_i_glide_eff_state_penalty>  (49) 
0

>  <ligand_id>  (49) 
6

>  <original_smiles>  (49) 
COC1C2C(CC3OC(O)C4(C3O)C(CO)C(O)C3(O)C=C(C)CC3C14O)C2(C)C

>  <smiles>  (49) 
[H]OC([H])([H])C1([H])C([H])(O[H])C2(O[H])C([H])=C(C([H])([H])[H])C([H])([H])C2([H])C2(O[H])C([H])(OC([H])([H])[H])C3([H])C([H])(C([H])([H])C4([H])OC([H])(O[H])C12C4([H])O[H])C3(C([H])([H])[H])C([H])([H])[H]

$$$$
6:0:2
     RDKit          3D

 64 68  0  0  1  0  0  0  0  0999 V2000
    1.1604   -6.1654    6.4230 C   0  0  0  0  0  0  0  0  0  0  0  0
    1.5241   -7.1849    5.4923 O   0  0  0  0  0  0  0  0  0  0  0  0
    1.6033   -6.7749    4.1291 C   0  0  2  0  0  0  0  0  0  0  0  0
    0.7180   -7.6837    3.2628 C   0  0  1  0  0  0  0  0  0  0  0  0
    0.6648   -9.1408    3.6599 C   0  0  2  0  0  0  0  0  0  0  0  0
    1.2131  -10.1434    2.6747 C   0  0  0  0  0  0  0  0  0  0  0  0
    2.7402  -10.0770    2.5321 C   0  0  2  0  0  0  0  0  0  0  0  0
    3.4645  -10.2412    3.7347 O   0  0  0  0  0  0  0  0  0  0  0  0
    3.8344   -9.0267    4.3018 C   0  0  1  0  0  0  0  0  0  0  0  0
    5.0024   -9.1394    5.0708 O   0  0  0  0  0  0  0  0  0  0  0  0
    3.9162   -7.9658    3.1237 C   0  0  2  0  0  0  0  0  0  0  0  0
    3.2593   -8.7583    1.9439 C   0  0  1  0  0  0  0  0  0  0  0  0
    4.1150   -9.0773    0.8733 O   0  0  0  0  0  0  0  0  0  0  0  0
    5.4399   -7.5212    2.8490 C   0  0  1  0  0  0  0  0  0  0  0  0
    6.5345   -8.5814    2.4602 C   0  0  0  0  0  0  0  0  0  0  0  0
    6.2335   -9.9444    2.6674 O   0  0  0  0  0  0  0  0  0  0  0  0
    5.5902   -6.2717    1.9105 C   0  0  1  0  0  0  0  0  0  0  0  0
    5.3831   -6.6240    0.5612 O   0  0  0  0  0  0  0  0  0  0  0  0
    4.7146   -5.0538    2.2938 C   0  0  1  0  0  0  0  0  0  0  0  0
    5.3570   -4.3311    3.3192 O   0  0  0  0  0  0  0  0  0  0  0  0
    4.4666   -4.1525    1.1118 C   0  0  0  0  0  0  0  0  0  0  0  0
    3.2091   -4.2714    0.6458 C   0  0  0  0  0  0  0  0  0  0  0  0
    2.6410   -3.5947   -0.5732 C   0  0  0  0  0  0  0  0  0  0  0  0
    2.4226   -5.2843    1.4336 C   0  0  0  0  0  0  0  0  0  0  0  0
    3.2728   -5.4318    2.7263 C   0  0  1  0  0  0  0  0  0  0  0  0
    3.1177   -6.6832    3.6516 C   0  0  1  0  0  0  0  0  0  0  0  0
    3.7993   -6.2165    4.8161 O   0  0  0  0  0  0  0  0  0  0  0  0
   -0.6121   -8.3519    3.5651 C   0  0  0  0  0  0  0  0  0  0  0  0
   -1.3786   -8.0316    4.8289 C   0  0  0  0  0  0  0  0  0  0  0  0
   -1.6030   -8.5972    2.4437 C   0  0  0  0  0  0  0  0  0  0  0  0
    1.1173   -6.5929    7.4264 H   0  0  0  0  0  0  0  0  0  0  0  0
    0.1759   -5.7490    6.1966 H   0  0  0  0  0  0  0  0  0  0  0  0
    1.8903   -5.3526    6.4336 H   0  0  0  0  0  0  0  0  0  0  0  0
    1.1480   -5.7864    4.0579 H   0  0  0  0  0  0  0  0  0  0  0  0
    0.7342   -7.3993    2.2236 H   0  0  0  0  0  0  0  0  0  0  0  0
    0.9204   -9.4168    4.6800 H   0  0  0  0  0  0  0  0  0  0  0  0
    0.9144  -11.1329    3.0041 H   0  0  0  0  0  0  0  0  0  0  0  0
    0.7602   -9.9961    1.6862 H   0  0  0  0  0  0  0  0  0  0  0  0
    3.0191  -10.9208    1.9082 H   0  0  0  0  0  0  0  0  0  0  0  0
    3.0564   -8.8221    5.0257 H   0  0  0  0  0  0  0  0  0  0  0  0
    5.6695   -9.4890    4.4675 H   0  0  0  0  0  0  0  0  0  0  0  0
    2.4718   -8.2130    1.4488 H   0  0  0  0  0  0  0  0  0  0  0  0
    4.0803  -10.0280    0.7230 H   0  0  0  0  0  0  0  0  0  0  0  0
    5.8224   -7.1521    3.8018 H   0  0  0  0  0  0  0  0  0  0  0  0
    6.8350   -8.4793    1.4131 H   0  0  0  0  0  0  0  0  0  0  0  0
    7.4328   -8.3790    3.0542 H   0  0  0  0  0  0  0  0  0  0  0  0
    5.4367  -10.1321    2.1846 H   0  0  0  0  0  0  0  0  0  0  0  0
    6.6376   -5.9652    1.9458 H   0  0  0  0  0  0  0  0  0  0  0  0
    4.5086   -6.9949    0.4661 H   0  0  0  0  0  0  0  0  0  0  0  0
    5.3881   -4.9043    4.0796 H   0  0  0  0  0  0  0  0  0  0  0  0
    5.2147   -3.4898    0.7093 H   0  0  0  0  0  0  0  0  0  0  0  0
    1.7590   -3.0288   -0.2962 H   0  0  0  0  0  0  0  0  0  0  0  0
    2.3365   -4.3264   -1.3214 H   0  0  0  0  0  0  0  0  0  0  0  0
    3.3564   -2.9122   -1.0330 H   0  0  0  0  0  0  0  0  0  0  0  0
    1.4206   -4.9336    1.6499 H   0  0  0  0  0  0  0  0  0  0  0  0
    2.3777   -6.1904    0.8274 H   0  0  0  0  0  0  0  0  0  0  0  0
    2.9390   -4.5800    3.3200 H   0  0  0  0  0  0  0  0  0  0  0  0
    3.7005   -6.8829    5.4860 H   0  0  0  0  0  0  0  0  0  0  0  0
   -2.1762   -8.7587    4.9638 H   0  0  0  0  0  0  0  0  0  0  0  0
   -1.8197   -7.0383    4.7527 H   0  0  0  0  0  0  0  0  0  0  0  0
   -0.7038   -8.0926    5.6656 H   0  0  0  0  0  0  0  0  0  0  0  0
   -2.1890   -9.4947    2.6501 H   0  0  0  0  0  0  0  0  0  0  0  0
   -1.0790   -8.7313    1.4993 H   0  0  0  0  0  0  0  0  0  0  0  0
   -2.2787   -7.7516    2.3420 H   0  0  0  0  0  0  0  0  0  0  0  0
  1  2  1  0
  1 31  1  0
  1 32  1  0
  1 33  1  0
  2  3  1  0
  3 26  1  0
  3  4  1  0
  3 34  1  1
  4 28  1  0
  4  5  1  0
  4 35  1  6
  5  6  1  0
  5 28  1  0
  5 36  1  1
  6  7  1  0
  6 37  1  0
  6 38  1  0
  7 12  1  0
  7  8  1  0
  7 39  1  6
  8  9  1  0
  9 10  1  0
  9 11  1  0
  9 40  1  1
 10 41  1  0
 11 26  1  1
 11 12  1  0
 11 14  1  0
 12 13  1  0
 12 42  1  6
 13 43  1  0
 14 15  1  0
 14 17  1  0
 14 44  1  1
 15 16  1  0
 15 45  1  0
 15 46  1  0
 16 47  1  0
 17 18  1  0
 17 19  1  0
 17 48  1  6
 18 49  1  0
 19 25  1  0
 19 20  1  1
 19 21  1  0
 20 50  1  0
 21 22  2  0
 21 51  1  0
 22 23  1  0
 22 24  1  0
 23 52  1  0
 23 53  1  0
 23 54  1  0
 24 25  1  0
 24 55  1  0
 24 56  1  0
 25 26  1  0
 25 57  1  1
 26 27  1  1
 27 58  1  0
 28 29  1  0
 28 30  1  0
 29 59  1  0
 29 60  1  0
 29 61  1  0
 30 62  1  0
 30 63  1  0
 30 64  1  0
M  END
>  <i_m_ct_stereo_status>  (50) 
1

>  <s_m_source_file>  (50) 
/var/tmp/pbs.5076255.sched01/tmp9d3cgwpa/0mc_8ktg4.sdf

>  <i_m_source_file_index>  (50) 
18

>  <i_lp_mmshare_version>  (50) 
48012

>  <i_f3d_flags>  (50) 
0

>  <s_epik_input>  (50) 
W09IXVtDSDJdW0NASF0xW0NAQEhdKFtPSF0pW0NAQF0oW09IXSkoW0NIXT1DKFtDSDNdKVtDSDJdMilbQ0BASF0yW0NAQF0oW0NAQF0xMzQpKFtPSF0pW0NASF0oT1tDSDNdKVtDQEhdNVtDQEBIXShDNShbQ0gzXSlbQ0gzXSlbQ0gyXVtDQEBIXShbQ0BASF00W09IXSlPW0NASF0zW09IXQ==

>  <s_epik_cmdline>  (50) 
J2VwaWtfcHl0aG9uJywgJy1waHQnLCAnMi4wJywgJy1waCcsICc3LjAnLCAnLXRuJywgJzgnLCAnLW1hJywgJzIwMCcsICctaW1hZScsICc8aW5maWxlLm1hZT4nLCAnLW9tYWUnLCAnPG91dGZpbGUubWFlPic=

>  <r_lp_tautomer_probability>  (50) 
1

>  <r_epik_Ionization_Penalty>  (50) 
6.08564e-07

>  <r_epik_Ionization_Penalty_Charging>  (50) 
0

>  <r_epik_Ionization_Penalty_Neutral>  (50) 
6.08564e-07

>  <r_epik_State_Penalty>  (50) 
-0

>  <r_epik_Charging_Adjusted_Penalty>  (50) 
0

>  <i_epik_Tot_Q>  (50) 
0

>  <i_epik_Tot_abs_Q>  (50) 
0

>  <s_epik_Chemistry_Notes>  (50) 
This compound contains an acetal/aminal-like group ( X-CH(R)-Y where X, Y are N, S, or O) that may be acid/base labile, releasing an aldehyde.

>  <s_lp_Force_Field>  (50) 
OPLS3e

>  <r_lp_Energy>  (50) 
55.4122

>  <b_lp_Chiralities_Consistent>  (50) 
1

>  <s_lp_Variant>  (50) 
6:0-1

>  <s_i_glide_gridfile>  (50) 
pfpi4k_grid

>  <i_i_glide_lignum>  (50) 
18

>  <i_i_glide_rotatable_bonds>  (50) 
8

>  <r_i_docking_score>  (50) 
-3.32675

>  <r_i_glide_ligand_efficiency>  (50) 
-0.110892

>  <r_i_glide_ligand_efficiency_sa>  (50) 
-0.344566

>  <r_i_glide_ligand_efficiency_ln>  (50) 
-0.755874

>  <r_i_glide_gscore>  (50) 
-3.32675

>  <r_i_glide_lipo>  (50) 
-0.419987

>  <r_i_glide_hbond>  (50) 
0

>  <r_i_glide_metal>  (50) 
-0

>  <r_i_glide_rewards>  (50) 
-1.50113

>  <r_i_glide_evdw>  (50) 
-20.4926

>  <r_i_glide_ecoul>  (50) 
-3.25863

>  <r_i_glide_erotb>  (50) 
0.109106

>  <r_i_glide_esite>  (50) 
-0.00131536

>  <r_i_glide_emodel>  (50) 
-36.3781

>  <r_i_glide_energy>  (50) 
-23.7512

>  <r_i_glide_einternal>  (50) 
7.22781

>  <r_i_glide_intrahb_reward>  (50) 
-1

>  <i_i_glide_confnum>  (50) 
1

>  <i_i_glide_posenum>  (50) 
14

>  <r_i_glide_eff_state_penalty>  (50) 
0

>  <ligand_id>  (50) 
6

>  <original_smiles>  (50) 
COC1C2C(CC3OC(O)C4(C3O)C(CO)C(O)C3(O)C=C(C)CC3C14O)C2(C)C

>  <smiles>  (50) 
[H]OC([H])([H])C1([H])C([H])(O[H])C2(O[H])C([H])=C(C([H])([H])[H])C([H])([H])C2([H])C2(O[H])C([H])(OC([H])([H])[H])C3([H])C([H])(C([H])([H])C4([H])OC([H])(O[H])C12C4([H])O[H])C3(C([H])([H])[H])C([H])([H])[H]

$$$$
7:0:0
     RDKit          3D

 23 22  0  0  1  0  0  0  0  0999 V2000
    3.1845  -11.6580    4.9736 C   0  0  0  0  0  0  0  0  0  0  0  0
    1.8124  -11.1692    5.2773 N   0  0  0  0  0  0  0  0  0  0  0  0
    0.8723  -11.5842    4.2009 C   0  0  0  0  0  0  0  0  0  0  0  0
    1.7805   -9.6997    5.5556 C   0  0  0  0  0  0  0  0  0  0  0  0
    0.3746   -9.2043    5.9592 C   0  0  0  0  0  0  0  0  0  0  0  0
    0.3448   -7.7417    6.3738 C   0  0  0  0  0  0  0  0  0  0  0  0
   -0.2155   -6.7373    5.6781 C   0  0  0  0  0  0  0  0  0  0  0  0
   -0.8337   -6.9667    4.4144 C   0  0  0  0  0  0  0  0  0  0  0  0
   -1.3473   -7.0723    3.3814 N   0  0  0  0  0  0  0  0  0  0  0  0
   -0.1948   -5.4287    6.2266 C   0  0  0  0  0  0  0  0  0  0  0  0
   -0.2236   -4.3448    6.6389 N   0  0  0  0  0  0  0  0  0  0  0  0
    3.6107  -11.1538    4.1022 H   0  0  0  0  0  0  0  0  0  0  0  0
    3.1606  -12.7247    4.7435 H   0  0  0  0  0  0  0  0  0  0  0  0
    3.8564  -11.5199    5.8218 H   0  0  0  0  0  0  0  0  0  0  0  0
    1.1266  -11.0958    3.2556 H   0  0  0  0  0  0  0  0  0  0  0  0
   -0.1615  -11.3512    4.4352 H   0  0  0  0  0  0  0  0  0  0  0  0
    0.8961  -12.6563    4.0548 H   0  0  0  0  0  0  0  0  0  0  0  0
    2.4914   -9.4956    6.3549 H   0  0  0  0  0  0  0  0  0  0  0  0
    2.1342   -9.1572    4.6764 H   0  0  0  0  0  0  0  0  0  0  0  0
   -0.3256   -9.3295    5.1343 H   0  0  0  0  0  0  0  0  0  0  0  0
   -0.0157   -9.8040    6.7819 H   0  0  0  0  0  0  0  0  0  0  0  0
    0.8123   -7.5196    7.3242 H   0  0  0  0  0  0  0  0  0  0  0  0
    1.5526  -11.6374    6.1653 H   0  0  0  0  0  0  0  0  0  0  0  0
  1  2  1  0
  1 12  1  0
  1 13  1  0
  1 14  1  0
  2  3  1  0
  2  4  1  0
  2 23  1  0
  3 15  1  0
  3 16  1  0
  3 17  1  0
  4  5  1  0
  4 18  1  0
  4 19  1  0
  5  6  1  0
  5 20  1  0
  5 21  1  0
  6  7  2  3
  6 22  1  0
  7  8  1  0
  7 10  1  0
  8  9  3  0
 10 11  3  0
M  CHG  1   2   1
M  END
>  <i_m_ct_stereo_status>  (51) 
1

>  <s_m_source_file>  (51) 
/var/tmp/pbs.5076255.sched01/tmp9d3cgwpa/0mc_8ktg4.sdf

>  <i_m_source_file_index>  (51) 
19

>  <i_lp_mmshare_version>  (51) 
48012

>  <i_f3d_flags>  (51) 
0

>  <s_epik_input>  (51) 
W0NIM11OKFtDSDNdKVtDSDJdW0NIMl1bQ0hdPUMoQyNOKUMjTg==

>  <s_epik_cmdline>  (51) 
J2VwaWtfcHl0aG9uJywgJy1waHQnLCAnMi4wJywgJy1waCcsICc3LjAnLCAnLXRuJywgJzgnLCAnLW1hJywgJzIwMCcsICctaW1hZScsICc8aW5maWxlLm1hZT4nLCAnLW9tYWUnLCAnPG91dGZpbGUubWFlPic=

>  <r_epik_Ionization_Penalty>  (51) 
0.127605

>  <r_epik_Ionization_Penalty_Charging>  (51) 
0.127605

>  <r_epik_Ionization_Penalty_Neutral>  (51) 
0

>  <r_epik_State_Penalty>  (51) 
0.117041

>  <r_epik_Charging_Adjusted_Penalty>  (51) 
0.244646

>  <i_epik_Tot_Q>  (51) 
1

>  <i_epik_Tot_abs_Q>  (51) 
1

>  <s_lp_Force_Field>  (51) 
OPLS3e

>  <r_lp_Energy>  (51) 
14.4603

>  <b_lp_Chiralities_Consistent>  (51) 
1

>  <s_lp_Variant>  (51) 
7:0-1

>  <s_i_glide_gridfile>  (51) 
pfpi4k_grid

>  <i_i_glide_lignum>  (51) 
19

>  <i_i_glide_rotatable_bonds>  (51) 
5

>  <r_i_docking_score>  (51) 
-1.77339

>  <r_i_glide_ligand_efficiency>  (51) 
-0.161217

>  <r_i_glide_ligand_efficiency_sa>  (51) 
-0.358543

>  <r_i_glide_ligand_efficiency_ln>  (51) 
-0.521907

>  <r_i_glide_gscore>  (51) 
-1.77339

>  <r_i_glide_lipo>  (51) 
-0.0333695

>  <r_i_glide_hbond>  (51) 
-0.311803

>  <r_i_glide_metal>  (51) 
-0

>  <r_i_glide_rewards>  (51) 
-2.27634

>  <r_i_glide_evdw>  (51) 
-9.92241

>  <r_i_glide_ecoul>  (51) 
-7.45865

>  <r_i_glide_erotb>  (51) 
2.60774

>  <r_i_glide_esite>  (51) 
-0.144692

>  <r_i_glide_emodel>  (51) 
-20.6645

>  <r_i_glide_energy>  (51) 
-17.3811

>  <r_i_glide_einternal>  (51) 
0.492587

>  <r_i_glide_intrahb_reward>  (51) 
-0

>  <i_i_glide_confnum>  (51) 
1

>  <i_i_glide_posenum>  (51) 
36

>  <r_i_glide_eff_state_penalty>  (51) 
0

>  <ligand_id>  (51) 
7

>  <original_smiles>  (51) 
CN(C)CCC=C(C#N)C#N

>  <smiles>  (51) 
[H]C(=C(C#N)C#N)C([H])([H])C([H])([H])[N+]([H])(C([H])([H])[H])C([H])([H])[H]

$$$$
7:0:1
     RDKit          3D

 23 22  0  0  1  0  0  0  0  0999 V2000
    1.6530  -10.9151    5.2354 C   0  0  0  0  0  0  0  0  0  0  0  0
    0.6078  -10.4370    4.2960 N   0  0  0  0  0  0  0  0  0  0  0  0
    0.8345  -10.9926    2.9388 C   0  0  0  0  0  0  0  0  0  0  0  0
    0.4829   -8.9534    4.2759 C   0  0  0  0  0  0  0  0  0  0  0  0
   -0.1641   -8.3790    5.5580 C   0  0  0  0  0  0  0  0  0  0  0  0
   -0.2819   -6.8552    5.5483 C   0  0  0  0  0  0  0  0  0  0  0  0
   -0.1534   -6.0424    6.6208 C   0  0  0  0  0  0  0  0  0  0  0  0
    0.1130   -6.5737    7.9110 C   0  0  0  0  0  0  0  0  0  0  0  0
    0.2402   -6.9811    8.9876 N   0  0  0  0  0  0  0  0  0  0  0  0
   -0.3303   -4.6396    6.4533 C   0  0  0  0  0  0  0  0  0  0  0  0
   -0.5190   -3.5012    6.3734 N   0  0  0  0  0  0  0  0  0  0  0  0
    2.6307  -10.5023    4.9904 H   0  0  0  0  0  0  0  0  0  0  0  0
    1.7358  -12.0009    5.2078 H   0  0  0  0  0  0  0  0  0  0  0  0
    1.4185  -10.6461    6.2603 H   0  0  0  0  0  0  0  0  0  0  0  0
    1.7760  -10.6394    2.5185 H   0  0  0  0  0  0  0  0  0  0  0  0
    0.0352  -10.7124    2.2505 H   0  0  0  0  0  0  0  0  0  0  0  0
    0.8783  -12.0823    2.9647 H   0  0  0  0  0  0  0  0  0  0  0  0
    1.4553   -8.4988    4.0971 H   0  0  0  0  0  0  0  0  0  0  0  0
   -0.1457   -8.6698    3.4300 H   0  0  0  0  0  0  0  0  0  0  0  0
   -1.1641   -8.8060    5.6485 H   0  0  0  0  0  0  0  0  0  0  0  0
    0.3905   -8.6873    6.4449 H   0  0  0  0  0  0  0  0  0  0  0  0
   -0.5135   -6.4052    4.5932 H   0  0  0  0  0  0  0  0  0  0  0  0
   -0.2925  -10.7969    4.6151 H   0  0  0  0  0  0  0  0  0  0  0  0
  1  2  1  0
  1 12  1  0
  1 13  1  0
  1 14  1  0
  2  3  1  0
  2  4  1  0
  2 23  1  0
  3 15  1  0
  3 16  1  0
  3 17  1  0
  4  5  1  0
  4 18  1  0
  4 19  1  0
  5  6  1  0
  5 20  1  0
  5 21  1  0
  6  7  2  3
  6 22  1  0
  7  8  1  0
  7 10  1  0
  8  9  3  0
 10 11  3  0
M  CHG  1   2   1
M  END
>  <i_m_ct_stereo_status>  (52) 
1

>  <s_m_source_file>  (52) 
/var/tmp/pbs.5076255.sched01/tmp9d3cgwpa/0mc_8ktg4.sdf

>  <i_m_source_file_index>  (52) 
19

>  <i_lp_mmshare_version>  (52) 
48012

>  <i_f3d_flags>  (52) 
0

>  <s_epik_input>  (52) 
W0NIM11OKFtDSDNdKVtDSDJdW0NIMl1bQ0hdPUMoQyNOKUMjTg==

>  <s_epik_cmdline>  (52) 
J2VwaWtfcHl0aG9uJywgJy1waHQnLCAnMi4wJywgJy1waCcsICc3LjAnLCAnLXRuJywgJzgnLCAnLW1hJywgJzIwMCcsICctaW1hZScsICc8aW5maWxlLm1hZT4nLCAnLW9tYWUnLCAnPG91dGZpbGUubWFlPic=

>  <r_epik_Ionization_Penalty>  (52) 
0.127605

>  <r_epik_Ionization_Penalty_Charging>  (52) 
0.127605

>  <r_epik_Ionization_Penalty_Neutral>  (52) 
0

>  <r_epik_State_Penalty>  (52) 
0.117041

>  <r_epik_Charging_Adjusted_Penalty>  (52) 
0.244646

>  <i_epik_Tot_Q>  (52) 
1

>  <i_epik_Tot_abs_Q>  (52) 
1

>  <s_lp_Force_Field>  (52) 
OPLS3e

>  <r_lp_Energy>  (52) 
14.4603

>  <b_lp_Chiralities_Consistent>  (52) 
1

>  <s_lp_Variant>  (52) 
7:0-1

>  <s_i_glide_gridfile>  (52) 
pfpi4k_grid

>  <i_i_glide_lignum>  (52) 
19

>  <i_i_glide_rotatable_bonds>  (52) 
5

>  <r_i_docking_score>  (52) 
-1.72185

>  <r_i_glide_ligand_efficiency>  (52) 
-0.156532

>  <r_i_glide_ligand_efficiency_sa>  (52) 
-0.348123

>  <r_i_glide_ligand_efficiency_ln>  (52) 
-0.50674

>  <r_i_glide_gscore>  (52) 
-1.72185

>  <r_i_glide_lipo>  (52) 
-0.117115

>  <r_i_glide_hbond>  (52) 
-0.400089

>  <r_i_glide_metal>  (52) 
-0

>  <r_i_glide_rewards>  (52) 
-2.25

>  <r_i_glide_evdw>  (52) 
-9.63733

>  <r_i_glide_ecoul>  (52) 
-6.69398

>  <r_i_glide_erotb>  (52) 
2.60774

>  <r_i_glide_esite>  (52) 
-0.0764219

>  <r_i_glide_emodel>  (52) 
-19.472

>  <r_i_glide_energy>  (52) 
-16.3313

>  <r_i_glide_einternal>  (52) 
0.730882

>  <r_i_glide_intrahb_reward>  (52) 
-0

>  <i_i_glide_confnum>  (52) 
1

>  <i_i_glide_posenum>  (52) 
7

>  <r_i_glide_eff_state_penalty>  (52) 
0

>  <ligand_id>  (52) 
7

>  <original_smiles>  (52) 
CN(C)CCC=C(C#N)C#N

>  <smiles>  (52) 
[H]C(=C(C#N)C#N)C([H])([H])C([H])([H])[N+]([H])(C([H])([H])[H])C([H])([H])[H]

$$$$
7:0:2
     RDKit          3D

 23 22  0  0  1  0  0  0  0  0999 V2000
    4.1011    0.3862   -4.4607 C   0  0  0  0  0  0  0  0  0  0  0  0
    2.9314   -0.4241   -4.8093 N   0  0  0  0  0  0  0  0  0  0  0  0
    1.7812    0.4470   -5.1128 C   0  0  0  0  0  0  0  0  0  0  0  0
    2.6390   -1.5237   -3.8422 C   0  0  0  0  0  0  0  0  0  0  0  0
    3.8084   -2.5220   -3.6273 C   0  0  0  0  0  0  0  0  0  0  0  0
    3.5929   -3.3921   -2.4006 C   0  0  0  0  0  0  0  0  0  0  0  0
    4.4851   -3.5624   -1.3954 C   0  0  0  0  0  0  0  0  0  0  0  0
    5.7253   -2.8670   -1.3996 C   0  0  0  0  0  0  0  0  0  0  0  0
    6.7079   -2.2551   -1.3963 N   0  0  0  0  0  0  0  0  0  0  0  0
    4.1503   -4.4369   -0.3291 C   0  0  0  0  0  0  0  0  0  0  0  0
    3.9169   -5.1464    0.5511 N   0  0  0  0  0  0  0  0  0  0  0  0
    4.0016    0.8212   -3.4604 H   0  0  0  0  0  0  0  0  0  0  0  0
    4.2130    1.1917   -5.1872 H   0  0  0  0  0  0  0  0  0  0  0  0
    4.9624   -0.2651   -4.5591 H   0  0  0  0  0  0  0  0  0  0  0  0
    1.3903    0.9447   -4.2374 H   0  0  0  0  0  0  0  0  0  0  0  0
    1.0020   -0.1781   -5.5229 H   0  0  0  0  0  0  0  0  0  0  0  0
    2.0433    1.2256   -5.8469 H   0  0  0  0  0  0  0  0  0  0  0  0
    2.3143   -1.1139   -2.8856 H   0  0  0  0  0  0  0  0  0  0  0  0
    1.8084   -2.0962   -4.2540 H   0  0  0  0  0  0  0  0  0  0  0  0
    3.9137   -3.1673   -4.5060 H   0  0  0  0  0  0  0  0  0  0  0  0
    4.7710   -2.0368   -3.4711 H   0  0  0  0  0  0  0  0  0  0  0  0
    2.6337   -3.8876   -2.3550 H   0  0  0  0  0  0  0  0  0  0  0  0
    3.1117   -0.8655   -5.6957 H   0  0  0  0  0  0  0  0  0  0  0  0
  1  2  1  0
  1 12  1  0
  1 13  1  0
  1 14  1  0
  2  3  1  0
  2  4  1  0
  2 23  1  0
  3 15  1  0
  3 16  1  0
  3 17  1  0
  4  5  1  0
  4 18  1  0
  4 19  1  0
  5  6  1  0
  5 20  1  0
  5 21  1  0
  6  7  2  3
  6 22  1  0
  7  8  1  0
  7 10  1  0
  8  9  3  0
 10 11  3  0
M  CHG  1   2   1
M  END
>  <i_m_ct_stereo_status>  (53) 
1

>  <s_m_source_file>  (53) 
/var/tmp/pbs.5076255.sched01/tmp9d3cgwpa/0mc_8ktg4.sdf

>  <i_m_source_file_index>  (53) 
19

>  <i_lp_mmshare_version>  (53) 
48012

>  <i_f3d_flags>  (53) 
0

>  <s_epik_input>  (53) 
W0NIM11OKFtDSDNdKVtDSDJdW0NIMl1bQ0hdPUMoQyNOKUMjTg==

>  <s_epik_cmdline>  (53) 
J2VwaWtfcHl0aG9uJywgJy1waHQnLCAnMi4wJywgJy1waCcsICc3LjAnLCAnLXRuJywgJzgnLCAnLW1hJywgJzIwMCcsICctaW1hZScsICc8aW5maWxlLm1hZT4nLCAnLW9tYWUnLCAnPG91dGZpbGUubWFlPic=

>  <r_epik_Ionization_Penalty>  (53) 
0.127605

>  <r_epik_Ionization_Penalty_Charging>  (53) 
0.127605

>  <r_epik_Ionization_Penalty_Neutral>  (53) 
0

>  <r_epik_State_Penalty>  (53) 
0.117041

>  <r_epik_Charging_Adjusted_Penalty>  (53) 
0.244646

>  <i_epik_Tot_Q>  (53) 
1

>  <i_epik_Tot_abs_Q>  (53) 
1

>  <s_lp_Force_Field>  (53) 
OPLS3e

>  <r_lp_Energy>  (53) 
14.4603

>  <b_lp_Chiralities_Consistent>  (53) 
1

>  <s_lp_Variant>  (53) 
7:0-1

>  <s_i_glide_gridfile>  (53) 
pfpi4k_grid

>  <i_i_glide_lignum>  (53) 
19

>  <i_i_glide_rotatable_bonds>  (53) 
5

>  <r_i_docking_score>  (53) 
-1.66877

>  <r_i_glide_ligand_efficiency>  (53) 
-0.151707

>  <r_i_glide_ligand_efficiency_sa>  (53) 
-0.337392

>  <r_i_glide_ligand_efficiency_ln>  (53) 
-0.491119

>  <r_i_glide_gscore>  (53) 
-1.66877

>  <r_i_glide_lipo>  (53) 
-0.532388

>  <r_i_glide_hbond>  (53) 
-0.16

>  <r_i_glide_metal>  (53) 
-0

>  <r_i_glide_rewards>  (53) 
-2.26805

>  <r_i_glide_evdw>  (53) 
-11.5218

>  <r_i_glide_ecoul>  (53) 
-4.79545

>  <r_i_glide_erotb>  (53) 
2.60774

>  <r_i_glide_esite>  (53) 
-0.0206709

>  <r_i_glide_emodel>  (53) 
-18.8542

>  <r_i_glide_energy>  (53) 
-16.3172

>  <r_i_glide_einternal>  (53) 
0.850348

>  <r_i_glide_intrahb_reward>  (53) 
-0

>  <i_i_glide_confnum>  (53) 
1

>  <i_i_glide_posenum>  (53) 
4

>  <r_i_glide_eff_state_penalty>  (53) 
0

>  <ligand_id>  (53) 
7

>  <original_smiles>  (53) 
CN(C)CCC=C(C#N)C#N

>  <smiles>  (53) 
[H]C(=C(C#N)C#N)C([H])([H])C([H])([H])[N+]([H])(C([H])([H])[H])C([H])([H])[H]

$$$$
7:1:0
     RDKit          3D

 22 21  0  0  1  0  0  0  0  0999 V2000
    3.6912   -0.1599   -2.9959 C   0  0  0  0  0  0  0  0  0  0  0  0
    3.8901   -0.9479   -4.1995 N   0  0  0  0  0  0  0  0  0  0  0  0
    3.3221   -0.1917   -5.3141 C   0  0  0  0  0  0  0  0  0  0  0  0
    3.2789   -2.2850   -4.0979 C   0  0  0  0  0  0  0  0  0  0  0  0
    3.9513   -3.1803   -3.0267 C   0  0  0  0  0  0  0  0  0  0  0  0
    3.3930   -2.9612   -1.6249 C   0  0  0  0  0  0  0  0  0  0  0  0
    4.0619   -2.5186   -0.5405 C   0  0  0  0  0  0  0  0  0  0  0  0
    5.4543   -2.2102   -0.6379 C   0  0  0  0  0  0  0  0  0  0  0  0
    6.5548   -1.9078   -0.7518 N   0  0  0  0  0  0  0  0  0  0  0  0
    3.3887   -2.3128    0.6911 C   0  0  0  0  0  0  0  0  0  0  0  0
    2.8420   -2.0767    1.6820 N   0  0  0  0  0  0  0  0  0  0  0  0
    4.1979   -0.5916   -2.1450 H   0  0  0  0  0  0  0  0  0  0  0  0
    2.6192   -0.0853   -2.7835 H   0  0  0  0  0  0  0  0  0  0  0  0
    4.0587    0.8593   -3.1623 H   0  0  0  0  0  0  0  0  0  0  0  0
    3.4942   -0.6616   -6.2786 H   0  0  0  0  0  0  0  0  0  0  0  0
    3.7915    0.7889   -5.3296 H   0  0  0  0  0  0  0  0  0  0  0  0
    2.2568   -0.0452   -5.1726 H   0  0  0  0  0  0  0  0  0  0  0  0
    2.1918   -2.2276   -3.9434 H   0  0  0  0  0  0  0  0  0  0  0  0
    3.4005   -2.7983   -5.0460 H   0  0  0  0  0  0  0  0  0  0  0  0
    3.8109   -4.2288   -3.2791 H   0  0  0  0  0  0  0  0  0  0  0  0
    5.0305   -3.0389   -3.0560 H   0  0  0  0  0  0  0  0  0  0  0  0
    2.3429   -3.1787   -1.5013 H   0  0  0  0  0  0  0  0  0  0  0  0
  1  2  1  0
  1 12  1  0
  1 13  1  0
  1 14  1  0
  2  3  1  0
  2  4  1  0
  3 15  1  0
  3 16  1  0
  3 17  1  0
  4  5  1  0
  4 18  1  0
  4 19  1  0
  5  6  1  0
  5 20  1  0
  5 21  1  0
  6  7  2  3
  6 22  1  0
  7  8  1  0
  7 10  1  0
  8  9  3  0
 10 11  3  0
M  END
>  <i_m_ct_stereo_status>  (54) 
1

>  <s_m_source_file>  (54) 
/var/tmp/pbs.5076255.sched01/tmp9d3cgwpa/0mc_8ktg4.sdf

>  <i_m_source_file_index>  (54) 
20

>  <i_lp_mmshare_version>  (54) 
48012

>  <i_f3d_flags>  (54) 
0

>  <s_epik_input>  (54) 
W0NIM11OKFtDSDNdKVtDSDJdW0NIMl1bQ0hdPUMoQyNOKUMjTg==

>  <s_epik_cmdline>  (54) 
J2VwaWtfcHl0aG9uJywgJy1waHQnLCAnMi4wJywgJy1waCcsICc3LjAnLCAnLXRuJywgJzgnLCAnLW1hJywgJzIwMCcsICctaW1hZScsICc8aW5maWxlLm1hZT4nLCAnLW9tYWUnLCAnPG91dGZpbGUubWFlPic=

>  <r_epik_Ionization_Penalty>  (54) 
0.972352

>  <r_epik_Ionization_Penalty_Charging>  (54) 
0

>  <r_epik_Ionization_Penalty_Neutral>  (54) 
0.972352

>  <r_epik_State_Penalty>  (54) 
1.01845

>  <r_epik_Charging_Adjusted_Penalty>  (54) 
1.01845

>  <i_epik_Tot_Q>  (54) 
0

>  <i_epik_Tot_abs_Q>  (54) 
0

>  <s_lp_Force_Field>  (54) 
OPLS3e

>  <r_lp_Energy>  (54) 
10.1053

>  <b_lp_Chiralities_Consistent>  (54) 
1

>  <s_lp_Variant>  (54) 
7:0-2

>  <s_i_glide_gridfile>  (54) 
pfpi4k_grid

>  <i_i_glide_lignum>  (54) 
20

>  <i_i_glide_rotatable_bonds>  (54) 
5

>  <r_i_docking_score>  (54) 
-1.43242

>  <r_i_glide_ligand_efficiency>  (54) 
-0.13022

>  <r_i_glide_ligand_efficiency_sa>  (54) 
-0.289606

>  <r_i_glide_ligand_efficiency_ln>  (54) 
-0.421561

>  <r_i_glide_gscore>  (54) 
-1.43242

>  <r_i_glide_lipo>  (54) 
-0.171538

>  <r_i_glide_hbond>  (54) 
-0.16

>  <r_i_glide_metal>  (54) 
-0

>  <r_i_glide_rewards>  (54) 
-2.25

>  <r_i_glide_evdw>  (54) 
-15.7611

>  <r_i_glide_ecoul>  (54) 
-4.31059

>  <r_i_glide_erotb>  (54) 
2.63598

>  <r_i_glide_esite>  (54) 
-0.0522131

>  <r_i_glide_emodel>  (54) 
-20.9659

>  <r_i_glide_energy>  (54) 
-20.0717

>  <r_i_glide_einternal>  (54) 
1.57598

>  <r_i_glide_intrahb_reward>  (54) 
-0

>  <i_i_glide_confnum>  (54) 
4

>  <i_i_glide_posenum>  (54) 
36

>  <r_i_glide_eff_state_penalty>  (54) 
0

>  <ligand_id>  (54) 
7

>  <original_smiles>  (54) 
CN(C)CCC=C(C#N)C#N

>  <smiles>  (54) 
[H]C(=C(C#N)C#N)C([H])([H])C([H])([H])N(C([H])([H])[H])C([H])([H])[H]

$$$$
7:1:1
     RDKit          3D

 22 21  0  0  1  0  0  0  0  0999 V2000
    4.0232    0.3112   -3.4486 C   0  0  0  0  0  0  0  0  0  0  0  0
    4.0780   -0.6323   -4.5510 N   0  0  0  0  0  0  0  0  0  0  0  0
    3.3777   -0.0102   -5.6729 C   0  0  0  0  0  0  0  0  0  0  0  0
    3.4537   -1.8935   -4.1574 C   0  0  0  0  0  0  0  0  0  0  0  0
    4.3887   -2.7137   -3.2327 C   0  0  0  0  0  0  0  0  0  0  0  0
    3.6326   -3.4429   -2.1353 C   0  0  0  0  0  0  0  0  0  0  0  0
    4.0544   -3.6146   -0.8765 C   0  0  0  0  0  0  0  0  0  0  0  0
    5.3107   -3.0759   -0.4621 C   0  0  0  0  0  0  0  0  0  0  0  0
    6.3198   -2.6052   -0.1531 N   0  0  0  0  0  0  0  0  0  0  0  0
    3.2300   -4.3363    0.0345 C   0  0  0  0  0  0  0  0  0  0  0  0
    2.5732   -4.9314    0.7703 N   0  0  0  0  0  0  0  0  0  0  0  0
    4.5334   -0.0395   -2.5464 H   0  0  0  0  0  0  0  0  0  0  0  0
    2.9838    0.5010   -3.1920 H   0  0  0  0  0  0  0  0  0  0  0  0
    4.4762    1.2641   -3.7325 H   0  0  0  0  0  0  0  0  0  0  0  0
    3.4156   -0.6156   -6.5713 H   0  0  0  0  0  0  0  0  0  0  0  0
    3.8489    0.9411   -5.9038 H   0  0  0  0  0  0  0  0  0  0  0  0
    2.3350    0.1893   -5.4422 H   0  0  0  0  0  0  0  0  0  0  0  0
    2.4667   -1.7087   -3.7286 H   0  0  0  0  0  0  0  0  0  0  0  0
    3.2757   -2.5093   -5.0353 H   0  0  0  0  0  0  0  0  0  0  0  0
    4.9368   -3.4429   -3.8379 H   0  0  0  0  0  0  0  0  0  0  0  0
    5.1641   -2.0931   -2.7769 H   0  0  0  0  0  0  0  0  0  0  0  0
    2.6732   -3.8463   -2.4349 H   0  0  0  0  0  0  0  0  0  0  0  0
  1  2  1  0
  1 12  1  0
  1 13  1  0
  1 14  1  0
  2  3  1  0
  2  4  1  0
  3 15  1  0
  3 16  1  0
  3 17  1  0
  4  5  1  0
  4 18  1  0
  4 19  1  0
  5  6  1  0
  5 20  1  0
  5 21  1  0
  6  7  2  3
  6 22  1  0
  7  8  1  0
  7 10  1  0
  8  9  3  0
 10 11  3  0
M  END
>  <i_m_ct_stereo_status>  (55) 
1

>  <s_m_source_file>  (55) 
/var/tmp/pbs.5076255.sched01/tmp9d3cgwpa/0mc_8ktg4.sdf

>  <i_m_source_file_index>  (55) 
20

>  <i_lp_mmshare_version>  (55) 
48012

>  <i_f3d_flags>  (55) 
0

>  <s_epik_input>  (55) 
W0NIM11OKFtDSDNdKVtDSDJdW0NIMl1bQ0hdPUMoQyNOKUMjTg==

>  <s_epik_cmdline>  (55) 
J2VwaWtfcHl0aG9uJywgJy1waHQnLCAnMi4wJywgJy1waCcsICc3LjAnLCAnLXRuJywgJzgnLCAnLW1hJywgJzIwMCcsICctaW1hZScsICc8aW5maWxlLm1hZT4nLCAnLW9tYWUnLCAnPG91dGZpbGUubWFlPic=

>  <r_epik_Ionization_Penalty>  (55) 
0.972352

>  <r_epik_Ionization_Penalty_Charging>  (55) 
0

>  <r_epik_Ionization_Penalty_Neutral>  (55) 
0.972352

>  <r_epik_State_Penalty>  (55) 
1.01845

>  <r_epik_Charging_Adjusted_Penalty>  (55) 
1.01845

>  <i_epik_Tot_Q>  (55) 
0

>  <i_epik_Tot_abs_Q>  (55) 
0

>  <s_lp_Force_Field>  (55) 
OPLS3e

>  <r_lp_Energy>  (55) 
10.1053

>  <b_lp_Chiralities_Consistent>  (55) 
1

>  <s_lp_Variant>  (55) 
7:0-2

>  <s_i_glide_gridfile>  (55) 
pfpi4k_grid

>  <i_i_glide_lignum>  (55) 
20

>  <i_i_glide_rotatable_bonds>  (55) 
5

>  <r_i_docking_score>  (55) 
-1.35902

>  <r_i_glide_ligand_efficiency>  (55) 
-0.123547

>  <r_i_glide_ligand_efficiency_sa>  (55) 
-0.274766

>  <r_i_glide_ligand_efficiency_ln>  (55) 
-0.399959

>  <r_i_glide_gscore>  (55) 
-1.35902

>  <r_i_glide_lipo>  (55) 
-0.165801

>  <r_i_glide_hbond>  (55) 
-0.0388309

>  <r_i_glide_metal>  (55) 
-0

>  <r_i_glide_rewards>  (55) 
-2.2916

>  <r_i_glide_evdw>  (55) 
-15.0749

>  <r_i_glide_ecoul>  (55) 
-4.8143

>  <r_i_glide_erotb>  (55) 
2.63598

>  <r_i_glide_esite>  (55) 
-0.0228749

>  <r_i_glide_emodel>  (55) 
-19.7649

>  <r_i_glide_energy>  (55) 
-19.8892

>  <r_i_glide_einternal>  (55) 
3.67351

>  <r_i_glide_intrahb_reward>  (55) 
-0

>  <i_i_glide_confnum>  (55) 
4

>  <i_i_glide_posenum>  (55) 
1

>  <r_i_glide_eff_state_penalty>  (55) 
0

>  <ligand_id>  (55) 
7

>  <original_smiles>  (55) 
CN(C)CCC=C(C#N)C#N

>  <smiles>  (55) 
[H]C(=C(C#N)C#N)C([H])([H])C([H])([H])N(C([H])([H])[H])C([H])([H])[H]

$$$$
7:1:2
     RDKit          3D

 22 21  0  0  1  0  0  0  0  0999 V2000
    4.1567    0.5075   -4.7376 C   0  0  0  0  0  0  0  0  0  0  0  0
    2.9736   -0.2653   -5.0566 N   0  0  0  0  0  0  0  0  0  0  0  0
    1.8044    0.6099   -5.0653 C   0  0  0  0  0  0  0  0  0  0  0  0
    2.7862   -1.4520   -4.2275 C   0  0  0  0  0  0  0  0  0  0  0  0
    3.0019   -1.2264   -2.7181 C   0  0  0  0  0  0  0  0  0  0  0  0
    2.8396   -2.4818   -1.8990 C   0  0  0  0  0  0  0  0  0  0  0  0
    3.8361   -3.0015   -1.1101 C   0  0  0  0  0  0  0  0  0  0  0  0
    5.1299   -2.4029   -1.0888 C   0  0  0  0  0  0  0  0  0  0  0  0
    6.1571   -1.8625   -1.1267 N   0  0  0  0  0  0  0  0  0  0  0  0
    3.5320   -4.1286   -0.3092 C   0  0  0  0  0  0  0  0  0  0  0  0
    3.2474   -5.0103    0.3829 N   0  0  0  0  0  0  0  0  0  0  0  0
    4.9701   -0.2200   -4.7134 H   0  0  0  0  0  0  0  0  0  0  0  0
    4.0715    1.0339   -3.7689 H   0  0  0  0  0  0  0  0  0  0  0  0
    4.3040    1.2695   -5.5228 H   0  0  0  0  0  0  0  0  0  0  0  0
    0.9572    0.0579   -5.4658 H   0  0  0  0  0  0  0  0  0  0  0  0
    1.9610    1.5016   -5.6808 H   0  0  0  0  0  0  0  0  0  0  0  0
    1.5261    0.9200   -4.0643 H   0  0  0  0  0  0  0  0  0  0  0  0
    1.7869   -1.8460   -4.3978 H   0  0  0  0  0  0  0  0  0  0  0  0
    3.4848   -2.1932   -4.6105 H   0  0  0  0  0  0  0  0  0  0  0  0
    3.9949   -0.8284   -2.5274 H   0  0  0  0  0  0  0  0  0  0  0  0
    2.2950   -0.4872   -2.3323 H   0  0  0  0  0  0  0  0  0  0  0  0
    1.8703   -2.9652   -1.9238 H   0  0  0  0  0  0  0  0  0  0  0  0
  1  2  1  0
  1 12  1  0
  1 13  1  0
  1 14  1  0
  2  3  1  0
  2  4  1  0
  3 15  1  0
  3 16  1  0
  3 17  1  0
  4  5  1  0
  4 18  1  0
  4 19  1  0
  5  6  1  0
  5 20  1  0
  5 21  1  0
  6  7  2  3
  6 22  1  0
  7  8  1  0
  7 10  1  0
  8  9  3  0
 10 11  3  0
M  END
>  <i_m_ct_stereo_status>  (56) 
1

>  <s_m_source_file>  (56) 
/var/tmp/pbs.5076255.sched01/tmp9d3cgwpa/0mc_8ktg4.sdf

>  <i_m_source_file_index>  (56) 
20

>  <i_lp_mmshare_version>  (56) 
48012

>  <i_f3d_flags>  (56) 
0

>  <s_epik_input>  (56) 
W0NIM11OKFtDSDNdKVtDSDJdW0NIMl1bQ0hdPUMoQyNOKUMjTg==

>  <s_epik_cmdline>  (56) 
J2VwaWtfcHl0aG9uJywgJy1waHQnLCAnMi4wJywgJy1waCcsICc3LjAnLCAnLXRuJywgJzgnLCAnLW1hJywgJzIwMCcsICctaW1hZScsICc8aW5maWxlLm1hZT4nLCAnLW9tYWUnLCAnPG91dGZpbGUubWFlPic=

>  <r_epik_Ionization_Penalty>  (56) 
0.972352

>  <r_epik_Ionization_Penalty_Charging>  (56) 
0

>  <r_epik_Ionization_Penalty_Neutral>  (56) 
0.972352

>  <r_epik_State_Penalty>  (56) 
1.01845

>  <r_epik_Charging_Adjusted_Penalty>  (56) 
1.01845

>  <i_epik_Tot_Q>  (56) 
0

>  <i_epik_Tot_abs_Q>  (56) 
0

>  <s_lp_Force_Field>  (56) 
OPLS3e

>  <r_lp_Energy>  (56) 
10.1053

>  <b_lp_Chiralities_Consistent>  (56) 
1

>  <s_lp_Variant>  (56) 
7:0-2

>  <s_i_glide_gridfile>  (56) 
pfpi4k_grid

>  <i_i_glide_lignum>  (56) 
20

>  <i_i_glide_rotatable_bonds>  (56) 
5

>  <r_i_docking_score>  (56) 
-1.04002

>  <r_i_glide_ligand_efficiency>  (56) 
-0.0945471

>  <r_i_glide_ligand_efficiency_sa>  (56) 
-0.210271

>  <r_i_glide_ligand_efficiency_ln>  (56) 
-0.306077

>  <r_i_glide_gscore>  (56) 
-1.04002

>  <r_i_glide_lipo>  (56) 
-0.231546

>  <r_i_glide_hbond>  (56) 
-0.118331

>  <r_i_glide_metal>  (56) 
-0

>  <r_i_glide_rewards>  (56) 
-2.25

>  <r_i_glide_evdw>  (56) 
-11.0265

>  <r_i_glide_ecoul>  (56) 
-3.26058

>  <r_i_glide_erotb>  (56) 
2.63598

>  <r_i_glide_esite>  (56) 
-0.0357041

>  <r_i_glide_emodel>  (56) 
-13.965

>  <r_i_glide_energy>  (56) 
-14.2871

>  <r_i_glide_einternal>  (56) 
2.42931

>  <r_i_glide_intrahb_reward>  (56) 
-0

>  <i_i_glide_confnum>  (56) 
1

>  <i_i_glide_posenum>  (56) 
5

>  <r_i_glide_eff_state_penalty>  (56) 
0

>  <ligand_id>  (56) 
7

>  <original_smiles>  (56) 
CN(C)CCC=C(C#N)C#N

>  <smiles>  (56) 
[H]C(=C(C#N)C#N)C([H])([H])C([H])([H])N(C([H])([H])[H])C([H])([H])[H]

$$$$
8:1:0
     RDKit          3D

 53 58  0  0  1  0  0  0  0  0999 V2000
    0.4938    0.2720    2.3799 C   0  0  0  0  0  0  0  0  0  0  0  0
    1.3454   -1.0144    2.2527 C   0  0  0  0  0  0  0  0  0  0  0  0
    2.7762   -0.7935    2.4597 N   0  0  0  0  0  0  0  0  0  0  0  0
    3.3490    0.0645    1.4506 C   0  0  0  0  0  0  0  0  0  0  0  0
    4.8324   -0.1210    1.4460 C   0  0  0  0  0  0  0  0  0  0  0  0
    5.2077   -1.6109    1.6022 C   0  0  1  0  0  0  0  0  0  0  0  0
    5.1960   -1.9840    0.0493 C   0  0  0  0  0  0  0  0  0  0  0  0
    6.3671   -2.6490   -0.3539 C   0  0  0  0  0  0  0  0  0  0  0  0
    6.4827   -2.8814   -1.7342 C   0  0  0  0  0  0  0  0  0  0  0  0
    5.3716   -2.6870   -2.5712 C   0  0  0  0  0  0  0  0  0  0  0  0
    4.0951   -2.4575   -2.0159 C   0  0  0  0  0  0  0  0  0  0  0  0
    2.9906   -2.5866   -2.8086 O   0  0  0  0  0  0  0  0  0  0  0  0
    3.9568   -2.2288   -0.6394 C   0  0  0  0  0  0  0  0  0  0  0  0
    2.9417   -2.8804    0.0739 O   0  0  0  0  0  0  0  0  0  0  0  0
    3.6344   -3.8468    0.9088 C   0  0  2  0  0  0  0  0  0  0  0  0
    2.9709   -4.6047    2.1291 C   0  0  0  0  0  0  0  0  0  0  0  0
    1.8456   -5.0666    2.0577 O   0  0  0  0  0  0  0  0  0  0  0  0
    3.8336   -4.7145    3.5066 C   0  0  0  0  0  0  0  0  0  0  0  0
    4.7964   -3.5026    4.1109 C   0  0  0  0  0  0  0  0  0  0  0  0
    4.9018   -2.0715    3.2823 C   0  0  1  0  0  0  0  0  0  0  0  0
    5.1443   -0.9922    4.2363 O   0  0  0  0  0  0  0  0  0  0  0  0
    4.1525   -0.6577    5.2347 C   0  0  0  0  0  0  0  0  0  0  0  0
    3.5923   -2.0271    2.7305 C   0  0  2  0  0  0  0  0  0  0  0  0
    4.5034   -2.9549    1.7053 C   0  0  2  0  0  0  0  0  0  0  0  0
    5.9254   -3.7959    1.6616 C   0  0  0  0  0  0  0  0  0  0  0  0
    6.8201   -3.5993    0.6799 C   0  0  0  0  0  0  0  0  0  0  0  0
    8.0965   -4.4148    0.4899 C   0  0  0  0  0  0  0  0  0  0  0  0
    9.1929   -3.5939    0.1617 O   0  0  0  0  0  0  0  0  0  0  0  0
   -0.5346    0.1388    2.0466 H   0  0  0  0  0  0  0  0  0  0  0  0
    0.8838    1.0944    1.7796 H   0  0  0  0  0  0  0  0  0  0  0  0
    0.4795    0.6094    3.4186 H   0  0  0  0  0  0  0  0  0  0  0  0
    0.9714   -1.7363    2.9802 H   0  0  0  0  0  0  0  0  0  0  0  0
    1.1590   -1.4931    1.2860 H   0  0  0  0  0  0  0  0  0  0  0  0
    2.9307   -0.1541    0.4634 H   0  0  0  0  0  0  0  0  0  0  0  0
    3.1244    1.1130    1.6743 H   0  0  0  0  0  0  0  0  0  0  0  0
    5.2950    0.3827    0.5968 H   0  0  0  0  0  0  0  0  0  0  0  0
    5.2020    0.4023    2.3232 H   0  0  0  0  0  0  0  0  0  0  0  0
    7.3408   -3.4035   -2.1391 H   0  0  0  0  0  0  0  0  0  0  0  0
    5.4432   -2.9366   -3.6036 H   0  0  0  0  0  0  0  0  0  0  0  0
    2.1969   -2.4159   -2.3297 H   0  0  0  0  0  0  0  0  0  0  0  0
    4.1655   -4.5703    0.2921 H   0  0  0  0  0  0  0  0  0  0  0  0
    3.1223   -4.9407    4.3100 H   0  0  0  0  0  0  0  0  0  0  0  0
    4.4523   -5.6080    3.3969 H   0  0  0  0  0  0  0  0  0  0  0  0
    4.4362   -3.3567    5.1206 H   0  0  0  0  0  0  0  0  0  0  0  0
    5.8051   -3.8860    4.3059 H   0  0  0  0  0  0  0  0  0  0  0  0
    4.5654    0.1336    5.8693 H   0  0  0  0  0  0  0  0  0  0  0  0
    3.8684   -1.4973    5.8668 H   0  0  0  0  0  0  0  0  0  0  0  0
    3.2385   -0.2303    4.8228 H   0  0  0  0  0  0  0  0  0  0  0  0
    2.9320   -2.5194    3.4554 H   0  0  0  0  0  0  0  0  0  0  0  0
    6.1346   -4.5799    2.3798 H   0  0  0  0  0  0  0  0  0  0  0  0
    8.3124   -4.9849    1.3960 H   0  0  0  0  0  0  0  0  0  0  0  0
    7.9449   -5.1427   -0.3026 H   0  0  0  0  0  0  0  0  0  0  0  0
    9.0361   -3.2010   -0.6823 H   0  0  0  0  0  0  0  0  0  0  0  0
  1  2  1  0
  1 29  1  0
  1 30  1  0
  1 31  1  0
  2  3  1  0
  2 32  1  0
  2 33  1  0
  3 23  1  0
  3  4  1  0
  4  5  1  0
  4 34  1  0
  4 35  1  0
  6  5  1  6
  5 36  1  0
  5 37  1  0
  6 20  1  0
  6 24  1  0
  6  7  1  0
  7 13  2  0
  7  8  1  0
  8 26  1  0
  8  9  2  0
  9 10  1  0
  9 38  1  0
 10 11  2  0
 10 39  1  0
 11 12  1  0
 11 13  1  0
 12 40  1  0
 13 14  1  0
 14 15  1  0
 15 24  1  0
 15 16  1  0
 15 41  1  6
 16 17  2  0
 16 18  1  0
 18 19  1  0
 18 42  1  0
 18 43  1  0
 19 20  1  0
 19 44  1  0
 19 45  1  0
 20 21  1  1
 20 23  1  0
 21 22  1  0
 22 46  1  0
 22 47  1  0
 22 48  1  0
 23 24  1  0
 23 49  1  1
 24 25  1  1
 25 26  2  0
 25 50  1  0
 26 27  1  0
 27 28  1  0
 27 51  1  0
 27 52  1  0
 28 53  1  0
M  END
>  <i_m_ct_stereo_status>  (57) 
1

>  <s_m_source_file>  (57) 
/var/tmp/pbs.5076255.sched01/tmp9d3cgwpa/0mc_8ktg4.sdf

>  <i_m_source_file_index>  (57) 
22

>  <i_lp_mmshare_version>  (57) 
48012

>  <i_f3d_flags>  (57) 
1

>  <s_epik_input>  (57) 
W0NIM11bQ0gyXU4oW0NIMl1bQ0gyXTEpW0NAQEhdMltDQEBdMyhPW0NIM10pW0NIMl1bQ0gyXUMoPU8pW0NAQEhdKFtDQEBdMjRbQ0BAXTEzNSlPYzZjNWMoQyg9W0NIXTQpW0NIMl1bT0hdKVtjSF1bY0hdYzZbT0hd

>  <s_epik_cmdline>  (57) 
J2VwaWtfcHl0aG9uJywgJy1waHQnLCAnMi4wJywgJy1waCcsICc3LjAnLCAnLXRuJywgJzgnLCAnLW1hJywgJzIwMCcsICctaW1hZScsICc8aW5maWxlLm1hZT4nLCAnLW9tYWUnLCAnPG91dGZpbGUubWFlPic=

>  <r_lp_tautomer_probability>  (57) 
1

>  <r_epik_Ionization_Penalty>  (57) 
0.356617

>  <r_epik_Ionization_Penalty_Charging>  (57) 
0

>  <r_epik_Ionization_Penalty_Neutral>  (57) 
0.356617

>  <r_epik_State_Penalty>  (57) 
0.35219

>  <r_epik_Charging_Adjusted_Penalty>  (57) 
0.35219

>  <i_epik_Tot_Q>  (57) 
0

>  <i_epik_Tot_abs_Q>  (57) 
0

>  <s_lp_Force_Field>  (57) 
OPLS3e

>  <r_lp_Energy>  (57) 
409.411

>  <b_lp_Chiralities_Consistent>  (57) 
1

>  <s_lp_Variant>  (57) 
8:0-2

>  <s_i_glide_gridfile>  (57) 
pfpi4k_grid

>  <i_i_glide_lignum>  (57) 
22

>  <i_i_glide_rotatable_bonds>  (57) 
5

>  <r_i_docking_score>  (57) 
-3.53818

>  <r_i_glide_ligand_efficiency>  (57) 
-0.126364

>  <r_i_glide_ligand_efficiency_sa>  (57) 
-0.383714

>  <r_i_glide_ligand_efficiency_ln>  (57) 
-0.816716

>  <r_i_glide_gscore>  (57) 
-3.53818

>  <r_i_glide_lipo>  (57) 
-0.826046

>  <r_i_glide_hbond>  (57) 
-0.139014

>  <r_i_glide_metal>  (57) 
-0

>  <r_i_glide_rewards>  (57) 
-0.794744

>  <r_i_glide_evdw>  (57) 
-26.2024

>  <r_i_glide_ecoul>  (57) 
-3.7212

>  <r_i_glide_erotb>  (57) 
0.0925186

>  <r_i_glide_esite>  (57) 
-0.00259485

>  <r_i_glide_emodel>  (57) 
-28.5277

>  <r_i_glide_energy>  (57) 
-29.9236

>  <r_i_glide_einternal>  (57) 
15.0326

>  <r_i_glide_intrahb_reward>  (57) 
-0

>  <i_i_glide_confnum>  (57) 
1

>  <i_i_glide_posenum>  (57) 
16

>  <r_i_glide_eff_state_penalty>  (57) 
0

>  <ligand_id>  (57) 
8

>  <original_smiles>  (57) 
CCN1CCC23c4c5ccc(O)c4OC4C(=O)CCC2(OC)C1C43C=C5CO

>  <smiles>  (57) 
[H]Oc1c([H])c([H])c2c3c1OC1([H])C(=O)C([H])([H])C([H])([H])C4(OC([H])([H])[H])C5([H])N(C([H])([H])C([H])([H])[H])C([H])([H])C([H])([H])C34C15C([H])=C2C([H])([H])O[H]

$$$$
8:1:1
     RDKit          3D

 53 58  0  0  1  0  0  0  0  0999 V2000
    0.4742   -2.8507    4.6685 C   0  0  0  0  0  0  0  0  0  0  0  0
    0.7546   -2.0816    3.3726 C   0  0  0  0  0  0  0  0  0  0  0  0
    2.0177   -1.3354    3.3022 N   0  0  0  0  0  0  0  0  0  0  0  0
    1.9963   -0.4551    2.1609 C   0  0  0  0  0  0  0  0  0  0  0  0
    3.4028   -0.0807    1.8082 C   0  0  0  0  0  0  0  0  0  0  0  0
    4.3298   -1.3323    1.8695 C   0  0  1  0  0  0  0  0  0  0  0  0
    4.1923   -1.8271    0.3704 C   0  0  0  0  0  0  0  0  0  0  0  0
    5.4373   -2.0550   -0.2389 C   0  0  0  0  0  0  0  0  0  0  0  0
    5.3841   -2.3678   -1.6159 C   0  0  0  0  0  0  0  0  0  0  0  0
    4.1432   -2.6451   -2.2278 C   0  0  0  0  0  0  0  0  0  0  0  0
    3.0034   -2.8621   -1.4124 C   0  0  0  0  0  0  0  0  0  0  0  0
    1.8993   -3.4804   -1.9396 O   0  0  0  0  0  0  0  0  0  0  0  0
    3.0388   -2.5685   -0.0401 C   0  0  0  0  0  0  0  0  0  0  0  0
    2.4666   -3.4433    0.9031 O   0  0  0  0  0  0  0  0  0  0  0  0
    3.5818   -4.0220    1.6012 C   0  0  2  0  0  0  0  0  0  0  0  0
    3.4692   -4.8295    2.9352 C   0  0  0  0  0  0  0  0  0  0  0  0
    2.6255   -5.7039    3.0685 O   0  0  0  0  0  0  0  0  0  0  0  0
    4.5461   -4.5231    4.1037 C   0  0  0  0  0  0  0  0  0  0  0  0
    5.1076   -3.0043    4.4697 C   0  0  0  0  0  0  0  0  0  0  0  0
    4.6009   -1.7023    3.5578 C   0  0  1  0  0  0  0  0  0  0  0  0
    4.5890   -0.5656    4.4067 O   0  0  0  0  0  0  0  0  0  0  0  0
    5.7284    0.2661    4.2946 C   0  0  0  0  0  0  0  0  0  0  0  0
    3.2641   -2.1658    3.3690 C   0  0  2  0  0  0  0  0  0  0  0  0
    4.2040   -2.8067    2.1638 C   0  0  2  0  0  0  0  0  0  0  0  0
    5.7942   -3.1273    1.8499 C   0  0  0  0  0  0  0  0  0  0  0  0
    6.3742   -2.7130    0.6948 C   0  0  0  0  0  0  0  0  0  0  0  0
    7.7952   -3.0593    0.2670 C   0  0  0  0  0  0  0  0  0  0  0  0
    8.4327   -1.9342   -0.3010 O   0  0  0  0  0  0  0  0  0  0  0  0
   -0.5735   -3.1575    4.7197 H   0  0  0  0  0  0  0  0  0  0  0  0
    0.6753   -2.2178    5.5306 H   0  0  0  0  0  0  0  0  0  0  0  0
    1.0799   -3.7537    4.7496 H   0  0  0  0  0  0  0  0  0  0  0  0
    0.6753   -2.7546    2.5244 H   0  0  0  0  0  0  0  0  0  0  0  0
   -0.0646   -1.3750    3.2711 H   0  0  0  0  0  0  0  0  0  0  0  0
    1.5361   -0.9444    1.3048 H   0  0  0  0  0  0  0  0  0  0  0  0
    1.3991    0.4298    2.3827 H   0  0  0  0  0  0  0  0  0  0  0  0
    3.4648    0.4678    0.8677 H   0  0  0  0  0  0  0  0  0  0  0  0
    3.6972    0.6476    2.5596 H   0  0  0  0  0  0  0  0  0  0  0  0
    6.2874   -2.5781   -2.1671 H   0  0  0  0  0  0  0  0  0  0  0  0
    4.1154   -2.9145   -3.2743 H   0  0  0  0  0  0  0  0  0  0  0  0
    2.0744   -3.9758   -2.7232 H   0  0  0  0  0  0  0  0  0  0  0  0
    4.2157   -4.5658    0.8921 H   0  0  0  0  0  0  0  0  0  0  0  0
    4.1492   -4.9517    5.0242 H   0  0  0  0  0  0  0  0  0  0  0  0
    5.4134   -5.1361    3.8756 H   0  0  0  0  0  0  0  0  0  0  0  0
    4.8100   -2.8194    5.5039 H   0  0  0  0  0  0  0  0  0  0  0  0
    6.1922   -3.0192    4.5652 H   0  0  0  0  0  0  0  0  0  0  0  0
    5.6362    1.1232    4.9605 H   0  0  0  0  0  0  0  0  0  0  0  0
    5.8646    0.6292    3.2802 H   0  0  0  0  0  0  0  0  0  0  0  0
    6.6300   -0.2502    4.5866 H   0  0  0  0  0  0  0  0  0  0  0  0
    2.9964   -2.7822    4.2118 H   0  0  0  0  0  0  0  0  0  0  0  0
    6.3782   -3.7400    2.4992 H   0  0  0  0  0  0  0  0  0  0  0  0
    8.3684   -3.4331    1.1129 H   0  0  0  0  0  0  0  0  0  0  0  0
    7.7610   -3.8597   -0.4712 H   0  0  0  0  0  0  0  0  0  0  0  0
    9.3093   -2.1684   -0.5881 H   0  0  0  0  0  0  0  0  0  0  0  0
  1  2  1  0
  1 29  1  0
  1 30  1  0
  1 31  1  0
  2  3  1  0
  2 32  1  0
  2 33  1  0
  3 23  1  0
  3  4  1  0
  4  5  1  0
  4 34  1  0
  4 35  1  0
  6  5  1  1
  5 36  1  0
  5 37  1  0
  6 20  1  0
  6 24  1  0
  6  7  1  0
  7 13  2  0
  7  8  1  0
  8 26  1  0
  8  9  2  0
  9 10  1  0
  9 38  1  0
 10 11  2  0
 10 39  1  0
 11 12  1  0
 11 13  1  0
 12 40  1  0
 13 14  1  0
 14 15  1  0
 15 24  1  0
 15 16  1  0
 15 41  1  6
 16 17  2  0
 16 18  1  0
 18 19  1  0
 18 42  1  0
 18 43  1  0
 19 20  1  0
 19 44  1  0
 19 45  1  0
 20 21  1  1
 20 23  1  0
 21 22  1  0
 22 46  1  0
 22 47  1  0
 22 48  1  0
 23 24  1  0
 23 49  1  1
 24 25  1  1
 25 26  2  0
 25 50  1  0
 26 27  1  0
 27 28  1  0
 27 51  1  0
 27 52  1  0
 28 53  1  0
M  END
>  <i_m_ct_stereo_status>  (58) 
1

>  <s_m_source_file>  (58) 
/var/tmp/pbs.5076255.sched01/tmp9d3cgwpa/0mc_8ktg4.sdf

>  <i_m_source_file_index>  (58) 
22

>  <i_lp_mmshare_version>  (58) 
48012

>  <i_f3d_flags>  (58) 
1

>  <s_epik_input>  (58) 
W0NIM11bQ0gyXU4oW0NIMl1bQ0gyXTEpW0NAQEhdMltDQEBdMyhPW0NIM10pW0NIMl1bQ0gyXUMoPU8pW0NAQEhdKFtDQEBdMjRbQ0BAXTEzNSlPYzZjNWMoQyg9W0NIXTQpW0NIMl1bT0hdKVtjSF1bY0hdYzZbT0hd

>  <s_epik_cmdline>  (58) 
J2VwaWtfcHl0aG9uJywgJy1waHQnLCAnMi4wJywgJy1waCcsICc3LjAnLCAnLXRuJywgJzgnLCAnLW1hJywgJzIwMCcsICctaW1hZScsICc8aW5maWxlLm1hZT4nLCAnLW9tYWUnLCAnPG91dGZpbGUubWFlPic=

>  <r_lp_tautomer_probability>  (58) 
1

>  <r_epik_Ionization_Penalty>  (58) 
0.356617

>  <r_epik_Ionization_Penalty_Charging>  (58) 
0

>  <r_epik_Ionization_Penalty_Neutral>  (58) 
0.356617

>  <r_epik_State_Penalty>  (58) 
0.35219

>  <r_epik_Charging_Adjusted_Penalty>  (58) 
0.35219

>  <i_epik_Tot_Q>  (58) 
0

>  <i_epik_Tot_abs_Q>  (58) 
0

>  <s_lp_Force_Field>  (58) 
OPLS3e

>  <r_lp_Energy>  (58) 
409.411

>  <b_lp_Chiralities_Consistent>  (58) 
1

>  <s_lp_Variant>  (58) 
8:0-2

>  <s_i_glide_gridfile>  (58) 
pfpi4k_grid

>  <i_i_glide_lignum>  (58) 
22

>  <i_i_glide_rotatable_bonds>  (58) 
5

>  <r_i_docking_score>  (58) 
-3.23127

>  <r_i_glide_ligand_efficiency>  (58) 
-0.115403

>  <r_i_glide_ligand_efficiency_sa>  (58) 
-0.35043

>  <r_i_glide_ligand_efficiency_ln>  (58) 
-0.745873

>  <r_i_glide_gscore>  (58) 
-3.23127

>  <r_i_glide_lipo>  (58) 
-0.606329

>  <r_i_glide_hbond>  (58) 
-0.150342

>  <r_i_glide_metal>  (58) 
-0

>  <r_i_glide_rewards>  (58) 
-0.794744

>  <r_i_glide_evdw>  (58) 
-20.8977

>  <r_i_glide_ecoul>  (58) 
-4.84994

>  <r_i_glide_erotb>  (58) 
0.0925186

>  <r_i_glide_esite>  (58) 
0

>  <r_i_glide_emodel>  (58) 
-31.233

>  <r_i_glide_energy>  (58) 
-25.7477

>  <r_i_glide_einternal>  (58) 
1.49753

>  <r_i_glide_intrahb_reward>  (58) 
-0

>  <i_i_glide_confnum>  (58) 
4

>  <i_i_glide_posenum>  (58) 
36

>  <r_i_glide_eff_state_penalty>  (58) 
0

>  <ligand_id>  (58) 
8

>  <original_smiles>  (58) 
CCN1CCC23c4c5ccc(O)c4OC4C(=O)CCC2(OC)C1C43C=C5CO

>  <smiles>  (58) 
[H]Oc1c([H])c([H])c2c3c1OC1([H])C(=O)C([H])([H])C([H])([H])C4(OC([H])([H])[H])C5([H])N(C([H])([H])C([H])([H])[H])C([H])([H])C([H])([H])C34C15C([H])=C2C([H])([H])O[H]

$$$$
8:1:2
     RDKit          3D

 53 58  0  0  1  0  0  0  0  0999 V2000
    0.2596   -2.1056    4.2208 C   0  0  0  0  0  0  0  0  0  0  0  0
    0.7437   -1.4288    2.9327 C   0  0  0  0  0  0  0  0  0  0  0  0
    2.0671   -0.8019    2.9841 N   0  0  0  0  0  0  0  0  0  0  0  0
    2.2222    0.0833    1.8598 C   0  0  0  0  0  0  0  0  0  0  0  0
    3.6809    0.3371    1.6532 C   0  0  0  0  0  0  0  0  0  0  0  0
    4.4940   -0.9849    1.7772 C   0  0  1  0  0  0  0  0  0  0  0  0
    4.4607   -1.4556    0.2574 C   0  0  0  0  0  0  0  0  0  0  0  0
    5.7196   -1.8069   -0.2382 C   0  0  0  0  0  0  0  0  0  0  0  0
    5.7673   -2.1020   -1.6206 C   0  0  0  0  0  0  0  0  0  0  0  0
    4.5690   -2.2650   -2.3469 C   0  0  0  0  0  0  0  0  0  0  0  0
    3.3460   -2.3706   -1.6570 C   0  0  0  0  0  0  0  0  0  0  0  0
    2.2417   -2.8214   -2.3205 O   0  0  0  0  0  0  0  0  0  0  0  0
    3.2912   -2.1013   -0.2748 C   0  0  0  0  0  0  0  0  0  0  0  0
    2.5506   -2.9257    0.5914 O   0  0  0  0  0  0  0  0  0  0  0  0
    3.5430   -3.5886    1.4042 C   0  0  2  0  0  0  0  0  0  0  0  0
    3.2440   -4.4058    2.7120 C   0  0  0  0  0  0  0  0  0  0  0  0
    2.3118   -5.2034    2.7674 O   0  0  0  0  0  0  0  0  0  0  0  0
    4.2356   -4.1907    3.9823 C   0  0  0  0  0  0  0  0  0  0  0  0
    4.8880   -2.7209    4.4135 C   0  0  0  0  0  0  0  0  0  0  0  0
    4.5771   -1.3789    3.4833 C   0  0  1  0  0  0  0  0  0  0  0  0
    4.5952   -0.2447    4.3449 O   0  0  0  0  0  0  0  0  0  0  0  0
    5.8561    0.3934    4.4300 C   0  0  0  0  0  0  0  0  0  0  0  0
    3.2219   -1.7371    3.1664 C   0  0  2  0  0  0  0  0  0  0  0  0
    4.2150   -2.4453    2.0383 C   0  0  2  0  0  0  0  0  0  0  0  0
    5.7872   -2.9080    1.8667 C   0  0  0  0  0  0  0  0  0  0  0  0
    6.5048   -2.5491    0.7643 C   0  0  0  0  0  0  0  0  0  0  0  0
    7.9176   -2.9999    0.4554 C   0  0  0  0  0  0  0  0  0  0  0  0
    8.7013   -1.8918    0.0763 O   0  0  0  0  0  0  0  0  0  0  0  0
   -0.8075   -2.3217    4.1629 H   0  0  0  0  0  0  0  0  0  0  0  0
    0.4117   -1.4483    5.0750 H   0  0  0  0  0  0  0  0  0  0  0  0
    0.7735   -3.0477    4.4093 H   0  0  0  0  0  0  0  0  0  0  0  0
    0.7049   -2.1342    2.1083 H   0  0  0  0  0  0  0  0  0  0  0  0
    0.0098   -0.6551    2.6970 H   0  0  0  0  0  0  0  0  0  0  0  0
    1.8062   -0.3546    0.9588 H   0  0  0  0  0  0  0  0  0  0  0  0
    1.6833    1.0185    2.0419 H   0  0  0  0  0  0  0  0  0  0  0  0
    3.8828    0.8965    0.7417 H   0  0  0  0  0  0  0  0  0  0  0  0
    3.9498    1.0034    2.4637 H   0  0  0  0  0  0  0  0  0  0  0  0
    6.6915   -2.3862   -2.0974 H   0  0  0  0  0  0  0  0  0  0  0  0
    4.6008   -2.5274   -3.3917 H   0  0  0  0  0  0  0  0  0  0  0  0
    1.4569   -2.4839   -1.9053 H   0  0  0  0  0  0  0  0  0  0  0  0
    4.1795   -4.1928    0.7558 H   0  0  0  0  0  0  0  0  0  0  0  0
    3.7198   -4.5874    4.8623 H   0  0  0  0  0  0  0  0  0  0  0  0
    5.0694   -4.8792    3.8283 H   0  0  0  0  0  0  0  0  0  0  0  0
    4.5207   -2.5176    5.4189 H   0  0  0  0  0  0  0  0  0  0  0  0
    5.9549   -2.8244    4.5886 H   0  0  0  0  0  0  0  0  0  0  0  0
    5.7750    1.2531    5.0915 H   0  0  0  0  0  0  0  0  0  0  0  0
    6.1916    0.7439    3.4556 H   0  0  0  0  0  0  0  0  0  0  0  0
    6.6140   -0.2576    4.8489 H   0  0  0  0  0  0  0  0  0  0  0  0
    2.8160   -2.3371    3.9772 H   0  0  0  0  0  0  0  0  0  0  0  0
    6.2499   -3.5655    2.5739 H   0  0  0  0  0  0  0  0  0  0  0  0
    8.3658   -3.5038    1.3098 H   0  0  0  0  0  0  0  0  0  0  0  0
    7.8957   -3.7296   -0.3552 H   0  0  0  0  0  0  0  0  0  0  0  0
    9.4783   -2.1784   -0.3895 H   0  0  0  0  0  0  0  0  0  0  0  0
  1  2  1  0
  1 29  1  0
  1 30  1  0
  1 31  1  0
  2  3  1  0
  2 32  1  0
  2 33  1  0
  3 23  1  0
  3  4  1  0
  4  5  1  0
  4 34  1  0
  4 35  1  0
  6  5  1  6
  5 36  1  0
  5 37  1  0
  6 20  1  0
  6 24  1  0
  6  7  1  0
  7 13  2  0
  7  8  1  0
  8 26  1  0
  8  9  2  0
  9 10  1  0
  9 38  1  0
 10 11  2  0
 10 39  1  0
 11 12  1  0
 11 13  1  0
 12 40  1  0
 13 14  1  0
 14 15  1  0
 15 24  1  0
 15 16  1  0
 15 41  1  6
 16 17  2  0
 16 18  1  0
 18 19  1  0
 18 42  1  0
 18 43  1  0
 19 20  1  0
 19 44  1  0
 19 45  1  0
 20 21  1  1
 20 23  1  0
 21 22  1  0
 22 46  1  0
 22 47  1  0
 22 48  1  0
 23 24  1  0
 23 49  1  1
 24 25  1  1
 25 26  2  0
 25 50  1  0
 26 27  1  0
 27 28  1  0
 27 51  1  0
 27 52  1  0
 28 53  1  0
M  END
>  <i_m_ct_stereo_status>  (59) 
1

>  <s_m_source_file>  (59) 
/var/tmp/pbs.5076255.sched01/tmp9d3cgwpa/0mc_8ktg4.sdf

>  <i_m_source_file_index>  (59) 
22

>  <i_lp_mmshare_version>  (59) 
48012

>  <i_f3d_flags>  (59) 
1

>  <s_epik_input>  (59) 
W0NIM11bQ0gyXU4oW0NIMl1bQ0gyXTEpW0NAQEhdMltDQEBdMyhPW0NIM10pW0NIMl1bQ0gyXUMoPU8pW0NAQEhdKFtDQEBdMjRbQ0BAXTEzNSlPYzZjNWMoQyg9W0NIXTQpW0NIMl1bT0hdKVtjSF1bY0hdYzZbT0hd

>  <s_epik_cmdline>  (59) 
J2VwaWtfcHl0aG9uJywgJy1waHQnLCAnMi4wJywgJy1waCcsICc3LjAnLCAnLXRuJywgJzgnLCAnLW1hJywgJzIwMCcsICctaW1hZScsICc8aW5maWxlLm1hZT4nLCAnLW9tYWUnLCAnPG91dGZpbGUubWFlPic=

>  <r_lp_tautomer_probability>  (59) 
1

>  <r_epik_Ionization_Penalty>  (59) 
0.356617

>  <r_epik_Ionization_Penalty_Charging>  (59) 
0

>  <r_epik_Ionization_Penalty_Neutral>  (59) 
0.356617

>  <r_epik_State_Penalty>  (59) 
0.35219

>  <r_epik_Charging_Adjusted_Penalty>  (59) 
0.35219

>  <i_epik_Tot_Q>  (59) 
0

>  <i_epik_Tot_abs_Q>  (59) 
0

>  <s_lp_Force_Field>  (59) 
OPLS3e

>  <r_lp_Energy>  (59) 
409.411

>  <b_lp_Chiralities_Consistent>  (59) 
1

>  <s_lp_Variant>  (59) 
8:0-2

>  <s_i_glide_gridfile>  (59) 
pfpi4k_grid

>  <i_i_glide_lignum>  (59) 
22

>  <i_i_glide_rotatable_bonds>  (59) 
5

>  <r_i_docking_score>  (59) 
-3.06711

>  <r_i_glide_ligand_efficiency>  (59) 
-0.10954

>  <r_i_glide_ligand_efficiency_sa>  (59) 
-0.332627

>  <r_i_glide_ligand_efficiency_ln>  (59) 
-0.707979

>  <r_i_glide_gscore>  (59) 
-3.06711

>  <r_i_glide_lipo>  (59) 
-0.780989

>  <r_i_glide_hbond>  (59) 
-0.0633785

>  <r_i_glide_metal>  (59) 
-0

>  <r_i_glide_rewards>  (59) 
-0.794744

>  <r_i_glide_evdw>  (59) 
-22.5418

>  <r_i_glide_ecoul>  (59) 
-2.88717

>  <r_i_glide_erotb>  (59) 
0.132169

>  <r_i_glide_esite>  (59) 
0

>  <r_i_glide_emodel>  (59) 
-30.4699

>  <r_i_glide_energy>  (59) 
-25.429

>  <r_i_glide_einternal>  (59) 
1.65483

>  <r_i_glide_intrahb_reward>  (59) 
-0

>  <i_i_glide_confnum>  (59) 
1

>  <i_i_glide_posenum>  (59) 
1

>  <r_i_glide_eff_state_penalty>  (59) 
0

>  <ligand_id>  (59) 
8

>  <original_smiles>  (59) 
CCN1CCC23c4c5ccc(O)c4OC4C(=O)CCC2(OC)C1C43C=C5CO

>  <smiles>  (59) 
[H]Oc1c([H])c([H])c2c3c1OC1([H])C(=O)C([H])([H])C([H])([H])C4(OC([H])([H])[H])C5([H])N(C([H])([H])C([H])([H])[H])C([H])([H])C([H])([H])C34C15C([H])=C2C([H])([H])O[H]

$$$$
9:0:0
     RDKit          3D

 54 59  0  0  1  0  0  0  0  0999 V2000
    2.7283   -1.2738    5.0389 C   0  0  0  0  0  0  0  0  0  0  0  0
    3.1297   -1.7890    3.7051 N   0  0  1  0  0  0  0  0  0  0  0  0
    2.7073   -0.8667    2.6157 C   0  0  0  0  0  0  0  0  0  0  0  0
    3.4419   -1.1179    1.2813 C   0  0  0  0  0  0  0  0  0  0  0  0
    3.8096   -2.6065    1.0560 C   0  0  2  0  0  0  0  0  0  0  0  0
    4.7505   -2.7219   -0.0644 C   0  0  0  0  0  0  0  0  0  0  0  0
    6.0891   -2.7778    0.2092 C   0  0  0  0  0  0  0  0  0  0  0  0
    6.9554   -2.9698   -0.8891 C   0  0  0  0  0  0  0  0  0  0  0  0
    6.3622   -3.0643   -2.1841 C   0  0  0  0  0  0  0  0  0  0  0  0
    4.9512   -3.1158   -2.3648 C   0  0  0  0  0  0  0  0  0  0  0  0
    4.4123   -3.3585   -3.5951 O   0  0  0  0  0  0  0  0  0  0  0  0
    4.1146   -2.9787   -1.2425 C   0  0  0  0  0  0  0  0  0  0  0  0
    2.7843   -3.2068   -1.0680 O   0  0  0  0  0  0  0  0  0  0  0  0
    2.5981   -3.3661    0.3641 C   0  0  1  0  0  0  0  0  0  0  0  0
    2.3591   -4.8864    0.6433 C   0  0  1  0  0  0  0  0  0  0  0  0
    1.4862   -5.4600   -0.3127 O   0  0  0  0  0  0  0  0  0  0  0  0
    3.6126   -5.7311    0.7992 C   0  0  0  0  0  0  0  0  0  0  0  0
    4.4964   -5.5583    1.7991 C   0  0  0  0  0  0  0  0  0  0  0  0
    4.3146   -4.4531    2.8164 C   0  0  1  0  0  0  0  0  0  0  0  0
    4.8651   -4.6261    4.2526 C   0  0  0  0  0  0  0  0  0  0  0  0
    3.8167   -5.2843    5.1736 C   0  0  0  0  0  0  0  0  0  0  0  0
    6.1654   -5.4594    4.3536 C   0  0  0  0  0  0  0  0  0  0  0  0
    5.0854   -3.1542    4.6834 C   0  0  0  0  0  0  0  0  0  0  0  0
    4.5553   -2.2129    3.5605 C   0  0  1  0  0  0  0  0  0  0  0  0
    4.7031   -3.0645    2.2684 C   0  0  2  0  0  0  0  0  0  0  0  0
    6.1756   -2.9184    1.7099 C   0  0  0  0  0  0  0  0  0  0  0  0
    3.3543   -0.4348    5.3581 H   0  0  0  0  0  0  0  0  0  0  0  0
    2.7582   -2.0508    5.8054 H   0  0  0  0  0  0  0  0  0  0  0  0
    1.6929   -0.9211    5.0104 H   0  0  0  0  0  0  0  0  0  0  0  0
    1.6289   -0.9445    2.4755 H   0  0  0  0  0  0  0  0  0  0  0  0
    2.9019    0.1626    2.9151 H   0  0  0  0  0  0  0  0  0  0  0  0
    2.8547   -0.7128    0.4546 H   0  0  0  0  0  0  0  0  0  0  0  0
    4.3636   -0.5275    1.2848 H   0  0  0  0  0  0  0  0  0  0  0  0
    8.0200   -3.0966   -0.7606 H   0  0  0  0  0  0  0  0  0  0  0  0
    6.9895   -3.2064   -3.0434 H   0  0  0  0  0  0  0  0  0  0  0  0
    3.4888   -3.5648   -3.5340 H   0  0  0  0  0  0  0  0  0  0  0  0
    1.7123   -2.8034    0.6363 H   0  0  0  0  0  0  0  0  0  0  0  0
    1.8133   -4.9742    1.5809 H   0  0  0  0  0  0  0  0  0  0  0  0
    1.9307   -5.4421   -1.1550 H   0  0  0  0  0  0  0  0  0  0  0  0
    3.7802   -6.5078    0.0695 H   0  0  0  0  0  0  0  0  0  0  0  0
    5.3779   -6.1785    1.8639 H   0  0  0  0  0  0  0  0  0  0  0  0
    3.2425   -4.3935    2.9888 H   0  0  0  0  0  0  0  0  0  0  0  0
    4.1905   -5.3873    6.1937 H   0  0  0  0  0  0  0  0  0  0  0  0
    3.5589   -6.2814    4.8196 H   0  0  0  0  0  0  0  0  0  0  0  0
    2.8983   -4.7014    5.2270 H   0  0  0  0  0  0  0  0  0  0  0  0
    6.5515   -5.4735    5.3737 H   0  0  0  0  0  0  0  0  0  0  0  0
    6.9620   -5.0897    3.7181 H   0  0  0  0  0  0  0  0  0  0  0  0
    5.9927   -6.4971    4.0736 H   0  0  0  0  0  0  0  0  0  0  0  0
    4.7280   -2.9341    5.6916 H   0  0  0  0  0  0  0  0  0  0  0  0
    6.1580   -2.9918    4.7647 H   0  0  0  0  0  0  0  0  0  0  0  0
    5.1602   -1.3023    3.5406 H   0  0  0  0  0  0  0  0  0  0  0  0
    6.8348   -3.7270    2.0156 H   0  0  0  0  0  0  0  0  0  0  0  0
    6.6155   -1.9838    2.0458 H   0  0  0  0  0  0  0  0  0  0  0  0
    2.5803   -2.6275    3.5673 H   0  0  0  0  0  0  0  0  0  0  0  0
  1  2  1  0
  1 27  1  0
  1 28  1  0
  1 29  1  0
  2 24  1  0
  2  3  1  0
  2 54  1  6
  3  4  1  0
  3 30  1  0
  3 31  1  0
  5  4  1  1
  4 32  1  0
  4 33  1  0
  5 14  1  0
  5 25  1  0
  5  6  1  0
  6 12  2  0
  6  7  1  0
  7 26  1  0
  7  8  2  0
  8  9  1  0
  8 34  1  0
  9 10  2  0
  9 35  1  0
 10 11  1  0
 10 12  1  0
 11 36  1  0
 12 13  1  0
 13 14  1  0
 14 15  1  0
 14 37  1  1
 15 16  1  0
 15 17  1  0
 15 38  1  1
 16 39  1  0
 17 18  2  0
 17 40  1  0
 18 19  1  0
 18 41  1  0
 19 25  1  0
 19 20  1  0
 19 42  1  1
 20 21  1  0
 20 22  1  0
 20 23  1  0
 21 43  1  0
 21 44  1  0
 21 45  1  0
 22 46  1  0
 22 47  1  0
 22 48  1  0
 23 24  1  0
 23 49  1  0
 23 50  1  0
 24 25  1  0
 24 51  1  6
 25 26  1  6
 26 52  1  0
 26 53  1  0
M  CHG  1   2   1
M  END
>  <i_m_ct_stereo_status>  (60) 
1

>  <s_m_source_file>  (60) 
/var/tmp/pbs.5076255.sched01/tmp9d3cgwpa/0mc_8ktg4.sdf

>  <i_m_source_file_index>  (60) 
25

>  <i_lp_mmshare_version>  (60) 
48012

>  <i_f3d_flags>  (60) 
0

>  <s_epik_input>  (60) 
W0NIMl0xW0NIMl1OKFtDSDNdKVtDQEhdMltDSDJdQyhbQ0gzXSkoW0NIM10pW0NAQEhdKFtDQEBdMjNbQ0BAXTE0NSlbQ0hdPVtDSF1bQ0BIXShbT0hdKVtDQEBIXTVPYzZjNGMoW0NIMl0zKVtjSF1bY0hdYzZbT0hd

>  <s_epik_cmdline>  (60) 
J2VwaWtfcHl0aG9uJywgJy1waHQnLCAnMi4wJywgJy1waCcsICc3LjAnLCAnLXRuJywgJzgnLCAnLW1hJywgJzIwMCcsICctaW1hZScsICc8aW5maWxlLm1hZT4nLCAnLW9tYWUnLCAnPG91dGZpbGUubWFlPic=

>  <r_lp_tautomer_probability>  (60) 
1

>  <r_epik_Ionization_Penalty>  (60) 
0.00851623

>  <r_epik_Ionization_Penalty_Charging>  (60) 
0.00451256

>  <r_epik_Ionization_Penalty_Neutral>  (60) 
0.00400367

>  <r_epik_State_Penalty>  (60) 
-0

>  <r_epik_Charging_Adjusted_Penalty>  (60) 
0.00451256

>  <i_epik_Tot_Q>  (60) 
1

>  <i_epik_Tot_abs_Q>  (60) 
1

>  <s_lp_Force_Field>  (60) 
OPLS3e

>  <r_lp_Energy>  (60) 
102.576

>  <b_lp_Chiralities_Consistent>  (60) 
1

>  <s_lp_Variant>  (60) 
9:0-1

>  <s_i_glide_gridfile>  (60) 
pfpi4k_grid

>  <i_i_glide_lignum>  (60) 
25

>  <i_i_glide_rotatable_bonds>  (60) 
2

>  <r_i_docking_score>  (60) 
-4.00666

>  <r_i_glide_ligand_efficiency>  (60) 
-0.154102

>  <r_i_glide_ligand_efficiency_sa>  (60) 
-0.456527

>  <r_i_glide_ligand_efficiency_ln>  (60) 
-0.940951

>  <r_i_glide_gscore>  (60) 
-4.00666

>  <r_i_glide_lipo>  (60) 
-0.496931

>  <r_i_glide_hbond>  (60) 
0

>  <r_i_glide_metal>  (60) 
-0

>  <r_i_glide_rewards>  (60) 
-0.9923

>  <r_i_glide_evdw>  (60) 
-19.4391

>  <r_i_glide_ecoul>  (60) 
-10.3031

>  <r_i_glide_erotb>  (60) 
0

>  <r_i_glide_esite>  (60) 
0

>  <r_i_glide_emodel>  (60) 
-36.1192

>  <r_i_glide_energy>  (60) 
-29.7423

>  <r_i_glide_einternal>  (60) 
0.29972

>  <r_i_glide_intrahb_reward>  (60) 
-0

>  <i_i_glide_confnum>  (60) 
2

>  <i_i_glide_posenum>  (60) 
40

>  <r_i_glide_eff_state_penalty>  (60) 
0

>  <ligand_id>  (60) 
9

>  <original_smiles>  (60) 
CN1CCC23c4c5ccc(O)c4OC2C(O)C=CC2C(C)(C)CC1C23C5

>  <smiles>  (60) 
[H]Oc1c([H])c([H])c2c3c1OC1([H])C([H])(O[H])C([H])=C([H])C4([H])C(C([H])([H])[H])(C([H])([H])[H])C([H])([H])C5([H])C4(C2([H])[H])C31C([H])([H])C([H])([H])[N+]5([H])C([H])([H])[H]

$$$$
9:0:1
     RDKit          3D

 54 59  0  0  1  0  0  0  0  0999 V2000
    8.0521   -3.4176   -1.3095 C   0  0  0  0  0  0  0  0  0  0  0  0
    6.7798   -3.3445   -0.5491 N   0  0  1  0  0  0  0  0  0  0  0  0
    7.0360   -3.3940    0.9096 C   0  0  0  0  0  0  0  0  0  0  0  0
    5.8531   -2.8866    1.7593 C   0  0  0  0  0  0  0  0  0  0  0  0
    4.4802   -3.1986    1.1265 C   0  0  2  0  0  0  0  0  0  0  0  0
    3.4347   -2.4327    1.8171 C   0  0  0  0  0  0  0  0  0  0  0  0
    3.0463   -1.2200    1.3111 C   0  0  0  0  0  0  0  0  0  0  0  0
    1.9679   -0.5790    1.9519 C   0  0  0  0  0  0  0  0  0  0  0  0
    1.3918   -1.2262    3.0862 C   0  0  0  0  0  0  0  0  0  0  0  0
    1.7979   -2.5254    3.4910 C   0  0  0  0  0  0  0  0  0  0  0  0
    1.1743   -3.1595    4.5249 O   0  0  0  0  0  0  0  0  0  0  0  0
    2.8393   -3.1836    2.7929 C   0  0  0  0  0  0  0  0  0  0  0  0
    3.2874   -4.4684    2.8033 O   0  0  0  0  0  0  0  0  0  0  0  0
    4.0167   -4.6631    1.5538 C   0  0  1  0  0  0  0  0  0  0  0  0
    3.1323   -5.5009    0.5831 C   0  0  1  0  0  0  0  0  0  0  0  0
    2.4758   -6.5393    1.2766 O   0  0  0  0  0  0  0  0  0  0  0  0
    2.1284   -4.7262   -0.2447 C   0  0  0  0  0  0  0  0  0  0  0  0
    2.4262   -3.7585   -1.1175 C   0  0  0  0  0  0  0  0  0  0  0  0
    3.8600   -3.4091   -1.3871 C   0  0  1  0  0  0  0  0  0  0  0  0
    4.2700   -2.9171   -2.7916 C   0  0  0  0  0  0  0  0  0  0  0  0
    4.6786   -4.0608   -3.7394 C   0  0  0  0  0  0  0  0  0  0  0  0
    3.2235   -2.0821   -3.5574 C   0  0  0  0  0  0  0  0  0  0  0  0
    5.5245   -2.1025   -2.4187 C   0  0  0  0  0  0  0  0  0  0  0  0
    5.8428   -2.2380   -0.9067 C   0  0  1  0  0  0  0  0  0  0  0  0
    4.4568   -2.5150   -0.2921 C   0  0  2  0  0  0  0  0  0  0  0  0
    3.7148   -1.1408   -0.0456 C   0  0  0  0  0  0  0  0  0  0  0  0
    8.6242   -2.4882   -1.2893 H   0  0  0  0  0  0  0  0  0  0  0  0
    7.8761   -3.6971   -2.3410 H   0  0  0  0  0  0  0  0  0  0  0  0
    8.6934   -4.2066   -0.9118 H   0  0  0  0  0  0  0  0  0  0  0  0
    7.3122   -4.4040    1.2009 H   0  0  0  0  0  0  0  0  0  0  0  0
    7.8895   -2.7640    1.1299 H   0  0  0  0  0  0  0  0  0  0  0  0
    5.9103   -3.2802    2.7784 H   0  0  0  0  0  0  0  0  0  0  0  0
    5.9456   -1.7990    1.8703 H   0  0  0  0  0  0  0  0  0  0  0  0
    1.5414    0.3318    1.5549 H   0  0  0  0  0  0  0  0  0  0  0  0
    0.5800   -0.7460    3.6110 H   0  0  0  0  0  0  0  0  0  0  0  0
    1.5831   -3.9852    4.7358 H   0  0  0  0  0  0  0  0  0  0  0  0
    4.8919   -5.2749    1.7759 H   0  0  0  0  0  0  0  0  0  0  0  0
    3.7691   -6.0105   -0.1365 H   0  0  0  0  0  0  0  0  0  0  0  0
    3.1198   -7.1509    1.6000 H   0  0  0  0  0  0  0  0  0  0  0  0
    1.1149   -5.0733   -0.1529 H   0  0  0  0  0  0  0  0  0  0  0  0
    1.6609   -3.2429   -1.6813 H   0  0  0  0  0  0  0  0  0  0  0  0
    4.3920   -4.3527   -1.3104 H   0  0  0  0  0  0  0  0  0  0  0  0
    5.0866   -3.7323   -4.6941 H   0  0  0  0  0  0  0  0  0  0  0  0
    3.8386   -4.6717   -4.0319 H   0  0  0  0  0  0  0  0  0  0  0  0
    5.4152   -4.6650   -3.2317 H   0  0  0  0  0  0  0  0  0  0  0  0
    3.6369   -1.7060   -4.4975 H   0  0  0  0  0  0  0  0  0  0  0  0
    2.8655   -1.2258   -2.9900 H   0  0  0  0  0  0  0  0  0  0  0  0
    2.3644   -2.7004   -3.8214 H   0  0  0  0  0  0  0  0  0  0  0  0
    6.3499   -2.3943   -3.0584 H   0  0  0  0  0  0  0  0  0  0  0  0
    5.3280   -1.0478   -2.6263 H   0  0  0  0  0  0  0  0  0  0  0  0
    6.2777   -1.3049   -0.5511 H   0  0  0  0  0  0  0  0  0  0  0  0
    3.0143   -0.8854   -0.8354 H   0  0  0  0  0  0  0  0  0  0  0  0
    4.4195   -0.3186    0.0390 H   0  0  0  0  0  0  0  0  0  0  0  0
    6.2862   -4.1950   -0.7616 H   0  0  0  0  0  0  0  0  0  0  0  0
  1  2  1  0
  1 27  1  0
  1 28  1  0
  1 29  1  0
  2 24  1  0
  2  3  1  0
  2 54  1  6
  3  4  1  0
  3 30  1  0
  3 31  1  0
  5  4  1  1
  4 32  1  0
  4 33  1  0
  5 14  1  0
  5 25  1  0
  5  6  1  0
  6 12  2  0
  6  7  1  0
  7 26  1  0
  7  8  2  0
  8  9  1  0
  8 34  1  0
  9 10  2  0
  9 35  1  0
 10 11  1  0
 10 12  1  0
 11 36  1  0
 12 13  1  0
 13 14  1  0
 14 15  1  0
 14 37  1  1
 15 16  1  0
 15 17  1  0
 15 38  1  6
 16 39  1  0
 17 18  2  0
 17 40  1  0
 18 19  1  0
 18 41  1  0
 19 25  1  0
 19 20  1  0
 19 42  1  1
 20 21  1  0
 20 22  1  0
 20 23  1  0
 21 43  1  0
 21 44  1  0
 21 45  1  0
 22 46  1  0
 22 47  1  0
 22 48  1  0
 23 24  1  0
 23 49  1  0
 23 50  1  0
 24 25  1  0
 24 51  1  1
 25 26  1  1
 26 52  1  0
 26 53  1  0
M  CHG  1   2   1
M  END
>  <i_m_ct_stereo_status>  (61) 
1

>  <s_m_source_file>  (61) 
/var/tmp/pbs.5076255.sched01/tmp9d3cgwpa/0mc_8ktg4.sdf

>  <i_m_source_file_index>  (61) 
25

>  <i_lp_mmshare_version>  (61) 
48012

>  <i_f3d_flags>  (61) 
0

>  <s_epik_input>  (61) 
W0NIMl0xW0NIMl1OKFtDSDNdKVtDQEhdMltDSDJdQyhbQ0gzXSkoW0NIM10pW0NAQEhdKFtDQEBdMjNbQ0BAXTE0NSlbQ0hdPVtDSF1bQ0BIXShbT0hdKVtDQEBIXTVPYzZjNGMoW0NIMl0zKVtjSF1bY0hdYzZbT0hd

>  <s_epik_cmdline>  (61) 
J2VwaWtfcHl0aG9uJywgJy1waHQnLCAnMi4wJywgJy1waCcsICc3LjAnLCAnLXRuJywgJzgnLCAnLW1hJywgJzIwMCcsICctaW1hZScsICc8aW5maWxlLm1hZT4nLCAnLW9tYWUnLCAnPG91dGZpbGUubWFlPic=

>  <r_lp_tautomer_probability>  (61) 
1

>  <r_epik_Ionization_Penalty>  (61) 
0.00851623

>  <r_epik_Ionization_Penalty_Charging>  (61) 
0.00451256

>  <r_epik_Ionization_Penalty_Neutral>  (61) 
0.00400367

>  <r_epik_State_Penalty>  (61) 
-0

>  <r_epik_Charging_Adjusted_Penalty>  (61) 
0.00451256

>  <i_epik_Tot_Q>  (61) 
1

>  <i_epik_Tot_abs_Q>  (61) 
1

>  <s_lp_Force_Field>  (61) 
OPLS3e

>  <r_lp_Energy>  (61) 
102.576

>  <b_lp_Chiralities_Consistent>  (61) 
1

>  <s_lp_Variant>  (61) 
9:0-1

>  <s_i_glide_gridfile>  (61) 
pfpi4k_grid

>  <i_i_glide_lignum>  (61) 
25

>  <i_i_glide_rotatable_bonds>  (61) 
2

>  <r_i_docking_score>  (61) 
-2.44789

>  <r_i_glide_ligand_efficiency>  (61) 
-0.0941497

>  <r_i_glide_ligand_efficiency_sa>  (61) 
-0.278918

>  <r_i_glide_ligand_efficiency_ln>  (61) 
-0.574879

>  <r_i_glide_gscore>  (61) 
-2.44789

>  <r_i_glide_lipo>  (61) 
-0.461093

>  <r_i_glide_hbond>  (61) 
0

>  <r_i_glide_metal>  (61) 
-0

>  <r_i_glide_rewards>  (61) 
-0.9923

>  <r_i_glide_evdw>  (61) 
-20.007

>  <r_i_glide_ecoul>  (61) 
0.0390278

>  <r_i_glide_erotb>  (61) 
0

>  <r_i_glide_esite>  (61) 
0

>  <r_i_glide_emodel>  (61) 
-23.3665

>  <r_i_glide_energy>  (61) 
-19.968

>  <r_i_glide_einternal>  (61) 
0.512925

>  <r_i_glide_intrahb_reward>  (61) 
-0

>  <i_i_glide_confnum>  (61) 
2

>  <i_i_glide_posenum>  (61) 
12

>  <r_i_glide_eff_state_penalty>  (61) 
0

>  <ligand_id>  (61) 
9

>  <original_smiles>  (61) 
CN1CCC23c4c5ccc(O)c4OC2C(O)C=CC2C(C)(C)CC1C23C5

>  <smiles>  (61) 
[H]Oc1c([H])c([H])c2c3c1OC1([H])C([H])(O[H])C([H])=C([H])C4([H])C(C([H])([H])[H])(C([H])([H])[H])C([H])([H])C5([H])C4(C2([H])[H])C31C([H])([H])C([H])([H])[N+]5([H])C([H])([H])[H]

$$$$
9:0:2
     RDKit          3D

 54 59  0  0  1  0  0  0  0  0999 V2000
    7.9985   -3.2387   -1.2649 C   0  0  0  0  0  0  0  0  0  0  0  0
    6.7960   -3.3531   -0.3986 N   0  0  1  0  0  0  0  0  0  0  0  0
    7.1693   -3.6220    1.0145 C   0  0  0  0  0  0  0  0  0  0  0  0
    6.0363   -3.3238    2.0218 C   0  0  0  0  0  0  0  0  0  0  0  0
    4.6346   -3.6068    1.4474 C   0  0  2  0  0  0  0  0  0  0  0  0
    3.6009   -3.0329    2.3205 C   0  0  0  0  0  0  0  0  0  0  0  0
    3.0943   -1.7918    2.0306 C   0  0  0  0  0  0  0  0  0  0  0  0
    2.0506   -1.3216    2.8486 C   0  0  0  0  0  0  0  0  0  0  0  0
    1.6093   -2.1609    3.9154 C   0  0  0  0  0  0  0  0  0  0  0  0
    2.1163   -3.4820    4.0787 C   0  0  0  0  0  0  0  0  0  0  0  0
    1.6107   -4.3071    5.0402 O   0  0  0  0  0  0  0  0  0  0  0  0
    3.1283   -3.9495    3.2130 C   0  0  0  0  0  0  0  0  0  0  0  0
    3.6527   -5.1856    2.9967 O   0  0  0  0  0  0  0  0  0  0  0  0
    4.2797   -5.1431    1.6782 C   0  0  1  0  0  0  0  0  0  0  0  0
    3.3349   -5.8618    0.6720 C   0  0  1  0  0  0  0  0  0  0  0  0
    2.8137   -7.0291    1.2857 O   0  0  0  0  0  0  0  0  0  0  0  0
    2.2237   -5.0263    0.0733 C   0  0  0  0  0  0  0  0  0  0  0  0
    2.4256   -3.9394   -0.7059 C   0  0  0  0  0  0  0  0  0  0  0  0
    3.8242   -3.4734   -1.0157 C   0  0  1  0  0  0  0  0  0  0  0  0
    4.1214   -2.7408   -2.3474 C   0  0  0  0  0  0  0  0  0  0  0  0
    4.5242   -3.7254   -3.4669 C   0  0  0  0  0  0  0  0  0  0  0  0
    2.9690   -1.8648   -2.8911 C   0  0  0  0  0  0  0  0  0  0  0  0
    5.3489   -1.8904   -1.9503 C   0  0  0  0  0  0  0  0  0  0  0  0
    5.7858   -2.2580   -0.5042 C   0  0  1  0  0  0  0  0  0  0  0  0
    4.4641   -2.7145    0.1604 C   0  0  2  0  0  0  0  0  0  0  0  0
    3.6773   -1.4448    0.6802 C   0  0  0  0  0  0  0  0  0  0  0  0
    8.5293   -2.2939   -1.1135 H   0  0  0  0  0  0  0  0  0  0  0  0
    7.7487   -3.3499   -2.3172 H   0  0  0  0  0  0  0  0  0  0  0  0
    8.7035   -4.0426   -1.0362 H   0  0  0  0  0  0  0  0  0  0  0  0
    7.5065   -4.6537    1.1186 H   0  0  0  0  0  0  0  0  0  0  0  0
    8.0195   -3.0002    1.2731 H   0  0  0  0  0  0  0  0  0  0  0  0
    6.1965   -3.8836    2.9441 H   0  0  0  0  0  0  0  0  0  0  0  0
    6.0861   -2.2660    2.3046 H   0  0  0  0  0  0  0  0  0  0  0  0
    1.5697   -0.3718    2.6576 H   0  0  0  0  0  0  0  0  0  0  0  0
    0.8409   -1.8168    4.5828 H   0  0  0  0  0  0  0  0  0  0  0  0
    2.0326   -5.1531    5.0488 H   0  0  0  0  0  0  0  0  0  0  0  0
    5.1956   -5.7401    1.7268 H   0  0  0  0  0  0  0  0  0  0  0  0
    3.9202   -6.2247   -0.1717 H   0  0  0  0  0  0  0  0  0  0  0  0
    3.5016   -7.6707    1.3808 H   0  0  0  0  0  0  0  0  0  0  0  0
    1.2340   -5.3829    0.2767 H   0  0  0  0  0  0  0  0  0  0  0  0
    1.6017   -3.3820   -1.1176 H   0  0  0  0  0  0  0  0  0  0  0  0
    4.4038   -4.3878   -1.1205 H   0  0  0  0  0  0  0  0  0  0  0  0
    4.7720   -3.2076   -4.3888 H   0  0  0  0  0  0  0  0  0  0  0  0
    3.6970   -4.3700   -3.7357 H   0  0  0  0  0  0  0  0  0  0  0  0
    5.3785   -4.3416   -3.1850 H   0  0  0  0  0  0  0  0  0  0  0  0
    3.2709   -1.3199   -3.7866 H   0  0  0  0  0  0  0  0  0  0  0  0
    2.6179   -1.1274   -2.1745 H   0  0  0  0  0  0  0  0  0  0  0  0
    2.1112   -2.4745   -3.1730 H   0  0  0  0  0  0  0  0  0  0  0  0
    6.1414   -1.9706   -2.6889 H   0  0  0  0  0  0  0  0  0  0  0  0
    5.0537   -0.8394   -1.9440 H   0  0  0  0  0  0  0  0  0  0  0  0
    6.2105   -1.3729   -0.0272 H   0  0  0  0  0  0  0  0  0  0  0  0
    2.9252   -1.0845   -0.0159 H   0  0  0  0  0  0  0  0  0  0  0  0
    4.3523   -0.6120    0.8655 H   0  0  0  0  0  0  0  0  0  0  0  0
    6.3153   -4.1931   -0.7039 H   0  0  0  0  0  0  0  0  0  0  0  0
  1  2  1  0
  1 27  1  0
  1 28  1  0
  1 29  1  0
  2 24  1  0
  2  3  1  0
  2 54  1  6
  3  4  1  0
  3 30  1  0
  3 31  1  0
  5  4  1  1
  4 32  1  0
  4 33  1  0
  5 14  1  0
  5 25  1  0
  5  6  1  0
  6 12  2  0
  6  7  1  0
  7 26  1  0
  7  8  2  0
  8  9  1  0
  8 34  1  0
  9 10  2  0
  9 35  1  0
 10 11  1  0
 10 12  1  0
 11 36  1  0
 12 13  1  0
 13 14  1  0
 14 15  1  0
 14 37  1  1
 15 16  1  0
 15 17  1  0
 15 38  1  6
 16 39  1  0
 17 18  2  0
 17 40  1  0
 18 19  1  0
 18 41  1  0
 19 25  1  0
 19 20  1  0
 19 42  1  6
 20 21  1  0
 20 22  1  0
 20 23  1  0
 21 43  1  0
 21 44  1  0
 21 45  1  0
 22 46  1  0
 22 47  1  0
 22 48  1  0
 23 24  1  0
 23 49  1  0
 23 50  1  0
 24 25  1  0
 24 51  1  1
 25 26  1  1
 26 52  1  0
 26 53  1  0
M  CHG  1   2   1
M  END
>  <i_m_ct_stereo_status>  (62) 
1

>  <s_m_source_file>  (62) 
/var/tmp/pbs.5076255.sched01/tmp9d3cgwpa/0mc_8ktg4.sdf

>  <i_m_source_file_index>  (62) 
25

>  <i_lp_mmshare_version>  (62) 
48012

>  <i_f3d_flags>  (62) 
0

>  <s_epik_input>  (62) 
W0NIMl0xW0NIMl1OKFtDSDNdKVtDQEhdMltDSDJdQyhbQ0gzXSkoW0NIM10pW0NAQEhdKFtDQEBdMjNbQ0BAXTE0NSlbQ0hdPVtDSF1bQ0BIXShbT0hdKVtDQEBIXTVPYzZjNGMoW0NIMl0zKVtjSF1bY0hdYzZbT0hd

>  <s_epik_cmdline>  (62) 
J2VwaWtfcHl0aG9uJywgJy1waHQnLCAnMi4wJywgJy1waCcsICc3LjAnLCAnLXRuJywgJzgnLCAnLW1hJywgJzIwMCcsICctaW1hZScsICc8aW5maWxlLm1hZT4nLCAnLW9tYWUnLCAnPG91dGZpbGUubWFlPic=

>  <r_lp_tautomer_probability>  (62) 
1

>  <r_epik_Ionization_Penalty>  (62) 
0.00851623

>  <r_epik_Ionization_Penalty_Charging>  (62) 
0.00451256

>  <r_epik_Ionization_Penalty_Neutral>  (62) 
0.00400367

>  <r_epik_State_Penalty>  (62) 
-0

>  <r_epik_Charging_Adjusted_Penalty>  (62) 
0.00451256

>  <i_epik_Tot_Q>  (62) 
1

>  <i_epik_Tot_abs_Q>  (62) 
1

>  <s_lp_Force_Field>  (62) 
OPLS3e

>  <r_lp_Energy>  (62) 
102.576

>  <b_lp_Chiralities_Consistent>  (62) 
1

>  <s_lp_Variant>  (62) 
9:0-1

>  <s_i_glide_gridfile>  (62) 
pfpi4k_grid

>  <i_i_glide_lignum>  (62) 
25

>  <i_i_glide_rotatable_bonds>  (62) 
2

>  <r_i_docking_score>  (62) 
-2.31373

>  <r_i_glide_ligand_efficiency>  (62) 
-0.0889895

>  <r_i_glide_ligand_efficiency_sa>  (62) 
-0.263631

>  <r_i_glide_ligand_efficiency_ln>  (62) 
-0.543371

>  <r_i_glide_gscore>  (62) 
-2.31373

>  <r_i_glide_lipo>  (62) 
-0.241379

>  <r_i_glide_hbond>  (62) 
0

>  <r_i_glide_metal>  (62) 
-0

>  <r_i_glide_rewards>  (62) 
-0.9923

>  <r_i_glide_evdw>  (62) 
-20.5564

>  <r_i_glide_ecoul>  (62) 
-0.348184

>  <r_i_glide_erotb>  (62) 
0

>  <r_i_glide_esite>  (62) 
0

>  <r_i_glide_emodel>  (62) 
-24.2591

>  <r_i_glide_energy>  (62) 
-20.9046

>  <r_i_glide_einternal>  (62) 
0.470051

>  <r_i_glide_intrahb_reward>  (62) 
-0

>  <i_i_glide_confnum>  (62) 
2

>  <i_i_glide_posenum>  (62) 
7

>  <r_i_glide_eff_state_penalty>  (62) 
0

>  <ligand_id>  (62) 
9

>  <original_smiles>  (62) 
CN1CCC23c4c5ccc(O)c4OC2C(O)C=CC2C(C)(C)CC1C23C5

>  <smiles>  (62) 
[H]Oc1c([H])c([H])c2c3c1OC1([H])C([H])(O[H])C([H])=C([H])C4([H])C(C([H])([H])[H])(C([H])([H])[H])C([H])([H])C5([H])C4(C2([H])[H])C31C([H])([H])C([H])([H])[N+]5([H])C([H])([H])[H]

$$$$
11:0:0
     RDKit          3D

 50 55  0  0  1  0  0  0  0  0999 V2000
    3.7979   -3.2731   -3.4350 C   0  0  0  0  0  0  0  0  0  0  0  0
    4.3441   -2.6467   -2.1303 C   0  0  2  0  0  0  0  0  0  0  0  0
    5.8652   -2.9062   -2.1168 C   0  0  0  0  0  0  0  0  0  0  0  0
    6.6557   -2.6376   -0.8176 C   0  0  0  0  0  0  0  0  0  0  0  0
    6.0796   -3.2571    0.4905 C   0  0  2  0  0  0  0  0  0  0  0  0
    7.2326   -3.4970    1.2682 O   0  0  0  0  0  0  0  0  0  0  0  0
    5.3944   -4.5733    0.0970 C   0  0  0  0  0  0  0  0  0  0  0  0
    5.9822   -5.6540    0.1108 O   0  0  0  0  0  0  0  0  0  0  0  0
    3.9160   -4.4543   -0.2421 C   0  0  1  0  0  0  0  0  0  0  0  0
    2.9818   -5.0432    0.8952 C   0  0  0  0  0  0  0  0  0  0  0  0
    2.0114   -5.6829    0.4860 O   0  0  0  0  0  0  0  0  0  0  0  0
    3.2117   -4.8755    2.4346 C   0  0  2  0  0  0  0  0  0  0  0  0
    2.2596   -5.6108    3.4194 C   0  0  0  0  0  0  0  0  0  0  0  0
    1.3942   -4.3495    3.6939 C   0  0  1  0  0  0  0  0  0  0  0  0
    1.1035   -3.9587    5.1466 C   0  0  0  0  0  0  0  0  0  0  0  0
    0.3901   -2.7389    5.2202 O   0  0  0  0  0  0  0  0  0  0  0  0
    2.5839   -3.6777    3.0645 C   0  0  0  0  0  0  0  0  0  0  0  0
    3.3738   -2.6302    3.3163 C   0  0  0  0  0  0  0  0  0  0  0  0
    4.7428   -2.9228    2.7445 C   0  0  1  0  0  0  0  0  0  0  0  0
    4.5949   -4.4483    2.8795 C   0  0  0  0  0  0  0  0  0  0  0  0
    5.5352   -5.1111    3.3187 O   0  0  0  0  0  0  0  0  0  0  0  0
    5.0378   -2.3550    1.2829 C   0  0  1  0  0  0  0  0  0  0  0  0
    5.3060   -0.8564    1.1992 C   0  0  0  0  0  0  0  0  0  0  0  0
    4.6078   -0.7930   -0.0792 O   0  0  0  0  0  0  0  0  0  0  0  0
    3.8528   -1.9664    0.3273 C   0  0  2  0  0  0  0  0  0  0  0  0
    2.6231   -1.5896    0.9068 O   0  0  0  0  0  0  0  0  0  0  0  0
    3.5854   -3.0164   -0.7944 C   0  0  1  0  0  0  0  0  0  0  0  0
    2.2052   -3.0643   -1.1517 O   0  0  0  0  0  0  0  0  0  0  0  0
    3.8793   -4.3459   -3.4126 H   0  0  0  0  0  0  0  0  0  0  0  0
    4.3837   -2.9896   -4.3072 H   0  0  0  0  0  0  0  0  0  0  0  0
    2.7546   -3.0216   -3.6258 H   0  0  0  0  0  0  0  0  0  0  0  0
    4.2053   -1.5786   -2.2830 H   0  0  0  0  0  0  0  0  0  0  0  0
    6.0722   -3.9262   -2.4492 H   0  0  0  0  0  0  0  0  0  0  0  0
    6.2970   -2.2898   -2.8973 H   0  0  0  0  0  0  0  0  0  0  0  0
    7.6496   -3.0508   -0.9959 H   0  0  0  0  0  0  0  0  0  0  0  0
    6.8475   -1.5741   -0.7175 H   0  0  0  0  0  0  0  0  0  0  0  0
    6.9775   -3.9457    2.0653 H   0  0  0  0  0  0  0  0  0  0  0  0
    3.8084   -5.1203   -1.0876 H   0  0  0  0  0  0  0  0  0  0  0  0
    1.6910   -6.4275    2.9767 H   0  0  0  0  0  0  0  0  0  0  0  0
    2.7854   -5.9234    4.3159 H   0  0  0  0  0  0  0  0  0  0  0  0
    0.5060   -4.3855    3.0623 H   0  0  0  0  0  0  0  0  0  0  0  0
    0.4914   -4.7247    5.6204 H   0  0  0  0  0  0  0  0  0  0  0  0
    2.0235   -3.8965    5.7295 H   0  0  0  0  0  0  0  0  0  0  0  0
    0.9322   -2.0482    4.8690 H   0  0  0  0  0  0  0  0  0  0  0  0
    3.1902   -1.8020    3.9852 H   0  0  0  0  0  0  0  0  0  0  0  0
    5.4809   -2.6002    3.4684 H   0  0  0  0  0  0  0  0  0  0  0  0
    4.8030   -0.2850    1.9803 H   0  0  0  0  0  0  0  0  0  0  0  0
    6.3658   -0.5978    1.1644 H   0  0  0  0  0  0  0  0  0  0  0  0
    2.0527   -1.2259    0.2220 H   0  0  0  0  0  0  0  0  0  0  0  0
    1.8437   -2.1766   -1.1963 H   0  0  0  0  0  0  0  0  0  0  0  0
  1  2  1  0
  1 29  1  0
  1 30  1  0
  1 31  1  0
  2 27  1  0
  2  3  1  0
  2 32  1  6
  3  4  1  0
  3 33  1  0
  3 34  1  0
  4  5  1  0
  4 35  1  0
  4 36  1  0
  5 22  1  0
  5  6  1  1
  5  7  1  0
  6 37  1  0
  7  8  2  0
  7  9  1  0
  9 27  1  0
  9 10  1  0
  9 38  1  6
 10 11  2  0
 10 12  1  0
 12 17  1  0
 12 20  1  0
 12 13  1  1
 13 14  1  0
 13 39  1  0
 13 40  1  0
 14 15  1  0
 14 17  1  0
 14 41  1  6
 15 16  1  0
 15 42  1  0
 15 43  1  0
 16 44  1  0
 17 18  2  0
 18 19  1  0
 18 45  1  0
 19 20  1  0
 19 22  1  0
 19 46  1  1
 20 21  2  0
 22 25  1  0
 22 23  1  1
 23 24  1  0
 23 47  1  0
 23 48  1  0
 24 25  1  0
 25 26  1  1
 25 27  1  0
 26 49  1  0
 27 28  1  6
 28 50  1  0
M  END
>  <i_m_ct_stereo_status>  (63) 
1

>  <s_m_source_file>  (63) 
/var/tmp/pbs.5076255.sched01/tmp9d3cgwpa/0mc_8ktg4.sdf

>  <i_m_source_file_index>  (63) 
27

>  <i_lp_mmshare_version>  (63) 
48012

>  <i_f3d_flags>  (63) 
0

>  <s_epik_input>  (63) 
Tz1DMVtDQEBIXShDMj1PKVtDQEBdKFtPSF0pKFtDQF0zKFtPSF0pT1tDSDJdNClbQ0BIXShbQ0gzXSlbQ0gyXVtDSDJdW0NAQF0xKFtPSF0pW0NAXTM0W0NASF0oQzU9TylbQ0hdPUMoW0NAQF0yNTYpW0NAQEhdKFtDSDJdNilbQ0gyXVtPSF0=

>  <s_epik_cmdline>  (63) 
J2VwaWtfcHl0aG9uJywgJy1waHQnLCAnMi4wJywgJy1waCcsICc3LjAnLCAnLXRuJywgJzgnLCAnLW1hJywgJzIwMCcsICctaW1hZScsICc8aW5maWxlLm1hZT4nLCAnLW9tYWUnLCAnPG91dGZpbGUubWFlPic=

>  <r_epik_Ionization_Penalty>  (63) 
2.46661

>  <r_epik_Ionization_Penalty_Charging>  (63) 
0

>  <r_epik_Ionization_Penalty_Neutral>  (63) 
2.46661

>  <r_epik_State_Penalty>  (63) 
0.00720147

>  <r_epik_Charging_Adjusted_Penalty>  (63) 
0.00720147

>  <i_epik_Tot_Q>  (63) 
0

>  <i_epik_Tot_abs_Q>  (63) 
0

>  <s_lp_Force_Field>  (63) 
OPLS3e

>  <r_lp_Energy>  (63) 
80.3471

>  <b_lp_Chiralities_Consistent>  (63) 
1

>  <s_lp_Variant>  (63) 
11:0-1

>  <s_i_glide_gridfile>  (63) 
pfpi4k_grid

>  <i_i_glide_lignum>  (63) 
27

>  <i_i_glide_rotatable_bonds>  (63) 
5

>  <r_i_docking_score>  (63) 
-4.42859

>  <r_i_glide_ligand_efficiency>  (63) 
-0.158164

>  <r_i_glide_ligand_efficiency_sa>  (63) 
-0.480279

>  <r_i_glide_ligand_efficiency_ln>  (63) 
-1.02225

>  <r_i_glide_gscore>  (63) 
-4.42859

>  <r_i_glide_lipo>  (63) 
-0.535787

>  <r_i_glide_hbond>  (63) 
-0.0281672

>  <r_i_glide_metal>  (63) 
-0

>  <r_i_glide_rewards>  (63) 
-1.34321

>  <r_i_glide_evdw>  (63) 
-23.1033

>  <r_i_glide_ecoul>  (63) 
-9.64752

>  <r_i_glide_erotb>  (63) 
0.127979

>  <r_i_glide_esite>  (63) 
-0.0471119

>  <r_i_glide_emodel>  (63) 
-45.1745

>  <r_i_glide_energy>  (63) 
-32.7508

>  <r_i_glide_einternal>  (63) 
4.0034

>  <r_i_glide_intrahb_reward>  (63) 
-0.5

>  <i_i_glide_confnum>  (63) 
5

>  <i_i_glide_posenum>  (63) 
37

>  <r_i_glide_eff_state_penalty>  (63) 
0

>  <ligand_id>  (63) 
11

>  <original_smiles>  (63) 
CC1CCC2(O)C(=O)C3C(=O)C45CC(CO)C4=CC(C5=O)C24COC4(O)C13O

>  <smiles>  (63) 
[H]OC([H])([H])C1([H])C2=C([H])C3([H])C(=O)C2(C(=O)C2([H])C(=O)C4(O[H])C([H])([H])C([H])([H])C([H])(C([H])([H])[H])C2(O[H])C2(O[H])OC([H])([H])C324)C1([H])[H]

$$$$
11:0:1
     RDKit          3D

 50 55  0  0  1  0  0  0  0  0999 V2000
    4.0807   -3.4128   -3.6069 C   0  0  0  0  0  0  0  0  0  0  0  0
    4.6752   -2.7135   -2.3521 C   0  0  2  0  0  0  0  0  0  0  0  0
    6.1569   -3.1326   -2.2715 C   0  0  0  0  0  0  0  0  0  0  0  0
    6.9435   -2.8820   -0.9583 C   0  0  0  0  0  0  0  0  0  0  0  0
    6.2553   -3.2954    0.3896 C   0  0  2  0  0  0  0  0  0  0  0  0
    7.3249   -3.5943    1.2619 O   0  0  0  0  0  0  0  0  0  0  0  0
    5.4329   -4.5596    0.0816 C   0  0  0  0  0  0  0  0  0  0  0  0
    5.8912   -5.6929    0.1898 O   0  0  0  0  0  0  0  0  0  0  0  0
    3.9852   -4.2860   -0.3240 C   0  0  1  0  0  0  0  0  0  0  0  0
    2.9641   -4.6586    0.8247 C   0  0  0  0  0  0  0  0  0  0  0  0
    1.9519   -5.2480    0.4331 O   0  0  0  0  0  0  0  0  0  0  0  0
    3.1504   -4.3562    2.3444 C   0  0  2  0  0  0  0  0  0  0  0  0
    2.0898   -4.8739    3.3597 C   0  0  0  0  0  0  0  0  0  0  0  0
    1.3911   -3.4986    3.5111 C   0  0  1  0  0  0  0  0  0  0  0  0
    1.1163   -2.9405    4.9007 C   0  0  0  0  0  0  0  0  0  0  0  0
    0.6664   -1.6022    4.8363 O   0  0  0  0  0  0  0  0  0  0  0  0
    2.6608   -3.0357    2.8425 C   0  0  0  0  0  0  0  0  0  0  0  0
    3.5778   -2.0804    3.0413 C   0  0  0  0  0  0  0  0  0  0  0  0
    4.9102   -2.6008    2.5502 C   0  0  1  0  0  0  0  0  0  0  0  0
    4.5585   -4.0827    2.8116 C   0  0  0  0  0  0  0  0  0  0  0  0
    5.3649   -4.8233    3.3684 O   0  0  0  0  0  0  0  0  0  0  0  0
    5.3089   -2.2133    1.0535 C   0  0  1  0  0  0  0  0  0  0  0  0
    5.7713   -0.7694    0.8504 C   0  0  0  0  0  0  0  0  0  0  0  0
    5.1151   -0.7318   -0.4486 O   0  0  0  0  0  0  0  0  0  0  0  0
    4.2069   -1.7640    0.0238 C   0  0  2  0  0  0  0  0  0  0  0  0
    3.0247   -1.1868    0.5385 O   0  0  0  0  0  0  0  0  0  0  0  0
    3.8439   -2.8769   -1.0160 C   0  0  1  0  0  0  0  0  0  0  0  0
    2.5086   -2.8444   -1.4787 O   0  0  0  0  0  0  0  0  0  0  0  0
    4.0171   -4.4886   -3.4941 H   0  0  0  0  0  0  0  0  0  0  0  0
    4.7113   -3.2788   -4.4797 H   0  0  0  0  0  0  0  0  0  0  0  0
    3.0918   -3.0354   -3.8680 H   0  0  0  0  0  0  0  0  0  0  0  0
    4.6660   -1.6519   -2.6070 H   0  0  0  0  0  0  0  0  0  0  0  0
    6.1962   -4.1981   -2.5026 H   0  0  0  0  0  0  0  0  0  0  0  0
    6.6883   -2.6629   -3.0973 H   0  0  0  0  0  0  0  0  0  0  0  0
    7.8781   -3.4374   -1.0703 H   0  0  0  0  0  0  0  0  0  0  0  0
    7.2772   -1.8528   -0.9399 H   0  0  0  0  0  0  0  0  0  0  0  0
    7.8572   -4.2622    0.8561 H   0  0  0  0  0  0  0  0  0  0  0  0
    3.8126   -5.0188   -1.1021 H   0  0  0  0  0  0  0  0  0  0  0  0
    1.4285   -5.6487    2.9706 H   0  0  0  0  0  0  0  0  0  0  0  0
    2.5419   -5.1887    4.2977 H   0  0  0  0  0  0  0  0  0  0  0  0
    0.4990   -3.4592    2.8834 H   0  0  0  0  0  0  0  0  0  0  0  0
    0.3392   -3.5366    5.3812 H   0  0  0  0  0  0  0  0  0  0  0  0
    1.9980   -3.0043    5.5372 H   0  0  0  0  0  0  0  0  0  0  0  0
    0.0105   -1.5306    4.1613 H   0  0  0  0  0  0  0  0  0  0  0  0
    3.4681   -1.1817    3.6324 H   0  0  0  0  0  0  0  0  0  0  0  0
    5.6796   -2.3013    3.2634 H   0  0  0  0  0  0  0  0  0  0  0  0
    5.3205   -0.0640    1.5498 H   0  0  0  0  0  0  0  0  0  0  0  0
    6.8598   -0.6586    0.8301 H   0  0  0  0  0  0  0  0  0  0  0  0
    2.4349   -0.9359   -0.1687 H   0  0  0  0  0  0  0  0  0  0  0  0
    2.0441   -2.0521   -1.2151 H   0  0  0  0  0  0  0  0  0  0  0  0
  1  2  1  0
  1 29  1  0
  1 30  1  0
  1 31  1  0
  2 27  1  0
  2  3  1  0
  2 32  1  6
  3  4  1  0
  3 33  1  0
  3 34  1  0
  4  5  1  0
  4 35  1  0
  4 36  1  0
  5 22  1  0
  5  6  1  1
  5  7  1  0
  6 37  1  0
  7  8  2  0
  7  9  1  0
  9 27  1  0
  9 10  1  0
  9 38  1  6
 10 11  2  0
 10 12  1  0
 12 17  1  0
 12 20  1  0
 12 13  1  1
 13 14  1  0
 13 39  1  0
 13 40  1  0
 14 15  1  0
 14 17  1  0
 14 41  1  6
 15 16  1  0
 15 42  1  0
 15 43  1  0
 16 44  1  0
 17 18  2  0
 18 19  1  0
 18 45  1  0
 19 20  1  0
 19 22  1  0
 19 46  1  1
 20 21  2  0
 22 25  1  0
 22 23  1  1
 23 24  1  0
 23 47  1  0
 23 48  1  0
 24 25  1  0
 25 26  1  1
 25 27  1  0
 26 49  1  0
 27 28  1  6
 28 50  1  0
M  END
>  <i_m_ct_stereo_status>  (64) 
1

>  <s_m_source_file>  (64) 
/var/tmp/pbs.5076255.sched01/tmp9d3cgwpa/0mc_8ktg4.sdf

>  <i_m_source_file_index>  (64) 
27

>  <i_lp_mmshare_version>  (64) 
48012

>  <i_f3d_flags>  (64) 
0

>  <s_epik_input>  (64) 
Tz1DMVtDQEBIXShDMj1PKVtDQEBdKFtPSF0pKFtDQF0zKFtPSF0pT1tDSDJdNClbQ0BIXShbQ0gzXSlbQ0gyXVtDSDJdW0NAQF0xKFtPSF0pW0NAXTM0W0NASF0oQzU9TylbQ0hdPUMoW0NAQF0yNTYpW0NAQEhdKFtDSDJdNilbQ0gyXVtPSF0=

>  <s_epik_cmdline>  (64) 
J2VwaWtfcHl0aG9uJywgJy1waHQnLCAnMi4wJywgJy1waCcsICc3LjAnLCAnLXRuJywgJzgnLCAnLW1hJywgJzIwMCcsICctaW1hZScsICc8aW5maWxlLm1hZT4nLCAnLW9tYWUnLCAnPG91dGZpbGUubWFlPic=

>  <r_epik_Ionization_Penalty>  (64) 
2.46661

>  <r_epik_Ionization_Penalty_Charging>  (64) 
0

>  <r_epik_Ionization_Penalty_Neutral>  (64) 
2.46661

>  <r_epik_State_Penalty>  (64) 
0.00720147

>  <r_epik_Charging_Adjusted_Penalty>  (64) 
0.00720147

>  <i_epik_Tot_Q>  (64) 
0

>  <i_epik_Tot_abs_Q>  (64) 
0

>  <s_lp_Force_Field>  (64) 
OPLS3e

>  <r_lp_Energy>  (64) 
80.3471

>  <b_lp_Chiralities_Consistent>  (64) 
1

>  <s_lp_Variant>  (64) 
11:0-1

>  <s_i_glide_gridfile>  (64) 
pfpi4k_grid

>  <i_i_glide_lignum>  (64) 
27

>  <i_i_glide_rotatable_bonds>  (64) 
5

>  <r_i_docking_score>  (64) 
-4.19674

>  <r_i_glide_ligand_efficiency>  (64) 
-0.149884

>  <r_i_glide_ligand_efficiency_sa>  (64) 
-0.455135

>  <r_i_glide_ligand_efficiency_ln>  (64) 
-0.968731

>  <r_i_glide_gscore>  (64) 
-4.19674

>  <r_i_glide_lipo>  (64) 
-0.78503

>  <r_i_glide_hbond>  (64) 
-0.0647593

>  <r_i_glide_metal>  (64) 
-0

>  <r_i_glide_rewards>  (64) 
-0.849203

>  <r_i_glide_evdw>  (64) 
-23.6755

>  <r_i_glide_ecoul>  (64) 
-9.35778

>  <r_i_glide_erotb>  (64) 
0.127979

>  <r_i_glide_esite>  (64) 
-0.0382832

>  <r_i_glide_emodel>  (64) 
-39.096

>  <r_i_glide_energy>  (64) 
-33.0333

>  <r_i_glide_einternal>  (64) 
5.22364

>  <r_i_glide_intrahb_reward>  (64) 
-0

>  <i_i_glide_confnum>  (64) 
2

>  <i_i_glide_posenum>  (64) 
12

>  <r_i_glide_eff_state_penalty>  (64) 
0

>  <ligand_id>  (64) 
11

>  <original_smiles>  (64) 
CC1CCC2(O)C(=O)C3C(=O)C45CC(CO)C4=CC(C5=O)C24COC4(O)C13O

>  <smiles>  (64) 
[H]OC([H])([H])C1([H])C2=C([H])C3([H])C(=O)C2(C(=O)C2([H])C(=O)C4(O[H])C([H])([H])C([H])([H])C([H])(C([H])([H])[H])C2(O[H])C2(O[H])OC([H])([H])C324)C1([H])[H]

$$$$
11:0:2
     RDKit          3D

 50 55  0  0  1  0  0  0  0  0999 V2000
    4.0858   -3.4076   -3.6027 C   0  0  0  0  0  0  0  0  0  0  0  0
    4.6838   -2.7115   -2.3471 C   0  0  2  0  0  0  0  0  0  0  0  0
    6.1623   -3.1335   -2.2666 C   0  0  0  0  0  0  0  0  0  0  0  0
    6.9482   -2.8864   -0.9559 C   0  0  0  0  0  0  0  0  0  0  0  0
    6.2599   -3.3046    0.3885 C   0  0  2  0  0  0  0  0  0  0  0  0
    7.3287   -3.6047    1.2622 O   0  0  0  0  0  0  0  0  0  0  0  0
    5.4348   -4.5692    0.0800 C   0  0  0  0  0  0  0  0  0  0  0  0
    5.8728   -5.7037    0.1848 O   0  0  0  0  0  0  0  0  0  0  0  0
    3.9865   -4.2867   -0.3240 C   0  0  1  0  0  0  0  0  0  0  0  0
    2.9679   -4.6590    0.8247 C   0  0  0  0  0  0  0  0  0  0  0  0
    1.9546   -5.2501    0.4316 O   0  0  0  0  0  0  0  0  0  0  0  0
    3.1574   -4.3656    2.3490 C   0  0  2  0  0  0  0  0  0  0  0  0
    2.0951   -4.8821    3.3594 C   0  0  0  0  0  0  0  0  0  0  0  0
    1.3941   -3.5032    3.5088 C   0  0  1  0  0  0  0  0  0  0  0  0
    1.1289   -2.9475    4.9064 C   0  0  0  0  0  0  0  0  0  0  0  0
    0.6847   -1.6080    4.8481 O   0  0  0  0  0  0  0  0  0  0  0  0
    2.6735   -3.0473    2.8513 C   0  0  0  0  0  0  0  0  0  0  0  0
    3.5913   -2.0919    3.0486 C   0  0  0  0  0  0  0  0  0  0  0  0
    4.9194   -2.6098    2.5521 C   0  0  1  0  0  0  0  0  0  0  0  0
    4.5679   -4.0944    2.8148 C   0  0  0  0  0  0  0  0  0  0  0  0
    5.3746   -4.8300    3.3709 O   0  0  0  0  0  0  0  0  0  0  0  0
    5.3155   -2.2187    1.0562 C   0  0  1  0  0  0  0  0  0  0  0  0
    5.7773   -0.7762    0.8523 C   0  0  0  0  0  0  0  0  0  0  0  0
    5.1227   -0.7375   -0.4405 O   0  0  0  0  0  0  0  0  0  0  0  0
    4.2089   -1.7651    0.0325 C   0  0  2  0  0  0  0  0  0  0  0  0
    3.0137   -1.2007    0.5494 O   0  0  0  0  0  0  0  0  0  0  0  0
    3.8521   -2.8766   -1.0127 C   0  0  1  0  0  0  0  0  0  0  0  0
    2.5177   -2.8409   -1.4759 O   0  0  0  0  0  0  0  0  0  0  0  0
    4.0189   -4.4828   -3.4911 H   0  0  0  0  0  0  0  0  0  0  0  0
    4.7156   -3.2805   -4.4744 H   0  0  0  0  0  0  0  0  0  0  0  0
    3.0986   -3.0275   -3.8630 H   0  0  0  0  0  0  0  0  0  0  0  0
    4.6748   -1.6506   -2.6000 H   0  0  0  0  0  0  0  0  0  0  0  0
    6.1936   -4.1982   -2.5010 H   0  0  0  0  0  0  0  0  0  0  0  0
    6.6935   -2.6665   -3.0925 H   0  0  0  0  0  0  0  0  0  0  0  0
    7.8789   -3.4441   -1.0633 H   0  0  0  0  0  0  0  0  0  0  0  0
    7.2859   -1.8572   -0.9388 H   0  0  0  0  0  0  0  0  0  0  0  0
    7.8336   -2.8192    1.4061 H   0  0  0  0  0  0  0  0  0  0  0  0
    3.8120   -5.0175   -1.1020 H   0  0  0  0  0  0  0  0  0  0  0  0
    1.4313   -5.6554    2.9672 H   0  0  0  0  0  0  0  0  0  0  0  0
    2.5513   -5.1942    4.2969 H   0  0  0  0  0  0  0  0  0  0  0  0
    0.5173   -3.4630    2.8780 H   0  0  0  0  0  0  0  0  0  0  0  0
    0.3480   -3.5440    5.3840 H   0  0  0  0  0  0  0  0  0  0  0  0
    2.0114   -3.0223    5.5416 H   0  0  0  0  0  0  0  0  0  0  0  0
    0.0275   -1.5294    4.1733 H   0  0  0  0  0  0  0  0  0  0  0  0
    3.4875   -1.1909    3.6376 H   0  0  0  0  0  0  0  0  0  0  0  0
    5.6860   -2.3175    3.2683 H   0  0  0  0  0  0  0  0  0  0  0  0
    5.3315   -0.0731    1.5605 H   0  0  0  0  0  0  0  0  0  0  0  0
    6.8658   -0.6568    0.8332 H   0  0  0  0  0  0  0  0  0  0  0  0
    2.4368   -0.9340   -0.1617 H   0  0  0  0  0  0  0  0  0  0  0  0
    2.0539   -2.0518   -1.2173 H   0  0  0  0  0  0  0  0  0  0  0  0
  1  2  1  0
  1 29  1  0
  1 30  1  0
  1 31  1  0
  2 27  1  0
  2  3  1  0
  2 32  1  6
  3  4  1  0
  3 33  1  0
  3 34  1  0
  4  5  1  0
  4 35  1  0
  4 36  1  0
  5 22  1  0
  5  6  1  1
  5  7  1  0
  6 37  1  0
  7  8  2  0
  7  9  1  0
  9 27  1  0
  9 10  1  0
  9 38  1  6
 10 11  2  0
 10 12  1  0
 12 17  1  0
 12 20  1  0
 12 13  1  1
 13 14  1  0
 13 39  1  0
 13 40  1  0
 14 15  1  0
 14 17  1  0
 14 41  1  6
 15 16  1  0
 15 42  1  0
 15 43  1  0
 16 44  1  0
 17 18  2  0
 18 19  1  0
 18 45  1  0
 19 20  1  0
 19 22  1  0
 19 46  1  1
 20 21  2  0
 22 25  1  0
 22 23  1  1
 23 24  1  0
 23 47  1  0
 23 48  1  0
 24 25  1  0
 25 26  1  1
 25 27  1  0
 26 49  1  0
 27 28  1  6
 28 50  1  0
M  END
>  <i_m_ct_stereo_status>  (65) 
1

>  <s_m_source_file>  (65) 
/var/tmp/pbs.5076255.sched01/tmp9d3cgwpa/0mc_8ktg4.sdf

>  <i_m_source_file_index>  (65) 
27

>  <i_lp_mmshare_version>  (65) 
48012

>  <i_f3d_flags>  (65) 
0

>  <s_epik_input>  (65) 
Tz1DMVtDQEBIXShDMj1PKVtDQEBdKFtPSF0pKFtDQF0zKFtPSF0pT1tDSDJdNClbQ0BIXShbQ0gzXSlbQ0gyXVtDSDJdW0NAQF0xKFtPSF0pW0NAXTM0W0NASF0oQzU9TylbQ0hdPUMoW0NAQF0yNTYpW0NAQEhdKFtDSDJdNilbQ0gyXVtPSF0=

>  <s_epik_cmdline>  (65) 
J2VwaWtfcHl0aG9uJywgJy1waHQnLCAnMi4wJywgJy1waCcsICc3LjAnLCAnLXRuJywgJzgnLCAnLW1hJywgJzIwMCcsICctaW1hZScsICc8aW5maWxlLm1hZT4nLCAnLW9tYWUnLCAnPG91dGZpbGUubWFlPic=

>  <r_epik_Ionization_Penalty>  (65) 
2.46661

>  <r_epik_Ionization_Penalty_Charging>  (65) 
0

>  <r_epik_Ionization_Penalty_Neutral>  (65) 
2.46661

>  <r_epik_State_Penalty>  (65) 
0.00720147

>  <r_epik_Charging_Adjusted_Penalty>  (65) 
0.00720147

>  <i_epik_Tot_Q>  (65) 
0

>  <i_epik_Tot_abs_Q>  (65) 
0

>  <s_lp_Force_Field>  (65) 
OPLS3e

>  <r_lp_Energy>  (65) 
80.3471

>  <b_lp_Chiralities_Consistent>  (65) 
1

>  <s_lp_Variant>  (65) 
11:0-1

>  <s_i_glide_gridfile>  (65) 
pfpi4k_grid

>  <i_i_glide_lignum>  (65) 
27

>  <i_i_glide_rotatable_bonds>  (65) 
5

>  <r_i_docking_score>  (65) 
-4.16149

>  <r_i_glide_ligand_efficiency>  (65) 
-0.148625

>  <r_i_glide_ligand_efficiency_sa>  (65) 
-0.451312

>  <r_i_glide_ligand_efficiency_ln>  (65) 
-0.960594

>  <r_i_glide_gscore>  (65) 
-4.16149

>  <r_i_glide_lipo>  (65) 
-0.78487

>  <r_i_glide_hbond>  (65) 
-0.0642013

>  <r_i_glide_metal>  (65) 
-0

>  <r_i_glide_rewards>  (65) 
-0.849215

>  <r_i_glide_evdw>  (65) 
-23.8321

>  <r_i_glide_ecoul>  (65) 
-9.07787

>  <r_i_glide_erotb>  (65) 
0.127979

>  <r_i_glide_esite>  (65) 
-0.0378986

>  <r_i_glide_emodel>  (65) 
-39.427

>  <r_i_glide_energy>  (65) 
-32.9099

>  <r_i_glide_einternal>  (65) 
3.48098

>  <r_i_glide_intrahb_reward>  (65) 
-0

>  <i_i_glide_confnum>  (65) 
5

>  <i_i_glide_posenum>  (65) 
26

>  <r_i_glide_eff_state_penalty>  (65) 
0

>  <ligand_id>  (65) 
11

>  <original_smiles>  (65) 
CC1CCC2(O)C(=O)C3C(=O)C45CC(CO)C4=CC(C5=O)C24COC4(O)C13O

>  <smiles>  (65) 
[H]OC([H])([H])C1([H])C2=C([H])C3([H])C(=O)C2(C(=O)C2([H])C(=O)C4(O[H])C([H])([H])C([H])([H])C([H])(C([H])([H])[H])C2(O[H])C2(O[H])OC([H])([H])C324)C1([H])[H]

$$$$
11:1:0
     RDKit          3D

 49 54  0  0  1  0  0  0  0  0999 V2000
    3.2696   -3.0799   -3.1947 C   0  0  0  0  0  0  0  0  0  0  0  0
    3.9083   -2.4987   -1.9038 C   0  0  2  0  0  0  0  0  0  0  0  0
    5.4343   -2.6825   -2.0323 C   0  0  0  0  0  0  0  0  0  0  0  0
    6.3025   -2.5016   -0.7709 C   0  0  0  0  0  0  0  0  0  0  0  0
    5.8164   -3.2694    0.4903 C   0  0  2  0  0  0  0  0  0  0  0  0
    7.0054   -3.4917    1.2414 O   0  0  0  0  0  0  0  0  0  0  0  0
    5.1526   -4.5918    0.0036 C   0  0  0  0  0  0  0  0  0  0  0  0
    5.8986   -5.5644    0.2319 O   0  0  0  0  0  0  0  0  0  0  0  0
    3.7686   -4.3814   -0.0548 C   0  0  0  0  0  0  0  0  0  0  0  0
    2.8387   -5.2284    0.7638 C   0  0  0  0  0  0  0  0  0  0  0  0
    1.9038   -5.8290    0.2288 O   0  0  0  0  0  0  0  0  0  0  0  0
    3.0904   -5.2815    2.3028 C   0  0  2  0  0  0  0  0  0  0  0  0
    2.1953   -6.1685    3.1950 C   0  0  0  0  0  0  0  0  0  0  0  0
    1.2667   -5.0070    3.6286 C   0  0  1  0  0  0  0  0  0  0  0  0
    0.9863   -4.8149    5.1143 C   0  0  0  0  0  0  0  0  0  0  0  0
   -0.0715   -5.6799    5.4561 O   0  0  0  0  0  0  0  0  0  0  0  0
    2.4264   -4.2072    3.0904 C   0  0  0  0  0  0  0  0  0  0  0  0
    3.1620   -3.1513    3.4493 C   0  0  0  0  0  0  0  0  0  0  0  0
    4.5481   -3.2766    2.8375 C   0  0  1  0  0  0  0  0  0  0  0  0
    4.4634   -4.8246    2.7994 C   0  0  0  0  0  0  0  0  0  0  0  0
    5.3867   -5.5024    3.2503 O   0  0  0  0  0  0  0  0  0  0  0  0
    4.8037   -2.4894    1.4618 C   0  0  1  0  0  0  0  0  0  0  0  0
    5.0488   -0.9775    1.5406 C   0  0  0  0  0  0  0  0  0  0  0  0
    4.2968   -0.7975    0.3137 O   0  0  0  0  0  0  0  0  0  0  0  0
    3.5669   -2.0128    0.6314 C   0  0  2  0  0  0  0  0  0  0  0  0
    2.3528   -1.6838    1.2835 O   0  0  0  0  0  0  0  0  0  0  0  0
    3.2744   -2.9965   -0.5368 C   0  0  1  0  0  0  0  0  0  0  0  0
    1.8765   -3.0719   -0.8134 O   0  0  0  0  0  0  0  0  0  0  0  0
    3.3393   -4.1630   -3.2234 H   0  0  0  0  0  0  0  0  0  0  0  0
    3.7783   -2.7411   -4.0985 H   0  0  0  0  0  0  0  0  0  0  0  0
    2.2163   -2.8250   -3.3149 H   0  0  0  0  0  0  0  0  0  0  0  0
    3.7024   -1.4296   -1.9766 H   0  0  0  0  0  0  0  0  0  0  0  0
    5.6489   -3.6670   -2.4542 H   0  0  0  0  0  0  0  0  0  0  0  0
    5.7975   -1.9959   -2.7859 H   0  0  0  0  0  0  0  0  0  0  0  0
    7.2867   -2.8761   -1.0522 H   0  0  0  0  0  0  0  0  0  0  0  0
    6.4803   -1.4444   -0.5767 H   0  0  0  0  0  0  0  0  0  0  0  0
    7.4403   -4.2285    0.8249 H   0  0  0  0  0  0  0  0  0  0  0  0
    1.6777   -6.9681    2.6568 H   0  0  0  0  0  0  0  0  0  0  0  0
    2.7645   -6.5605    4.0392 H   0  0  0  0  0  0  0  0  0  0  0  0
    0.3811   -4.9658    2.9948 H   0  0  0  0  0  0  0  0  0  0  0  0
    1.8657   -5.0674    5.7160 H   0  0  0  0  0  0  0  0  0  0  0  0
    0.7076   -3.7877    5.3554 H   0  0  0  0  0  0  0  0  0  0  0  0
    0.1959   -6.5680    5.2502 H   0  0  0  0  0  0  0  0  0  0  0  0
    2.9052   -2.4387    4.2152 H   0  0  0  0  0  0  0  0  0  0  0  0
    5.2818   -3.0042    3.6098 H   0  0  0  0  0  0  0  0  0  0  0  0
    4.5939   -0.5195    2.4176 H   0  0  0  0  0  0  0  0  0  0  0  0
    6.0950   -0.7017    1.4743 H   0  0  0  0  0  0  0  0  0  0  0  0
    1.7954   -1.2645    0.6223 H   0  0  0  0  0  0  0  0  0  0  0  0
    1.5079   -2.1832   -0.8876 H   0  0  0  0  0  0  0  0  0  0  0  0
  1  2  1  0
  1 29  1  0
  1 30  1  0
  1 31  1  0
  2 27  1  0
  2  3  1  0
  2 32  1  6
  3  4  1  0
  3 33  1  0
  3 34  1  0
  4  5  1  0
  4 35  1  0
  4 36  1  0
  5 22  1  0
  5  6  1  1
  5  7  1  0
  6 37  1  0
  7  8  1  0
  7  9  2  0
  9 27  1  0
  9 10  1  0
 10 11  2  0
 10 12  1  0
 12 17  1  0
 12 20  1  0
 12 13  1  1
 13 14  1  0
 13 38  1  0
 13 39  1  0
 14 15  1  0
 14 17  1  0
 14 40  1  6
 15 16  1  0
 15 41  1  0
 15 42  1  0
 16 43  1  0
 17 18  2  0
 18 19  1  0
 18 44  1  0
 19 20  1  0
 19 22  1  0
 19 45  1  1
 20 21  2  0
 22 25  1  0
 22 23  1  1
 23 24  1  0
 23 46  1  0
 23 47  1  0
 24 25  1  0
 25 26  1  1
 25 27  1  0
 26 48  1  0
 27 28  1  6
 28 49  1  0
M  CHG  1   8  -1
M  END
>  <i_m_ct_stereo_status>  (66) 
1

>  <s_m_source_file>  (66) 
/var/tmp/pbs.5076255.sched01/tmp9d3cgwpa/0mc_8ktg4.sdf

>  <i_m_source_file_index>  (66) 
28

>  <i_lp_mmshare_version>  (66) 
48012

>  <i_f3d_flags>  (66) 
0

>  <s_epik_input>  (66) 
Tz1DMVtDQEBIXShDMj1PKVtDQEBdKFtPSF0pKFtDQF0zKFtPSF0pT1tDSDJdNClbQ0BIXShbQ0gzXSlbQ0gyXVtDSDJdW0NAQF0xKFtPSF0pW0NAXTM0W0NASF0oQzU9TylbQ0hdPUMoW0NAQF0yNTYpW0NAQEhdKFtDSDJdNilbQ0gyXVtPSF0=

>  <s_epik_cmdline>  (66) 
J2VwaWtfcHl0aG9uJywgJy1waHQnLCAnMi4wJywgJy1waCcsICc3LjAnLCAnLXRuJywgJzgnLCAnLW1hJywgJzIwMCcsICctaW1hZScsICc8aW5maWxlLm1hZT4nLCAnLW9tYWUnLCAnPG91dGZpbGUubWFlPic=

>  <r_epik_Ionization_Penalty>  (66) 
7.35456

>  <r_epik_Ionization_Penalty_Charging>  (66) 
0.00291609

>  <r_epik_Ionization_Penalty_Neutral>  (66) 
7.35165

>  <r_epik_State_Penalty>  (66) 
2.61853

>  <r_epik_Charging_Adjusted_Penalty>  (66) 
2.62144

>  <i_epik_Tot_Q>  (66) 
-1

>  <i_epik_Tot_abs_Q>  (66) 
1

>  <s_lp_Force_Field>  (66) 
OPLS3e

>  <r_lp_Energy>  (66) 
118.484

>  <b_lp_Chiralities_Consistent>  (66) 
1

>  <s_lp_Variant>  (66) 
11:0-2

>  <s_i_glide_gridfile>  (66) 
pfpi4k_grid

>  <i_i_glide_lignum>  (66) 
28

>  <i_i_glide_rotatable_bonds>  (66) 
5

>  <r_i_docking_score>  (66) 
-3.30369

>  <r_i_glide_ligand_efficiency>  (66) 
-0.117989

>  <r_i_glide_ligand_efficiency_sa>  (66) 
-0.358284

>  <r_i_glide_ligand_efficiency_ln>  (66) 
-0.762588

>  <r_i_glide_gscore>  (66) 
-3.30369

>  <r_i_glide_lipo>  (66) 
-0.409142

>  <r_i_glide_hbond>  (66) 
-0.0264495

>  <r_i_glide_metal>  (66) 
-0

>  <r_i_glide_rewards>  (66) 
-0.75958

>  <r_i_glide_evdw>  (66) 
-18.2659

>  <r_i_glide_ecoul>  (66) 
-8.40735

>  <r_i_glide_erotb>  (66) 
0.128574

>  <r_i_glide_esite>  (66) 
-0.0626929

>  <r_i_glide_emodel>  (66) 
-32.0778

>  <r_i_glide_energy>  (66) 
-26.6732

>  <r_i_glide_einternal>  (66) 
1.30404

>  <r_i_glide_intrahb_reward>  (66) 
-0

>  <i_i_glide_confnum>  (66) 
1

>  <i_i_glide_posenum>  (66) 
32

>  <r_i_glide_eff_state_penalty>  (66) 
0

>  <ligand_id>  (66) 
11

>  <original_smiles>  (66) 
CC1CCC2(O)C(=O)C3C(=O)C45CC(CO)C4=CC(C5=O)C24COC4(O)C13O

>  <smiles>  (66) 
[H]OC([H])([H])C1([H])C2=C([H])C3([H])C(=O)C2(C(=O)C2=C([O-])C4(O[H])C([H])([H])C([H])([H])C([H])(C([H])([H])[H])C2(O[H])C2(O[H])OC([H])([H])C324)C1([H])[H]

$$$$
11:1:1
     RDKit          3D

 49 54  0  0  1  0  0  0  0  0999 V2000
    3.7936   -3.2647   -3.4166 C   0  0  0  0  0  0  0  0  0  0  0  0
    4.3433   -2.6322   -2.1174 C   0  0  2  0  0  0  0  0  0  0  0  0
    5.8656   -2.8932   -2.1361 C   0  0  0  0  0  0  0  0  0  0  0  0
    6.6790   -2.6382   -0.8541 C   0  0  0  0  0  0  0  0  0  0  0  0
    6.1009   -3.2829    0.4312 C   0  0  2  0  0  0  0  0  0  0  0  0
    7.2224   -3.4567    1.2820 O   0  0  0  0  0  0  0  0  0  0  0  0
    5.4038   -4.6127    0.0401 C   0  0  0  0  0  0  0  0  0  0  0  0
    6.0760   -5.6092    0.4110 O   0  0  0  0  0  0  0  0  0  0  0  0
    4.0453   -4.3928   -0.1566 C   0  0  0  0  0  0  0  0  0  0  0  0
    3.0468   -5.1379    0.6765 C   0  0  0  0  0  0  0  0  0  0  0  0
    2.1144   -5.7431    0.1435 O   0  0  0  0  0  0  0  0  0  0  0  0
    3.2251   -5.0791    2.2354 C   0  0  2  0  0  0  0  0  0  0  0  0
    2.2470   -5.8777    3.1371 C   0  0  0  0  0  0  0  0  0  0  0  0
    1.3563   -4.6444    3.4325 C   0  0  1  0  0  0  0  0  0  0  0  0
    0.9903   -4.3142    4.8780 C   0  0  0  0  0  0  0  0  0  0  0  0
   -0.0115   -5.2192    5.2914 O   0  0  0  0  0  0  0  0  0  0  0  0
    2.5553   -3.9251    2.8911 C   0  0  0  0  0  0  0  0  0  0  0  0
    3.3037   -2.8573    3.2172 C   0  0  0  0  0  0  0  0  0  0  0  0
    4.6962   -3.0560    2.6796 C   0  0  1  0  0  0  0  0  0  0  0  0
    4.5738   -4.5979    2.7690 C   0  0  0  0  0  0  0  0  0  0  0  0
    5.4805   -5.2359    3.2963 O   0  0  0  0  0  0  0  0  0  0  0  0
    5.0524   -2.3969    1.2614 C   0  0  1  0  0  0  0  0  0  0  0  0
    5.3565   -0.9060    1.2382 C   0  0  0  0  0  0  0  0  0  0  0  0
    4.6674   -0.7831   -0.0379 O   0  0  0  0  0  0  0  0  0  0  0  0
    3.8792   -1.9520    0.3235 C   0  0  2  0  0  0  0  0  0  0  0  0
    2.6517   -1.5340    0.9109 O   0  0  0  0  0  0  0  0  0  0  0  0
    3.5884   -3.0188   -0.7746 C   0  0  1  0  0  0  0  0  0  0  0  0
    2.2182   -3.0658   -1.0891 O   0  0  0  0  0  0  0  0  0  0  0  0
    3.9153   -4.3327   -3.3841 H   0  0  0  0  0  0  0  0  0  0  0  0
    4.3572   -2.9777   -4.3036 H   0  0  0  0  0  0  0  0  0  0  0  0
    2.7420   -3.0410   -3.5947 H   0  0  0  0  0  0  0  0  0  0  0  0
    4.2018   -1.5609   -2.2774 H   0  0  0  0  0  0  0  0  0  0  0  0
    6.0675   -3.9102   -2.4702 H   0  0  0  0  0  0  0  0  0  0  0  0
    6.2807   -2.2825   -2.9222 H   0  0  0  0  0  0  0  0  0  0  0  0
    7.6646   -3.0658   -1.0422 H   0  0  0  0  0  0  0  0  0  0  0  0
    6.8780   -1.5808   -0.7164 H   0  0  0  0  0  0  0  0  0  0  0  0
    6.9446   -4.0668    1.9553 H   0  0  0  0  0  0  0  0  0  0  0  0
    1.7231   -6.6836    2.6114 H   0  0  0  0  0  0  0  0  0  0  0  0
    2.7618   -6.2234    4.0334 H   0  0  0  0  0  0  0  0  0  0  0  0
    0.5126   -4.6595    2.7513 H   0  0  0  0  0  0  0  0  0  0  0  0
    1.8555   -4.4169    5.5369 H   0  0  0  0  0  0  0  0  0  0  0  0
    0.6195   -3.2931    4.9712 H   0  0  0  0  0  0  0  0  0  0  0  0
    0.3559   -6.0894    5.2405 H   0  0  0  0  0  0  0  0  0  0  0  0
    3.0668   -2.0549    3.8933 H   0  0  0  0  0  0  0  0  0  0  0  0
    5.3963   -2.7610    3.4489 H   0  0  0  0  0  0  0  0  0  0  0  0
    4.8530   -0.3590    2.0323 H   0  0  0  0  0  0  0  0  0  0  0  0
    6.4262   -0.6745    1.2290 H   0  0  0  0  0  0  0  0  0  0  0  0
    2.0633   -1.2267    0.2202 H   0  0  0  0  0  0  0  0  0  0  0  0
    1.8410   -2.1729   -1.1605 H   0  0  0  0  0  0  0  0  0  0  0  0
  1  2  1  0
  1 29  1  0
  1 30  1  0
  1 31  1  0
  2 27  1  0
  2  3  1  0
  2 32  1  6
  3  4  1  0
  3 33  1  0
  3 34  1  0
  4  5  1  0
  4 35  1  0
  4 36  1  0
  5 22  1  0
  5  6  1  1
  5  7  1  0
  6 37  1  0
  7  8  1  0
  7  9  2  0
  9 27  1  0
  9 10  1  0
 10 11  2  0
 10 12  1  0
 12 17  1  0
 12 20  1  0
 12 13  1  1
 13 14  1  0
 13 38  1  0
 13 39  1  0
 14 15  1  0
 14 17  1  0
 14 40  1  6
 15 16  1  0
 15 41  1  0
 15 42  1  0
 16 43  1  0
 17 18  2  0
 18 19  1  0
 18 44  1  0
 19 20  1  0
 19 22  1  0
 19 45  1  1
 20 21  2  0
 22 25  1  0
 22 23  1  1
 23 24  1  0
 23 46  1  0
 23 47  1  0
 24 25  1  0
 25 26  1  1
 25 27  1  0
 26 48  1  0
 27 28  1  6
 28 49  1  0
M  CHG  1   8  -1
M  END
>  <i_m_ct_stereo_status>  (67) 
1

>  <s_m_source_file>  (67) 
/var/tmp/pbs.5076255.sched01/tmp9d3cgwpa/0mc_8ktg4.sdf

>  <i_m_source_file_index>  (67) 
28

>  <i_lp_mmshare_version>  (67) 
48012

>  <i_f3d_flags>  (67) 
0

>  <s_epik_input>  (67) 
Tz1DMVtDQEBIXShDMj1PKVtDQEBdKFtPSF0pKFtDQF0zKFtPSF0pT1tDSDJdNClbQ0BIXShbQ0gzXSlbQ0gyXVtDSDJdW0NAQF0xKFtPSF0pW0NAXTM0W0NASF0oQzU9TylbQ0hdPUMoW0NAQF0yNTYpW0NAQEhdKFtDSDJdNilbQ0gyXVtPSF0=

>  <s_epik_cmdline>  (67) 
J2VwaWtfcHl0aG9uJywgJy1waHQnLCAnMi4wJywgJy1waCcsICc3LjAnLCAnLXRuJywgJzgnLCAnLW1hJywgJzIwMCcsICctaW1hZScsICc8aW5maWxlLm1hZT4nLCAnLW9tYWUnLCAnPG91dGZpbGUubWFlPic=

>  <r_epik_Ionization_Penalty>  (67) 
7.35456

>  <r_epik_Ionization_Penalty_Charging>  (67) 
0.00291609

>  <r_epik_Ionization_Penalty_Neutral>  (67) 
7.35165

>  <r_epik_State_Penalty>  (67) 
2.61853

>  <r_epik_Charging_Adjusted_Penalty>  (67) 
2.62144

>  <i_epik_Tot_Q>  (67) 
-1

>  <i_epik_Tot_abs_Q>  (67) 
1

>  <s_lp_Force_Field>  (67) 
OPLS3e

>  <r_lp_Energy>  (67) 
118.484

>  <b_lp_Chiralities_Consistent>  (67) 
1

>  <s_lp_Variant>  (67) 
11:0-2

>  <s_i_glide_gridfile>  (67) 
pfpi4k_grid

>  <i_i_glide_lignum>  (67) 
28

>  <i_i_glide_rotatable_bonds>  (67) 
5

>  <r_i_docking_score>  (67) 
-3.28898

>  <r_i_glide_ligand_efficiency>  (67) 
-0.117464

>  <r_i_glide_ligand_efficiency_sa>  (67) 
-0.356689

>  <r_i_glide_ligand_efficiency_ln>  (67) 
-0.759194

>  <r_i_glide_gscore>  (67) 
-3.28898

>  <r_i_glide_lipo>  (67) 
-0.577486

>  <r_i_glide_hbond>  (67) 
0

>  <r_i_glide_metal>  (67) 
-0

>  <r_i_glide_rewards>  (67) 
-0.764473

>  <r_i_glide_evdw>  (67) 
-23.2938

>  <r_i_glide_ecoul>  (67) 
-5.74134

>  <r_i_glide_erotb>  (67) 
0.128574

>  <r_i_glide_esite>  (67) 
-0.0497072

>  <r_i_glide_emodel>  (67) 
-34.2322

>  <r_i_glide_energy>  (67) 
-29.0352

>  <r_i_glide_einternal>  (67) 
1.38629

>  <r_i_glide_intrahb_reward>  (67) 
-0

>  <i_i_glide_confnum>  (67) 
1

>  <i_i_glide_posenum>  (67) 
1

>  <r_i_glide_eff_state_penalty>  (67) 
0

>  <ligand_id>  (67) 
11

>  <original_smiles>  (67) 
CC1CCC2(O)C(=O)C3C(=O)C45CC(CO)C4=CC(C5=O)C24COC4(O)C13O

>  <smiles>  (67) 
[H]OC([H])([H])C1([H])C2=C([H])C3([H])C(=O)C2(C(=O)C2=C([O-])C4(O[H])C([H])([H])C([H])([H])C([H])(C([H])([H])[H])C2(O[H])C2(O[H])OC([H])([H])C324)C1([H])[H]

$$$$
11:1:2
     RDKit          3D

 49 54  0  0  1  0  0  0  0  0999 V2000
    3.2683   -3.1205   -3.1561 C   0  0  0  0  0  0  0  0  0  0  0  0
    3.9140   -2.4830   -1.8968 C   0  0  2  0  0  0  0  0  0  0  0  0
    5.4391   -2.6346   -2.0469 C   0  0  0  0  0  0  0  0  0  0  0  0
    6.3251   -2.3897   -0.8108 C   0  0  0  0  0  0  0  0  0  0  0  0
    5.8751   -3.1299    0.4788 C   0  0  2  0  0  0  0  0  0  0  0  0
    7.0778   -3.2894    1.2168 O   0  0  0  0  0  0  0  0  0  0  0  0
    5.2397   -4.4846    0.0525 C   0  0  0  0  0  0  0  0  0  0  0  0
    6.0140   -5.4346    0.2939 O   0  0  0  0  0  0  0  0  0  0  0  0
    3.8522   -4.3142    0.0125 C   0  0  0  0  0  0  0  0  0  0  0  0
    2.9618   -5.1607    0.8776 C   0  0  0  0  0  0  0  0  0  0  0  0
    2.0508   -5.8279    0.3801 O   0  0  0  0  0  0  0  0  0  0  0  0
    3.2370   -5.1455    2.4129 C   0  0  2  0  0  0  0  0  0  0  0  0
    2.3793   -6.0218    3.3508 C   0  0  0  0  0  0  0  0  0  0  0  0
    1.4296   -4.8668    3.7578 C   0  0  1  0  0  0  0  0  0  0  0  0
    1.1724   -4.6231    5.2438 C   0  0  0  0  0  0  0  0  0  0  0  0
    0.1800   -5.5266    5.6640 O   0  0  0  0  0  0  0  0  0  0  0  0
    2.5592   -4.0594    3.1712 C   0  0  0  0  0  0  0  0  0  0  0  0
    3.2752   -2.9757    3.4851 C   0  0  0  0  0  0  0  0  0  0  0  0
    4.6535   -3.0854    2.8529 C   0  0  1  0  0  0  0  0  0  0  0  0
    4.6090   -4.6344    2.8678 C   0  0  0  0  0  0  0  0  0  0  0  0
    5.5574   -5.2739    3.3234 O   0  0  0  0  0  0  0  0  0  0  0  0
    4.8667   -2.3406    1.4431 C   0  0  1  0  0  0  0  0  0  0  0  0
    5.0749   -0.8232    1.4726 C   0  0  0  0  0  0  0  0  0  0  0  0
    4.2987   -0.6985    0.2488 O   0  0  0  0  0  0  0  0  0  0  0  0
    3.6048   -1.9230    0.6253 C   0  0  2  0  0  0  0  0  0  0  0  0
    2.3860   -1.6003    1.2807 O   0  0  0  0  0  0  0  0  0  0  0  0
    3.3182   -2.9536   -0.5052 C   0  0  1  0  0  0  0  0  0  0  0  0
    1.9216   -3.0704   -0.7568 O   0  0  0  0  0  0  0  0  0  0  0  0
    3.3722   -4.2009   -3.1510 H   0  0  0  0  0  0  0  0  0  0  0  0
    3.7491   -2.7997   -4.0818 H   0  0  0  0  0  0  0  0  0  0  0  0
    2.2062   -2.9018   -3.2629 H   0  0  0  0  0  0  0  0  0  0  0  0
    3.6799   -1.4221   -2.0014 H   0  0  0  0  0  0  0  0  0  0  0  0
    5.6733   -3.6261   -2.4410 H   0  0  0  0  0  0  0  0  0  0  0  0
    5.7677   -1.9674   -2.8309 H   0  0  0  0  0  0  0  0  0  0  0  0
    7.3141   -2.7471   -1.0976 H   0  0  0  0  0  0  0  0  0  0  0  0
    6.4770   -1.3227   -0.6522 H   0  0  0  0  0  0  0  0  0  0  0  0
    7.6114   -3.9135    0.7395 H   0  0  0  0  0  0  0  0  0  0  0  0
    1.8739   -6.8513    2.8471 H   0  0  0  0  0  0  0  0  0  0  0  0
    2.9725   -6.3739    4.1962 H   0  0  0  0  0  0  0  0  0  0  0  0
    0.5335   -4.8702    3.1359 H   0  0  0  0  0  0  0  0  0  0  0  0
    2.0748   -4.8087    5.8344 H   0  0  0  0  0  0  0  0  0  0  0  0
    0.8469   -3.6005    5.4474 H   0  0  0  0  0  0  0  0  0  0  0  0
   -0.5910   -5.3962    5.1303 H   0  0  0  0  0  0  0  0  0  0  0  0
    3.0183   -2.2417    4.2287 H   0  0  0  0  0  0  0  0  0  0  0  0
    5.3951   -2.7707    3.6017 H   0  0  0  0  0  0  0  0  0  0  0  0
    4.6235   -0.3437    2.3403 H   0  0  0  0  0  0  0  0  0  0  0  0
    6.1132   -0.5217    1.3788 H   0  0  0  0  0  0  0  0  0  0  0  0
    1.8249   -1.2174    0.6225 H   0  0  0  0  0  0  0  0  0  0  0  0
    1.5357   -2.1905   -0.8496 H   0  0  0  0  0  0  0  0  0  0  0  0
  1  2  1  0
  1 29  1  0
  1 30  1  0
  1 31  1  0
  2 27  1  0
  2  3  1  0
  2 32  1  6
  3  4  1  0
  3 33  1  0
  3 34  1  0
  4  5  1  0
  4 35  1  0
  4 36  1  0
  5 22  1  0
  5  6  1  1
  5  7  1  0
  6 37  1  0
  7  8  1  0
  7  9  2  0
  9 27  1  0
  9 10  1  0
 10 11  2  0
 10 12  1  0
 12 17  1  0
 12 20  1  0
 12 13  1  1
 13 14  1  0
 13 38  1  0
 13 39  1  0
 14 15  1  0
 14 17  1  0
 14 40  1  6
 15 16  1  0
 15 41  1  0
 15 42  1  0
 16 43  1  0
 17 18  2  0
 18 19  1  0
 18 44  1  0
 19 20  1  0
 19 22  1  0
 19 45  1  1
 20 21  2  0
 22 25  1  0
 22 23  1  1
 23 24  1  0
 23 46  1  0
 23 47  1  0
 24 25  1  0
 25 26  1  1
 25 27  1  0
 26 48  1  0
 27 28  1  6
 28 49  1  0
M  CHG  1   8  -1
M  END
>  <i_m_ct_stereo_status>  (68) 
1

>  <s_m_source_file>  (68) 
/var/tmp/pbs.5076255.sched01/tmp9d3cgwpa/0mc_8ktg4.sdf

>  <i_m_source_file_index>  (68) 
28

>  <i_lp_mmshare_version>  (68) 
48012

>  <i_f3d_flags>  (68) 
0

>  <s_epik_input>  (68) 
Tz1DMVtDQEBIXShDMj1PKVtDQEBdKFtPSF0pKFtDQF0zKFtPSF0pT1tDSDJdNClbQ0BIXShbQ0gzXSlbQ0gyXVtDSDJdW0NAQF0xKFtPSF0pW0NAXTM0W0NASF0oQzU9TylbQ0hdPUMoW0NAQF0yNTYpW0NAQEhdKFtDSDJdNilbQ0gyXVtPSF0=

>  <s_epik_cmdline>  (68) 
J2VwaWtfcHl0aG9uJywgJy1waHQnLCAnMi4wJywgJy1waCcsICc3LjAnLCAnLXRuJywgJzgnLCAnLW1hJywgJzIwMCcsICctaW1hZScsICc8aW5maWxlLm1hZT4nLCAnLW9tYWUnLCAnPG91dGZpbGUubWFlPic=

>  <r_epik_Ionization_Penalty>  (68) 
7.35456

>  <r_epik_Ionization_Penalty_Charging>  (68) 
0.00291609

>  <r_epik_Ionization_Penalty_Neutral>  (68) 
7.35165

>  <r_epik_State_Penalty>  (68) 
2.61853

>  <r_epik_Charging_Adjusted_Penalty>  (68) 
2.62144

>  <i_epik_Tot_Q>  (68) 
-1

>  <i_epik_Tot_abs_Q>  (68) 
1

>  <s_lp_Force_Field>  (68) 
OPLS3e

>  <r_lp_Energy>  (68) 
118.484

>  <b_lp_Chiralities_Consistent>  (68) 
1

>  <s_lp_Variant>  (68) 
11:0-2

>  <s_i_glide_gridfile>  (68) 
pfpi4k_grid

>  <i_i_glide_lignum>  (68) 
28

>  <i_i_glide_rotatable_bonds>  (68) 
5

>  <r_i_docking_score>  (68) 
-3.17669

>  <r_i_glide_ligand_efficiency>  (68) 
-0.113453

>  <r_i_glide_ligand_efficiency_sa>  (68) 
-0.344511

>  <r_i_glide_ligand_efficiency_ln>  (68) 
-0.733273

>  <r_i_glide_gscore>  (68) 
-3.17669

>  <r_i_glide_lipo>  (68) 
-0.4204

>  <r_i_glide_hbond>  (68) 
0

>  <r_i_glide_metal>  (68) 
-0

>  <r_i_glide_rewards>  (68) 
-0.764005

>  <r_i_glide_evdw>  (68) 
-18.0122

>  <r_i_glide_ecoul>  (68) 
-7.7675

>  <r_i_glide_erotb>  (68) 
0.128574

>  <r_i_glide_esite>  (68) 
-0.0551229

>  <r_i_glide_emodel>  (68) 
-31.1299

>  <r_i_glide_energy>  (68) 
-25.7797

>  <r_i_glide_einternal>  (68) 
1.09838

>  <r_i_glide_intrahb_reward>  (68) 
-0

>  <i_i_glide_confnum>  (68) 
4

>  <i_i_glide_posenum>  (68) 
17

>  <r_i_glide_eff_state_penalty>  (68) 
0

>  <ligand_id>  (68) 
11

>  <original_smiles>  (68) 
CC1CCC2(O)C(=O)C3C(=O)C45CC(CO)C4=CC(C5=O)C24COC4(O)C13O

>  <smiles>  (68) 
[H]OC([H])([H])C1([H])C2=C([H])C3([H])C(=O)C2(C(=O)C2=C([O-])C4(O[H])C([H])([H])C([H])([H])C([H])(C([H])([H])[H])C2(O[H])C2(O[H])OC([H])([H])C324)C1([H])[H]

$$$$
12:0:0
     RDKit          3D

 46 50  0  0  1  0  0  0  0  0999 V2000
    4.9720    0.0282    4.5032 C   0  0  0  0  0  0  0  0  0  0  0  0
    4.0861   -0.2303    3.3171 C   0  0  0  0  0  0  0  0  0  0  0  0
    4.6555   -0.5130    2.1494 N   0  0  0  0  0  0  0  0  0  0  0  0
    3.6386   -0.6870    1.2740 N   0  0  0  0  0  0  0  0  0  0  0  0
    3.9390   -1.0244   -0.1027 C   0  0  0  0  0  0  0  0  0  0  0  0
    2.4079   -0.5118    1.8727 C   0  0  0  0  0  0  0  0  0  0  0  0
    2.6690   -0.2333    3.1864 C   0  0  0  0  0  0  0  0  0  0  0  0
    1.4003    0.1279    4.4364 S   0  0  0  0  0  0  0  0  0  0  0  0
    0.3677   -0.9090    4.2862 O   0  0  0  0  0  0  0  0  0  0  0  0
    2.0908    0.3405    5.7137 O   0  0  0  0  0  0  0  0  0  0  0  0
    0.7635    1.6373    3.9049 N   0  0  0  0  0  0  0  0  0  0  0  0
   -0.2768    1.7139    2.8083 C   0  0  0  0  0  0  0  0  0  0  0  0
   -1.5088    2.6772    3.1896 C   0  0  1  0  0  0  0  0  0  0  0  0
   -2.0208    2.1093    4.4762 C   0  0  0  0  0  0  0  0  0  0  0  0
   -0.8996    2.4679    5.4351 C   0  0  0  0  0  0  0  0  0  0  0  0
    0.5352    2.7868    4.7551 C   0  0  1  0  0  0  0  0  0  0  0  0
    1.1760    3.3091    6.0094 C   0  0  0  0  0  0  0  0  0  0  0  0
    0.6805    4.7985    5.6676 C   0  0  1  0  0  0  0  0  0  0  0  0
    1.9912    5.3938    5.2351 C   0  0  0  0  0  0  0  0  0  0  0  0
    2.2289    4.8007    4.0711 C   0  0  0  0  0  0  0  0  0  0  0  0
    0.9797    3.9813    3.7392 C   0  0  2  0  0  0  0  0  0  0  0  0
   -0.0520    4.8776    4.2103 C   0  0  1  0  0  0  0  0  0  0  0  0
   -1.3455    4.2564    3.4899 C   0  0  0  0  0  0  0  0  0  0  0  0
    4.4212    0.3455    5.3852 H   0  0  0  0  0  0  0  0  0  0  0  0
    5.6923    0.8178    4.2869 H   0  0  0  0  0  0  0  0  0  0  0  0
    5.5215   -0.8735    4.7759 H   0  0  0  0  0  0  0  0  0  0  0  0
    3.0206   -1.0548   -0.6929 H   0  0  0  0  0  0  0  0  0  0  0  0
    4.4145   -2.0046   -0.1439 H   0  0  0  0  0  0  0  0  0  0  0  0
    4.6122   -0.2813   -0.5318 H   0  0  0  0  0  0  0  0  0  0  0  0
    1.4805   -0.5982    1.3224 H   0  0  0  0  0  0  0  0  0  0  0  0
    0.1975    2.0062    1.8719 H   0  0  0  0  0  0  0  0  0  0  0  0
   -0.6649    0.7121    2.6257 H   0  0  0  0  0  0  0  0  0  0  0  0
   -2.2765    2.5518    2.4252 H   0  0  0  0  0  0  0  0  0  0  0  0
   -2.9699    2.5561    4.7760 H   0  0  0  0  0  0  0  0  0  0  0  0
   -2.1683    1.0310    4.4058 H   0  0  0  0  0  0  0  0  0  0  0  0
   -1.2780    3.2828    6.0621 H   0  0  0  0  0  0  0  0  0  0  0  0
   -0.7922    1.6256    6.1229 H   0  0  0  0  0  0  0  0  0  0  0  0
    0.8030    2.9384    6.9691 H   0  0  0  0  0  0  0  0  0  0  0  0
    2.2585    3.1528    6.0139 H   0  0  0  0  0  0  0  0  0  0  0  0
    0.1973    5.3498    6.4777 H   0  0  0  0  0  0  0  0  0  0  0  0
    2.6132    6.0725    5.8018 H   0  0  0  0  0  0  0  0  0  0  0  0
    3.0885    4.9084    3.4257 H   0  0  0  0  0  0  0  0  0  0  0  0
    0.9800    3.8195    2.6648 H   0  0  0  0  0  0  0  0  0  0  0  0
    0.0391    5.8928    3.8153 H   0  0  0  0  0  0  0  0  0  0  0  0
   -1.3764    4.7181    2.5021 H   0  0  0  0  0  0  0  0  0  0  0  0
   -2.2479    4.6232    3.9794 H   0  0  0  0  0  0  0  0  0  0  0  0
  1  2  1  0
  1 24  1  0
  1 25  1  0
  1 26  1  0
  2  7  1  0
  2  3  2  0
  3  4  1  0
  4  5  1  0
  4  6  1  0
  5 27  1  0
  5 28  1  0
  5 29  1  0
  6  7  2  0
  6 30  1  0
  7  8  1  0
  8  9  2  0
  8 10  2  0
  8 11  1  0
 11 16  1  0
 11 12  1  0
 12 13  1  0
 12 31  1  0
 12 32  1  0
 13 23  1  0
 13 14  1  0
 13 33  1  6
 14 15  1  0
 14 34  1  0
 14 35  1  0
 15 16  1  0
 15 36  1  0
 15 37  1  0
 16 21  1  0
 16 17  1  1
 17 18  1  0
 17 38  1  0
 17 39  1  0
 18 22  1  0
 18 19  1  0
 18 40  1  1
 19 20  2  0
 19 41  1  0
 20 21  1  0
 20 42  1  0
 21 22  1  0
 21 43  1  6
 22 23  1  0
 22 44  1  6
 23 45  1  0
 23 46  1  0
M  END
>  <i_m_ct_stereo_status>  (69) 
1

>  <s_m_source_file>  (69) 
/var/tmp/pbs.5076255.sched01/tmp9d3cgwpa/0mc_8ktg4.sdf

>  <i_m_source_file_index>  (69) 
29

>  <i_lp_mmshare_version>  (69) 
48012

>  <i_f3d_flags>  (69) 
0

>  <s_epik_input>  (69) 
W0NIM11jMW5uKFtDSDNdKVtjSF1jMVMoPU8pKD1PKU4yW0NIMl1bQ0BASF0oW0NIMl1bQ0gyXTMpW0NIMl1bQ0BIXShbQ0BASF00QzIzNSlbQ0BASF0oW0NIMl01KVtDSF09W0NIXTQ=

>  <s_epik_cmdline>  (69) 
J2VwaWtfcHl0aG9uJywgJy1waHQnLCAnMi4wJywgJy1waCcsICc3LjAnLCAnLXRuJywgJzgnLCAnLW1hJywgJzIwMCcsICctaW1hZScsICc8aW5maWxlLm1hZT4nLCAnLW9tYWUnLCAnPG91dGZpbGUubWFlPic=

>  <r_lp_tautomer_probability>  (69) 
1

>  <r_epik_Ionization_Penalty>  (69) 
3.12357e-06

>  <r_epik_Ionization_Penalty_Charging>  (69) 
0

>  <r_epik_Ionization_Penalty_Neutral>  (69) 
3.12357e-06

>  <r_epik_State_Penalty>  (69) 
-0

>  <r_epik_Charging_Adjusted_Penalty>  (69) 
0

>  <i_epik_Tot_Q>  (69) 
0

>  <i_epik_Tot_abs_Q>  (69) 
0

>  <s_lp_Force_Field>  (69) 
OPLS3e

>  <r_lp_Energy>  (69) 
165.817

>  <b_lp_Chiralities_Consistent>  (69) 
1

>  <s_lp_Variant>  (69) 
12:0-1

>  <s_i_glide_gridfile>  (69) 
pfpi4k_grid

>  <i_i_glide_lignum>  (69) 
29

>  <i_i_glide_rotatable_bonds>  (69) 
2

>  <r_i_docking_score>  (69) 
-2.19799

>  <r_i_glide_ligand_efficiency>  (69) 
-0.095565

>  <r_i_glide_ligand_efficiency_sa>  (69) 
-0.271774

>  <r_i_glide_ligand_efficiency_ln>  (69) 
-0.531495

>  <r_i_glide_gscore>  (69) 
-2.19799

>  <r_i_glide_lipo>  (69) 
-0.0971649

>  <r_i_glide_hbond>  (69) 
0

>  <r_i_glide_metal>  (69) 
-0

>  <r_i_glide_rewards>  (69) 
-1.13557

>  <r_i_glide_evdw>  (69) 
-20.4449

>  <r_i_glide_ecoul>  (69) 
-1.62612

>  <r_i_glide_erotb>  (69) 
0.339022

>  <r_i_glide_esite>  (69) 
-0.0381182

>  <r_i_glide_emodel>  (69) 
-24.9067

>  <r_i_glide_energy>  (69) 
-22.071

>  <r_i_glide_einternal>  (69) 
0.82386

>  <r_i_glide_intrahb_reward>  (69) 
-0

>  <i_i_glide_confnum>  (69) 
2

>  <i_i_glide_posenum>  (69) 
34

>  <r_i_glide_eff_state_penalty>  (69) 
0

>  <ligand_id>  (69) 
12

>  <original_smiles>  (69) 
Cc1nn(C)cc1S(=O)(=O)N1CC2CCC13CC1C=CC3C1C2

>  <smiles>  (69) 
[H]C1=C([H])C2([H])C3([H])C([H])([H])C4([H])C([H])([H])N(S(=O)(=O)c5c(C([H])([H])[H])nn(C([H])([H])[H])c5[H])C2(C([H])([H])C4([H])[H])C([H])([H])C13[H]

$$$$
12:0:1
     RDKit          3D

 46 50  0  0  1  0  0  0  0  0999 V2000
   -1.7701    0.2189    5.0895 C   0  0  0  0  0  0  0  0  0  0  0  0
   -0.8117    0.9909    4.2354 C   0  0  0  0  0  0  0  0  0  0  0  0
   -0.0801    0.3461    3.3376 N   0  0  0  0  0  0  0  0  0  0  0  0
    0.6908    1.2921    2.7470 N   0  0  0  0  0  0  0  0  0  0  0  0
    1.5989    0.9027    1.6929 C   0  0  0  0  0  0  0  0  0  0  0  0
    0.4608    2.5482    3.2658 C   0  0  0  0  0  0  0  0  0  0  0  0
   -0.5049    2.3772    4.2174 C   0  0  0  0  0  0  0  0  0  0  0  0
   -1.1456    3.6745    5.3002 S   0  0  0  0  0  0  0  0  0  0  0  0
   -0.9372    4.9439    4.5886 O   0  0  0  0  0  0  0  0  0  0  0  0
   -2.4872    3.2544    5.7280 O   0  0  0  0  0  0  0  0  0  0  0  0
   -0.0773    3.5999    6.6534 N   0  0  0  0  0  0  0  0  0  0  0  0
    1.3933    3.9295    6.4973 C   0  0  0  0  0  0  0  0  0  0  0  0
    1.9439    4.9492    7.6174 C   0  0  1  0  0  0  0  0  0  0  0  0
    1.0735    6.1515    7.4579 C   0  0  0  0  0  0  0  0  0  0  0  0
   -0.2488    5.6236    7.9761 C   0  0  0  0  0  0  0  0  0  0  0  0
   -0.4171    4.0127    7.9961 C   0  0  1  0  0  0  0  0  0  0  0  0
   -1.6914    4.0126    8.7908 C   0  0  0  0  0  0  0  0  0  0  0  0
   -0.8628    3.9430   10.1616 C   0  0  1  0  0  0  0  0  0  0  0  0
   -1.1118    2.5036   10.5095 C   0  0  0  0  0  0  0  0  0  0  0  0
   -0.3932    1.8360    9.6135 C   0  0  0  0  0  0  0  0  0  0  0  0
    0.4060    2.8805    8.8342 C   0  0  2  0  0  0  0  0  0  0  0  0
    0.7400    3.7992    9.8972 C   0  0  1  0  0  0  0  0  0  0  0  0
    1.9143    4.6378    9.2032 C   0  0  0  0  0  0  0  0  0  0  0  0
   -2.2146    0.8360    5.8664 H   0  0  0  0  0  0  0  0  0  0  0  0
   -1.2662   -0.6054    5.5928 H   0  0  0  0  0  0  0  0  0  0  0  0
   -2.5797   -0.1939    4.4846 H   0  0  0  0  0  0  0  0  0  0  0  0
    2.1993    1.7564    1.3734 H   0  0  0  0  0  0  0  0  0  0  0  0
    1.0137    0.5457    0.8523 H   0  0  0  0  0  0  0  0  0  0  0  0
    2.2598    0.1049    2.0328 H   0  0  0  0  0  0  0  0  0  0  0  0
    0.9896    3.4283    2.9267 H   0  0  0  0  0  0  0  0  0  0  0  0
    1.9714    3.0066    6.4775 H   0  0  0  0  0  0  0  0  0  0  0  0
    1.5419    4.3779    5.5142 H   0  0  0  0  0  0  0  0  0  0  0  0
    2.9638    5.2222    7.3444 H   0  0  0  0  0  0  0  0  0  0  0  0
    1.4292    7.0040    8.0400 H   0  0  0  0  0  0  0  0  0  0  0  0
    1.0068    6.4637    6.4154 H   0  0  0  0  0  0  0  0  0  0  0  0
   -0.3975    6.0887    8.9569 H   0  0  0  0  0  0  0  0  0  0  0  0
   -1.0224    6.0673    7.3481 H   0  0  0  0  0  0  0  0  0  0  0  0
   -2.3383    4.8925    8.7258 H   0  0  0  0  0  0  0  0  0  0  0  0
   -2.3186    3.1453    8.5680 H   0  0  0  0  0  0  0  0  0  0  0  0
   -1.1550    4.6385   10.9530 H   0  0  0  0  0  0  0  0  0  0  0  0
   -1.7938    2.1287   11.2616 H   0  0  0  0  0  0  0  0  0  0  0  0
   -0.3194    0.7673    9.4877 H   0  0  0  0  0  0  0  0  0  0  0  0
    1.2783    2.3871    8.4061 H   0  0  0  0  0  0  0  0  0  0  0  0
    1.2031    3.3166   10.7613 H   0  0  0  0  0  0  0  0  0  0  0  0
    2.8179    4.0520    9.3756 H   0  0  0  0  0  0  0  0  0  0  0  0
    2.0874    5.5550    9.7711 H   0  0  0  0  0  0  0  0  0  0  0  0
  1  2  1  0
  1 24  1  0
  1 25  1  0
  1 26  1  0
  2  7  1  0
  2  3  2  0
  3  4  1  0
  4  5  1  0
  4  6  1  0
  5 27  1  0
  5 28  1  0
  5 29  1  0
  6  7  2  0
  6 30  1  0
  7  8  1  0
  8  9  2  0
  8 10  2  0
  8 11  1  0
 11 16  1  0
 11 12  1  0
 12 13  1  0
 12 31  1  0
 12 32  1  0
 13 23  1  0
 13 14  1  0
 13 33  1  6
 14 15  1  0
 14 34  1  0
 14 35  1  0
 15 16  1  0
 15 36  1  0
 15 37  1  0
 16 21  1  0
 16 17  1  6
 17 18  1  0
 17 38  1  0
 17 39  1  0
 18 22  1  0
 18 19  1  0
 18 40  1  1
 19 20  2  0
 19 41  1  0
 20 21  1  0
 20 42  1  0
 21 22  1  0
 21 43  1  6
 22 23  1  0
 22 44  1  1
 23 45  1  0
 23 46  1  0
M  END
>  <i_m_ct_stereo_status>  (70) 
1

>  <s_m_source_file>  (70) 
/var/tmp/pbs.5076255.sched01/tmp9d3cgwpa/0mc_8ktg4.sdf

>  <i_m_source_file_index>  (70) 
29

>  <i_lp_mmshare_version>  (70) 
48012

>  <i_f3d_flags>  (70) 
0

>  <s_epik_input>  (70) 
W0NIM11jMW5uKFtDSDNdKVtjSF1jMVMoPU8pKD1PKU4yW0NIMl1bQ0BASF0oW0NIMl1bQ0gyXTMpW0NIMl1bQ0BIXShbQ0BASF00QzIzNSlbQ0BASF0oW0NIMl01KVtDSF09W0NIXTQ=

>  <s_epik_cmdline>  (70) 
J2VwaWtfcHl0aG9uJywgJy1waHQnLCAnMi4wJywgJy1waCcsICc3LjAnLCAnLXRuJywgJzgnLCAnLW1hJywgJzIwMCcsICctaW1hZScsICc8aW5maWxlLm1hZT4nLCAnLW9tYWUnLCAnPG91dGZpbGUubWFlPic=

>  <r_lp_tautomer_probability>  (70) 
1

>  <r_epik_Ionization_Penalty>  (70) 
3.12357e-06

>  <r_epik_Ionization_Penalty_Charging>  (70) 
0

>  <r_epik_Ionization_Penalty_Neutral>  (70) 
3.12357e-06

>  <r_epik_State_Penalty>  (70) 
-0

>  <r_epik_Charging_Adjusted_Penalty>  (70) 
0

>  <i_epik_Tot_Q>  (70) 
0

>  <i_epik_Tot_abs_Q>  (70) 
0

>  <s_lp_Force_Field>  (70) 
OPLS3e

>  <r_lp_Energy>  (70) 
165.817

>  <b_lp_Chiralities_Consistent>  (70) 
1

>  <s_lp_Variant>  (70) 
12:0-1

>  <s_i_glide_gridfile>  (70) 
pfpi4k_grid

>  <i_i_glide_lignum>  (70) 
29

>  <i_i_glide_rotatable_bonds>  (70) 
2

>  <r_i_docking_score>  (70) 
-2.15131

>  <r_i_glide_ligand_efficiency>  (70) 
-0.0935351

>  <r_i_glide_ligand_efficiency_sa>  (70) 
-0.266001

>  <r_i_glide_ligand_efficiency_ln>  (70) 
-0.520206

>  <r_i_glide_gscore>  (70) 
-2.15131

>  <r_i_glide_lipo>  (70) 
0

>  <r_i_glide_hbond>  (70) 
0

>  <r_i_glide_metal>  (70) 
-0

>  <r_i_glide_rewards>  (70) 
-1.13557

>  <r_i_glide_evdw>  (70) 
-18.0242

>  <r_i_glide_ecoul>  (70) 
-2.08623

>  <r_i_glide_erotb>  (70) 
0.339022

>  <r_i_glide_esite>  (70) 
-0.140613

>  <r_i_glide_emodel>  (70) 
-22.7747

>  <r_i_glide_energy>  (70) 
-20.1104

>  <r_i_glide_einternal>  (70) 
0.865124

>  <r_i_glide_intrahb_reward>  (70) 
-0

>  <i_i_glide_confnum>  (70) 
1

>  <i_i_glide_posenum>  (70) 
29

>  <r_i_glide_eff_state_penalty>  (70) 
0

>  <ligand_id>  (70) 
12

>  <original_smiles>  (70) 
Cc1nn(C)cc1S(=O)(=O)N1CC2CCC13CC1C=CC3C1C2

>  <smiles>  (70) 
[H]C1=C([H])C2([H])C3([H])C([H])([H])C4([H])C([H])([H])N(S(=O)(=O)c5c(C([H])([H])[H])nn(C([H])([H])[H])c5[H])C2(C([H])([H])C4([H])[H])C([H])([H])C13[H]

$$$$
12:0:2
     RDKit          3D

 46 50  0  0  1  0  0  0  0  0999 V2000
   -1.8752    2.0892    3.7253 C   0  0  0  0  0  0  0  0  0  0  0  0
   -0.4298    2.1239    3.3210 C   0  0  0  0  0  0  0  0  0  0  0  0
    0.0579    1.1279    2.5891 N   0  0  0  0  0  0  0  0  0  0  0  0
    1.3608    1.4360    2.3749 N   0  0  0  0  0  0  0  0  0  0  0  0
    2.1742    0.5465    1.5768 C   0  0  0  0  0  0  0  0  0  0  0  0
    1.7230    2.6187    2.9904 C   0  0  0  0  0  0  0  0  0  0  0  0
    0.5926    3.0745    3.5980 C   0  0  0  0  0  0  0  0  0  0  0  0
    0.4744    4.5726    4.6078 S   0  0  0  0  0  0  0  0  0  0  0  0
    1.5114    5.4940    4.1210 O   0  0  0  0  0  0  0  0  0  0  0  0
   -0.9471    4.9489    4.6293 O   0  0  0  0  0  0  0  0  0  0  0  0
    0.9242    4.0000    6.1699 N   0  0  0  0  0  0  0  0  0  0  0  0
    2.3702    3.6921    6.4960 C   0  0  0  0  0  0  0  0  0  0  0  0
    2.8528    4.3284    7.8977 C   0  0  1  0  0  0  0  0  0  0  0  0
    2.5892    5.7903    7.7302 C   0  0  0  0  0  0  0  0  0  0  0  0
    1.0733    5.8220    7.7502 C   0  0  0  0  0  0  0  0  0  0  0  0
    0.3301    4.4210    7.4186 C   0  0  1  0  0  0  0  0  0  0  0  0
   -1.0418    4.8901    7.8139 C   0  0  0  0  0  0  0  0  0  0  0  0
   -0.8024    4.4044    9.3239 C   0  0  1  0  0  0  0  0  0  0  0  0
   -1.6635    3.1737    9.3193 C   0  0  0  0  0  0  0  0  0  0  0  0
   -0.9934    2.3323    8.5416 C   0  0  0  0  0  0  0  0  0  0  0  0
    0.3458    3.0026    8.2224 C   0  0  2  0  0  0  0  0  0  0  0  0
    0.6252    3.6345    9.4906 C   0  0  1  0  0  0  0  0  0  0  0  0
    2.1855    3.9604    9.3235 C   0  0  0  0  0  0  0  0  0  0  0  0
   -2.1383    2.8843    4.4174 H   0  0  0  0  0  0  0  0  0  0  0  0
   -2.1171    1.1540    4.2265 H   0  0  0  0  0  0  0  0  0  0  0  0
   -2.5234    2.1848    2.8538 H   0  0  0  0  0  0  0  0  0  0  0  0
    3.2119    0.8826    1.5784 H   0  0  0  0  0  0  0  0  0  0  0  0
    1.8092    0.5422    0.5506 H   0  0  0  0  0  0  0  0  0  0  0  0
    2.1237   -0.4669    1.9754 H   0  0  0  0  0  0  0  0  0  0  0  0
    2.7264    3.0173    2.9468 H   0  0  0  0  0  0  0  0  0  0  0  0
    2.5300    2.6153    6.4637 H   0  0  0  0  0  0  0  0  0  0  0  0
    2.9985    4.0908    5.6983 H   0  0  0  0  0  0  0  0  0  0  0  0
    3.9304    4.1776    7.9778 H   0  0  0  0  0  0  0  0  0  0  0  0
    3.0193    6.3856    8.5368 H   0  0  0  0  0  0  0  0  0  0  0  0
    2.9908    6.1657    6.7881 H   0  0  0  0  0  0  0  0  0  0  0  0
    0.7905    6.2468    8.7200 H   0  0  0  0  0  0  0  0  0  0  0  0
    0.7663    6.5798    7.0251 H   0  0  0  0  0  0  0  0  0  0  0  0
   -1.2589    5.9603    7.7366 H   0  0  0  0  0  0  0  0  0  0  0  0
   -1.8277    4.3669    7.2622 H   0  0  0  0  0  0  0  0  0  0  0  0
   -1.0565    5.1135   10.1142 H   0  0  0  0  0  0  0  0  0  0  0  0
   -2.6348    3.0642    9.7822 H   0  0  0  0  0  0  0  0  0  0  0  0
   -1.2765    1.3370    8.2359 H   0  0  0  0  0  0  0  0  0  0  0  0
    1.0636    2.2238    7.9700 H   0  0  0  0  0  0  0  0  0  0  0  0
    0.5648    2.9530   10.3433 H   0  0  0  0  0  0  0  0  0  0  0  0
    2.6978    3.0480    9.6293 H   0  0  0  0  0  0  0  0  0  0  0  0
    2.4837    4.6896   10.0783 H   0  0  0  0  0  0  0  0  0  0  0  0
  1  2  1  0
  1 24  1  0
  1 25  1  0
  1 26  1  0
  2  7  1  0
  2  3  2  0
  3  4  1  0
  4  5  1  0
  4  6  1  0
  5 27  1  0
  5 28  1  0
  5 29  1  0
  6  7  2  0
  6 30  1  0
  7  8  1  0
  8  9  2  0
  8 10  2  0
  8 11  1  0
 11 16  1  0
 11 12  1  0
 12 13  1  0
 12 31  1  0
 12 32  1  0
 13 23  1  0
 13 14  1  0
 13 33  1  1
 14 15  1  0
 14 34  1  0
 14 35  1  0
 15 16  1  0
 15 36  1  0
 15 37  1  0
 16 21  1  0
 16 17  1  6
 17 18  1  0
 17 38  1  0
 17 39  1  0
 18 22  1  0
 18 19  1  0
 18 40  1  1
 19 20  2  0
 19 41  1  0
 20 21  1  0
 20 42  1  0
 21 22  1  0
 21 43  1  6
 22 23  1  0
 22 44  1  1
 23 45  1  0
 23 46  1  0
M  END
>  <i_m_ct_stereo_status>  (71) 
1

>  <s_m_source_file>  (71) 
/var/tmp/pbs.5076255.sched01/tmp9d3cgwpa/0mc_8ktg4.sdf

>  <i_m_source_file_index>  (71) 
29

>  <i_lp_mmshare_version>  (71) 
48012

>  <i_f3d_flags>  (71) 
0

>  <s_epik_input>  (71) 
W0NIM11jMW5uKFtDSDNdKVtjSF1jMVMoPU8pKD1PKU4yW0NIMl1bQ0BASF0oW0NIMl1bQ0gyXTMpW0NIMl1bQ0BIXShbQ0BASF00QzIzNSlbQ0BASF0oW0NIMl01KVtDSF09W0NIXTQ=

>  <s_epik_cmdline>  (71) 
J2VwaWtfcHl0aG9uJywgJy1waHQnLCAnMi4wJywgJy1waCcsICc3LjAnLCAnLXRuJywgJzgnLCAnLW1hJywgJzIwMCcsICctaW1hZScsICc8aW5maWxlLm1hZT4nLCAnLW9tYWUnLCAnPG91dGZpbGUubWFlPic=

>  <r_lp_tautomer_probability>  (71) 
1

>  <r_epik_Ionization_Penalty>  (71) 
3.12357e-06

>  <r_epik_Ionization_Penalty_Charging>  (71) 
0

>  <r_epik_Ionization_Penalty_Neutral>  (71) 
3.12357e-06

>  <r_epik_State_Penalty>  (71) 
-0

>  <r_epik_Charging_Adjusted_Penalty>  (71) 
0

>  <i_epik_Tot_Q>  (71) 
0

>  <i_epik_Tot_abs_Q>  (71) 
0

>  <s_lp_Force_Field>  (71) 
OPLS3e

>  <r_lp_Energy>  (71) 
165.817

>  <b_lp_Chiralities_Consistent>  (71) 
1

>  <s_lp_Variant>  (71) 
12:0-1

>  <s_i_glide_gridfile>  (71) 
pfpi4k_grid

>  <i_i_glide_lignum>  (71) 
29

>  <i_i_glide_rotatable_bonds>  (71) 
2

>  <r_i_docking_score>  (71) 
-2.05343

>  <r_i_glide_ligand_efficiency>  (71) 
-0.0892795

>  <r_i_glide_ligand_efficiency_sa>  (71) 
-0.253899

>  <r_i_glide_ligand_efficiency_ln>  (71) 
-0.496538

>  <r_i_glide_gscore>  (71) 
-2.05343

>  <r_i_glide_lipo>  (71) 
0

>  <r_i_glide_hbond>  (71) 
0

>  <r_i_glide_metal>  (71) 
-0

>  <r_i_glide_rewards>  (71) 
-1.13557

>  <r_i_glide_evdw>  (71) 
-17.8118

>  <r_i_glide_ecoul>  (71) 
-1.25332

>  <r_i_glide_erotb>  (71) 
0.339022

>  <r_i_glide_esite>  (71) 
-0.178288

>  <r_i_glide_emodel>  (71) 
-21.7413

>  <r_i_glide_energy>  (71) 
-19.0652

>  <r_i_glide_einternal>  (71) 
0.621904

>  <r_i_glide_intrahb_reward>  (71) 
-0

>  <i_i_glide_confnum>  (71) 
1

>  <i_i_glide_posenum>  (71) 
22

>  <r_i_glide_eff_state_penalty>  (71) 
0

>  <ligand_id>  (71) 
12

>  <original_smiles>  (71) 
Cc1nn(C)cc1S(=O)(=O)N1CC2CCC13CC1C=CC3C1C2

>  <smiles>  (71) 
[H]C1=C([H])C2([H])C3([H])C([H])([H])C4([H])C([H])([H])N(S(=O)(=O)c5c(C([H])([H])[H])nn(C([H])([H])[H])c5[H])C2(C([H])([H])C4([H])[H])C([H])([H])C13[H]

$$$$
13:0:0
     RDKit          3D

 22 22  0  0  1  0  0  0  0  0999 V2000
    3.3255   -3.3359   -3.8718 C   0  0  0  0  0  0  0  0  0  0  0  0
    2.3315   -2.2313   -3.4862 C   0  0  0  0  0  0  0  0  0  0  0  0
    2.9038   -0.7877   -3.4227 C   0  0  2  0  0  0  0  0  0  0  0  0
    2.7720   -0.0597   -4.7808 C   0  0  0  0  0  0  0  0  0  0  0  0
    4.3332   -0.6345   -2.8601 C   0  0  0  0  0  0  0  0  0  0  0  0
    4.5455   -1.3233   -1.5917 N   0  0  0  0  0  0  0  0  0  0  0  0
    3.8582   -1.3221   -0.4582 C   0  0  0  0  0  0  0  0  0  0  0  0
    4.3497   -2.1986    0.4201 N   0  0  0  0  0  0  0  0  0  0  0  0
    5.4675   -2.7021   -0.2446 N   0  0  0  0  0  0  0  0  0  0  0  0
    5.6025   -2.1629   -1.4278 N   0  0  0  0  0  0  0  0  0  0  0  0
    2.7570   -4.2543   -4.0787 H   0  0  0  0  0  0  0  0  0  0  0  0
    4.0420   -3.5629   -3.0785 H   0  0  0  0  0  0  0  0  0  0  0  0
    3.8822   -3.0626   -4.7669 H   0  0  0  0  0  0  0  0  0  0  0  0
    1.4842   -2.2554   -4.1800 H   0  0  0  0  0  0  0  0  0  0  0  0
    1.8963   -2.4772   -2.5210 H   0  0  0  0  0  0  0  0  0  0  0  0
    2.2569   -0.2442   -2.7298 H   0  0  0  0  0  0  0  0  0  0  0  0
    3.3392   -0.5663   -5.5621 H   0  0  0  0  0  0  0  0  0  0  0  0
    3.1294    0.9703   -4.7145 H   0  0  0  0  0  0  0  0  0  0  0  0
    1.7318   -0.0135   -5.1118 H   0  0  0  0  0  0  0  0  0  0  0  0
    5.0058   -1.0604   -3.6010 H   0  0  0  0  0  0  0  0  0  0  0  0
    4.5925    0.4162   -2.7398 H   0  0  0  0  0  0  0  0  0  0  0  0
    2.9847   -0.7090   -0.2704 H   0  0  0  0  0  0  0  0  0  0  0  0
  1  2  1  0
  1 11  1  0
  1 12  1  0
  1 13  1  0
  2  3  1  0
  2 14  1  0
  2 15  1  0
  3  4  1  0
  3  5  1  0
  3 16  1  1
  4 17  1  0
  4 18  1  0
  4 19  1  0
  5  6  1  0
  5 20  1  0
  5 21  1  0
  6 10  1  0
  6  7  1  0
  7  8  2  0
  7 22  1  0
  8  9  1  0
  9 10  2  0
M  END
>  <i_m_ct_stereo_status>  (72) 
1

>  <s_m_source_file>  (72) 
/var/tmp/pbs.5076255.sched01/tmp9d3cgwpa/0mc_8ktg4.sdf

>  <i_m_source_file_index>  (72) 
30

>  <i_lp_mmshare_version>  (72) 
48012

>  <i_f3d_flags>  (72) 
0

>  <s_epik_input>  (72) 
W0NIM11bQ0gyXVtDQEhdKFtDSDNdKVtDSDJdbjFbY0hdbm5uMQ==

>  <s_epik_cmdline>  (72) 
J2VwaWtfcHl0aG9uJywgJy1waHQnLCAnMi4wJywgJy1waCcsICc3LjAnLCAnLXRuJywgJzgnLCAnLW1hJywgJzIwMCcsICctaW1hZScsICc8aW5maWxlLm1hZT4nLCAnLW9tYWUnLCAnPG91dGZpbGUubWFlPic=

>  <r_lp_tautomer_probability>  (72) 
1

>  <r_epik_Ionization_Penalty>  (72) 
3.17007e-09

>  <r_epik_Ionization_Penalty_Charging>  (72) 
0

>  <r_epik_Ionization_Penalty_Neutral>  (72) 
3.17007e-09

>  <r_epik_State_Penalty>  (72) 
-0

>  <r_epik_Charging_Adjusted_Penalty>  (72) 
0

>  <i_epik_Tot_Q>  (72) 
0

>  <i_epik_Tot_abs_Q>  (72) 
0

>  <s_lp_Force_Field>  (72) 
OPLS3e

>  <r_lp_Energy>  (72) 
4.44383

>  <b_lp_Chiralities_Consistent>  (72) 
1

>  <s_lp_Variant>  (72) 
13:0-1

>  <s_i_glide_gridfile>  (72) 
pfpi4k_grid

>  <i_i_glide_lignum>  (72) 
30

>  <i_i_glide_rotatable_bonds>  (72) 
3

>  <r_i_docking_score>  (72) 
-3.37445

>  <r_i_glide_ligand_efficiency>  (72) 
-0.337445

>  <r_i_glide_ligand_efficiency_sa>  (72) 
-0.727004

>  <r_i_glide_ligand_efficiency_ln>  (72) 
-1.02176

>  <r_i_glide_gscore>  (72) 
-3.37445

>  <r_i_glide_lipo>  (72) 
-0.631759

>  <r_i_glide_hbond>  (72) 
0

>  <r_i_glide_metal>  (72) 
-0

>  <r_i_glide_rewards>  (72) 
-2.25

>  <r_i_glide_evdw>  (72) 
-18.0272

>  <r_i_glide_ecoul>  (72) 
-1.05057

>  <r_i_glide_erotb>  (72) 
0.727633

>  <r_i_glide_esite>  (72) 
-0.161381

>  <r_i_glide_emodel>  (72) 
-21.1882

>  <r_i_glide_energy>  (72) 
-19.0778

>  <r_i_glide_einternal>  (72) 
3.23384

>  <r_i_glide_intrahb_reward>  (72) 
-0

>  <i_i_glide_confnum>  (72) 
1

>  <i_i_glide_posenum>  (72) 
25

>  <r_i_glide_eff_state_penalty>  (72) 
0

>  <ligand_id>  (72) 
13

>  <original_smiles>  (72) 
CCC(C)Cn1cnnn1

>  <smiles>  (72) 
[H]c1nnnn1C([H])([H])C([H])(C([H])([H])[H])C([H])([H])C([H])([H])[H]

$$$$
13:0:1
     RDKit          3D

 22 22  0  0  1  0  0  0  0  0999 V2000
    3.4430   -0.4601   -4.8202 C   0  0  0  0  0  0  0  0  0  0  0  0
    3.7401   -1.7439   -4.0254 C   0  0  0  0  0  0  0  0  0  0  0  0
    3.6690   -1.5889   -2.4912 C   0  0  2  0  0  0  0  0  0  0  0  0
    4.5206   -0.4076   -1.9822 C   0  0  0  0  0  0  0  0  0  0  0  0
    4.0124   -2.9231   -1.7656 C   0  0  0  0  0  0  0  0  0  0  0  0
    5.4010   -2.9914   -1.3240 N   0  0  0  0  0  0  0  0  0  0  0  0
    6.5376   -3.0727   -2.0149 C   0  0  0  0  0  0  0  0  0  0  0  0
    7.5979   -3.0077   -1.2222 N   0  0  0  0  0  0  0  0  0  0  0  0
    7.0443   -2.9070    0.0420 N   0  0  0  0  0  0  0  0  0  0  0  0
    5.7437   -2.8995   -0.0123 N   0  0  0  0  0  0  0  0  0  0  0  0
    3.4136   -0.6542   -5.8909 H   0  0  0  0  0  0  0  0  0  0  0  0
    4.2101    0.2990   -4.6621 H   0  0  0  0  0  0  0  0  0  0  0  0
    2.4810   -0.0312   -4.5373 H   0  0  0  0  0  0  0  0  0  0  0  0
    3.0201   -2.5099   -4.3200 H   0  0  0  0  0  0  0  0  0  0  0  0
    4.7183   -2.1181   -4.3125 H   0  0  0  0  0  0  0  0  0  0  0  0
    2.6256   -1.3645   -2.2585 H   0  0  0  0  0  0  0  0  0  0  0  0
    5.5664   -0.5075   -2.2462 H   0  0  0  0  0  0  0  0  0  0  0  0
    4.4487   -0.3155   -0.8990 H   0  0  0  0  0  0  0  0  0  0  0  0
    4.2098    0.5403   -2.4074 H   0  0  0  0  0  0  0  0  0  0  0  0
    3.3720   -3.0320   -0.8867 H   0  0  0  0  0  0  0  0  0  0  0  0
    3.7945   -3.7886   -2.3978 H   0  0  0  0  0  0  0  0  0  0  0  0
    6.5877   -3.1426   -3.0934 H   0  0  0  0  0  0  0  0  0  0  0  0
  1  2  1  0
  1 11  1  0
  1 12  1  0
  1 13  1  0
  2  3  1  0
  2 14  1  0
  2 15  1  0
  3  4  1  0
  3  5  1  0
  3 16  1  6
  4 17  1  0
  4 18  1  0
  4 19  1  0
  5  6  1  0
  5 20  1  0
  5 21  1  0
  6 10  1  0
  6  7  1  0
  7  8  2  0
  7 22  1  0
  8  9  1  0
  9 10  2  0
M  END
>  <i_m_ct_stereo_status>  (73) 
1

>  <s_m_source_file>  (73) 
/var/tmp/pbs.5076255.sched01/tmp9d3cgwpa/0mc_8ktg4.sdf

>  <i_m_source_file_index>  (73) 
30

>  <i_lp_mmshare_version>  (73) 
48012

>  <i_f3d_flags>  (73) 
0

>  <s_epik_input>  (73) 
W0NIM11bQ0gyXVtDQEhdKFtDSDNdKVtDSDJdbjFbY0hdbm5uMQ==

>  <s_epik_cmdline>  (73) 
J2VwaWtfcHl0aG9uJywgJy1waHQnLCAnMi4wJywgJy1waCcsICc3LjAnLCAnLXRuJywgJzgnLCAnLW1hJywgJzIwMCcsICctaW1hZScsICc8aW5maWxlLm1hZT4nLCAnLW9tYWUnLCAnPG91dGZpbGUubWFlPic=

>  <r_lp_tautomer_probability>  (73) 
1

>  <r_epik_Ionization_Penalty>  (73) 
3.17007e-09

>  <r_epik_Ionization_Penalty_Charging>  (73) 
0

>  <r_epik_Ionization_Penalty_Neutral>  (73) 
3.17007e-09

>  <r_epik_State_Penalty>  (73) 
-0

>  <r_epik_Charging_Adjusted_Penalty>  (73) 
0

>  <i_epik_Tot_Q>  (73) 
0

>  <i_epik_Tot_abs_Q>  (73) 
0

>  <s_lp_Force_Field>  (73) 
OPLS3e

>  <r_lp_Energy>  (73) 
4.44383

>  <b_lp_Chiralities_Consistent>  (73) 
1

>  <s_lp_Variant>  (73) 
13:0-1

>  <s_i_glide_gridfile>  (73) 
pfpi4k_grid

>  <i_i_glide_lignum>  (73) 
30

>  <i_i_glide_rotatable_bonds>  (73) 
3

>  <r_i_docking_score>  (73) 
-3.02314

>  <r_i_glide_ligand_efficiency>  (73) 
-0.302314

>  <r_i_glide_ligand_efficiency_sa>  (73) 
-0.651315

>  <r_i_glide_ligand_efficiency_ln>  (73) 
-0.915385

>  <r_i_glide_gscore>  (73) 
-3.02314

>  <r_i_glide_lipo>  (73) 
-0.248845

>  <r_i_glide_hbond>  (73) 
0

>  <r_i_glide_metal>  (73) 
-0

>  <r_i_glide_rewards>  (73) 
-2.35829

>  <r_i_glide_evdw>  (73) 
-17.8093

>  <r_i_glide_ecoul>  (73) 
-1.5416

>  <r_i_glide_erotb>  (73) 
0.727633

>  <r_i_glide_esite>  (73) 
-0.021928

>  <r_i_glide_emodel>  (73) 
-21.1663

>  <r_i_glide_energy>  (73) 
-19.3509

>  <r_i_glide_einternal>  (73) 
3.23525

>  <r_i_glide_intrahb_reward>  (73) 
-0

>  <i_i_glide_confnum>  (73) 
6

>  <i_i_glide_posenum>  (73) 
13

>  <r_i_glide_eff_state_penalty>  (73) 
0

>  <ligand_id>  (73) 
13

>  <original_smiles>  (73) 
CCC(C)Cn1cnnn1

>  <smiles>  (73) 
[H]c1nnnn1C([H])([H])C([H])(C([H])([H])[H])C([H])([H])C([H])([H])[H]

$$$$
13:0:2
     RDKit          3D

 22 22  0  0  1  0  0  0  0  0999 V2000
    3.2452   -0.2066   -4.6965 C   0  0  0  0  0  0  0  0  0  0  0  0
    3.1865   -1.6000   -4.0350 C   0  0  0  0  0  0  0  0  0  0  0  0
    3.3995   -1.5684   -2.4918 C   0  0  2  0  0  0  0  0  0  0  0  0
    4.8473   -1.1086   -2.1387 C   0  0  0  0  0  0  0  0  0  0  0  0
    3.0213   -2.9190   -1.8326 C   0  0  0  0  0  0  0  0  0  0  0  0
    3.0260   -2.8983   -0.3650 N   0  0  0  0  0  0  0  0  0  0  0  0
    3.3291   -1.9403    0.5363 C   0  0  0  0  0  0  0  0  0  0  0  0
    3.2692   -2.4143    1.7815 N   0  0  0  0  0  0  0  0  0  0  0  0
    2.8384   -3.7499    1.5889 N   0  0  0  0  0  0  0  0  0  0  0  0
    2.6949   -4.0286    0.3335 N   0  0  0  0  0  0  0  0  0  0  0  0
    3.0393   -0.2561   -5.7656 H   0  0  0  0  0  0  0  0  0  0  0  0
    4.2230    0.2564   -4.5841 H   0  0  0  0  0  0  0  0  0  0  0  0
    2.5117    0.4703   -4.2584 H   0  0  0  0  0  0  0  0  0  0  0  0
    2.2200   -2.0573   -4.2944 H   0  0  0  0  0  0  0  0  0  0  0  0
    3.9477   -2.2424   -4.4799 H   0  0  0  0  0  0  0  0  0  0  0  0
    2.6533   -0.8638   -2.1203 H   0  0  0  0  0  0  0  0  0  0  0  0
    5.5497   -1.7662   -2.6702 H   0  0  0  0  0  0  0  0  0  0  0  0
    5.0738   -1.1118   -1.0880 H   0  0  0  0  0  0  0  0  0  0  0  0
    4.9843   -0.0900   -2.5084 H   0  0  0  0  0  0  0  0  0  0  0  0
    2.0292   -3.2673   -2.1579 H   0  0  0  0  0  0  0  0  0  0  0  0
    3.7020   -3.7008   -2.1925 H   0  0  0  0  0  0  0  0  0  0  0  0
    3.6098   -0.9209    0.2764 H   0  0  0  0  0  0  0  0  0  0  0  0
  1  2  1  0
  1 11  1  0
  1 12  1  0
  1 13  1  0
  2  3  1  0
  2 14  1  0
  2 15  1  0
  3  4  1  0
  3  5  1  0
  3 16  1  1
  4 17  1  0
  4 18  1  0
  4 19  1  0
  5  6  1  0
  5 20  1  0
  5 21  1  0
  6 10  1  0
  6  7  1  0
  7  8  2  0
  7 22  1  0
  8  9  1  0
  9 10  2  0
M  END
>  <i_m_ct_stereo_status>  (74) 
1

>  <s_m_source_file>  (74) 
/var/tmp/pbs.5076255.sched01/tmp9d3cgwpa/0mc_8ktg4.sdf

>  <i_m_source_file_index>  (74) 
30

>  <i_lp_mmshare_version>  (74) 
48012

>  <i_f3d_flags>  (74) 
0

>  <s_epik_input>  (74) 
W0NIM11bQ0gyXVtDQEhdKFtDSDNdKVtDSDJdbjFbY0hdbm5uMQ==

>  <s_epik_cmdline>  (74) 
J2VwaWtfcHl0aG9uJywgJy1waHQnLCAnMi4wJywgJy1waCcsICc3LjAnLCAnLXRuJywgJzgnLCAnLW1hJywgJzIwMCcsICctaW1hZScsICc8aW5maWxlLm1hZT4nLCAnLW9tYWUnLCAnPG91dGZpbGUubWFlPic=

>  <r_lp_tautomer_probability>  (74) 
1

>  <r_epik_Ionization_Penalty>  (74) 
3.17007e-09

>  <r_epik_Ionization_Penalty_Charging>  (74) 
0

>  <r_epik_Ionization_Penalty_Neutral>  (74) 
3.17007e-09

>  <r_epik_State_Penalty>  (74) 
-0

>  <r_epik_Charging_Adjusted_Penalty>  (74) 
0

>  <i_epik_Tot_Q>  (74) 
0

>  <i_epik_Tot_abs_Q>  (74) 
0

>  <s_lp_Force_Field>  (74) 
OPLS3e

>  <r_lp_Energy>  (74) 
4.44383

>  <b_lp_Chiralities_Consistent>  (74) 
1

>  <s_lp_Variant>  (74) 
13:0-1

>  <s_i_glide_gridfile>  (74) 
pfpi4k_grid

>  <i_i_glide_lignum>  (74) 
30

>  <i_i_glide_rotatable_bonds>  (74) 
3

>  <r_i_docking_score>  (74) 
-2.94356

>  <r_i_glide_ligand_efficiency>  (74) 
-0.294356

>  <r_i_glide_ligand_efficiency_sa>  (74) 
-0.63417

>  <r_i_glide_ligand_efficiency_ln>  (74) 
-0.891289

>  <r_i_glide_gscore>  (74) 
-2.94356

>  <r_i_glide_lipo>  (74) 
-0.326382

>  <r_i_glide_hbond>  (74) 
0

>  <r_i_glide_metal>  (74) 
-0

>  <r_i_glide_rewards>  (74) 
-2.25

>  <r_i_glide_evdw>  (74) 
-15.461

>  <r_i_glide_ecoul>  (74) 
-1.30269

>  <r_i_glide_erotb>  (74) 
0.727633

>  <r_i_glide_esite>  (74) 
-0.126354

>  <r_i_glide_emodel>  (74) 
-19.0502

>  <r_i_glide_energy>  (74) 
-16.7637

>  <r_i_glide_einternal>  (74) 
1.8525

>  <r_i_glide_intrahb_reward>  (74) 
-0

>  <i_i_glide_confnum>  (74) 
3

>  <i_i_glide_posenum>  (74) 
11

>  <r_i_glide_eff_state_penalty>  (74) 
0

>  <ligand_id>  (74) 
13

>  <original_smiles>  (74) 
CCC(C)Cn1cnnn1

>  <smiles>  (74) 
[H]c1nnnn1C([H])([H])C([H])(C([H])([H])[H])C([H])([H])C([H])([H])[H]

$$$$
16:0:0
     RDKit          3D

 39 43  0  0  1  0  0  0  0  0999 V2000
    7.3914   -8.2344    1.8067 C   0  0  0  0  0  0  0  0  0  0  0  0
    6.7275   -6.9506    2.3468 C   0  0  0  0  0  0  0  0  0  0  0  0
    7.4460   -6.4231    3.5941 C   0  0  0  0  0  0  0  0  0  0  0  0
    7.0351   -5.9557    1.3519 O   0  0  0  0  0  0  0  0  0  0  0  0
    6.0230   -5.1573    0.8924 C   0  0  0  0  0  0  0  0  0  0  0  0
    4.7250   -5.3266    1.1740 C   0  0  0  0  0  0  0  0  0  0  0  0
    4.1020   -4.0169    0.8642 C   0  0  0  0  0  0  0  0  0  0  0  0
    3.0028   -3.5800    1.2035 O   0  0  0  0  0  0  0  0  0  0  0  0
    5.0788   -3.0902    0.1523 C   0  0  0  0  0  0  0  0  0  0  0  0
    6.4053   -3.8589    0.2292 C   0  0  0  0  0  0  0  0  0  0  0  0
    4.2814   -6.4106    2.0348 C   0  0  0  0  0  0  0  0  0  0  0  0
    5.2275   -7.1659    2.6458 C   0  0  0  0  0  0  0  0  0  0  0  0
    4.8757   -8.4007    3.4782 C   0  0  0  0  0  0  0  0  0  0  0  0
    3.5518   -8.2068    4.2121 C   0  0  0  0  0  0  0  0  0  0  0  0
    2.5699   -7.6192    3.2150 C   0  0  0  0  0  0  0  0  0  0  0  0
    2.9329   -6.7517    2.1903 C   0  0  0  0  0  0  0  0  0  0  0  0
    1.9884   -6.2482    1.3351 N   0  0  0  0  0  0  0  0  0  0  0  0
    0.6962   -6.6539    1.3200 C   0  0  0  0  0  0  0  0  0  0  0  0
   -0.1606   -6.2952    0.5053 O   0  0  0  0  0  0  0  0  0  0  0  0
    0.2461   -7.4979    2.4718 C   0  0  0  0  0  0  0  0  0  0  0  0
   -0.9832   -7.8660    2.8272 N   0  0  0  0  0  0  0  0  0  0  0  0
   -0.6888   -8.5727    3.9643 C   0  0  0  0  0  0  0  0  0  0  0  0
    0.5998   -8.5917    4.3281 N   0  0  0  0  0  0  0  0  0  0  0  0
    1.1958   -7.9114    3.3189 N   0  0  0  0  0  0  0  0  0  0  0  0
    7.3867   -9.0509    2.5305 H   0  0  0  0  0  0  0  0  0  0  0  0
    8.4360   -8.0515    1.5412 H   0  0  0  0  0  0  0  0  0  0  0  0
    6.9008   -8.5946    0.9015 H   0  0  0  0  0  0  0  0  0  0  0  0
    7.3813   -7.1204    4.4293 H   0  0  0  0  0  0  0  0  0  0  0  0
    6.9818   -5.4867    3.9026 H   0  0  0  0  0  0  0  0  0  0  0  0
    8.5017   -6.2127    3.3950 H   0  0  0  0  0  0  0  0  0  0  0  0
    4.7369   -2.9571   -0.8753 H   0  0  0  0  0  0  0  0  0  0  0  0
    5.1188   -2.1181    0.6532 H   0  0  0  0  0  0  0  0  0  0  0  0
    7.1635   -3.3027    0.7900 H   0  0  0  0  0  0  0  0  0  0  0  0
    6.7920   -4.0768   -0.7622 H   0  0  0  0  0  0  0  0  0  0  0  0
    4.7771   -9.2459    2.7912 H   0  0  0  0  0  0  0  0  0  0  0  0
    5.6747   -8.6611    4.1764 H   0  0  0  0  0  0  0  0  0  0  0  0
    3.1935   -9.1318    4.6647 H   0  0  0  0  0  0  0  0  0  0  0  0
    3.7093   -7.4880    5.0164 H   0  0  0  0  0  0  0  0  0  0  0  0
   -1.4549   -9.0344    4.5670 H   0  0  0  0  0  0  0  0  0  0  0  0
  1  2  1  0
  1 25  1  0
  1 26  1  0
  1 27  1  0
  2 12  1  0
  2  3  1  0
  2  4  1  0
  3 28  1  0
  3 29  1  0
  3 30  1  0
  4  5  1  0
  5 10  1  0
  5  6  2  0
  6  7  1  0
  6 11  1  0
  7  8  2  0
  7  9  1  0
  9 10  1  0
  9 31  1  0
  9 32  1  0
 10 33  1  0
 10 34  1  0
 11 16  1  0
 11 12  2  0
 12 13  1  0
 13 14  1  0
 13 35  1  0
 13 36  1  0
 14 15  1  0
 14 37  1  0
 14 38  1  0
 15 24  1  0
 15 16  2  0
 16 17  1  0
 17 18  1  0
 18 19  2  0
 18 20  1  0
 20 24  1  0
 20 21  2  0
 21 22  1  0
 22 23  2  0
 22 39  1  0
 23 24  1  0
M  CHG  1  17  -1
M  END
>  <i_m_ct_stereo_status>  (75) 
1

>  <s_m_source_file>  (75) 
/var/tmp/pbs.5076255.sched01/tmp9d3cgwpa/0mc_8ktg4.sdf

>  <i_m_source_file_index>  (75) 
33

>  <i_lp_mmshare_version>  (75) 
48012

>  <i_f3d_flags>  (75) 
0

>  <s_epik_input>  (75) 
W0NIMl0xW0NIMl1DKD1PKUMoPUMxMilDMz1DKEMoTzIpKFtDSDNdKVtDSDNdKVtDSDJdW0NIMl1jNGMzW25IXWMoPU8pYzVuNG5bY0hdbjU=

>  <s_epik_cmdline>  (75) 
J2VwaWtfcHl0aG9uJywgJy1waHQnLCAnMi4wJywgJy1waCcsICc3LjAnLCAnLXRuJywgJzgnLCAnLW1hJywgJzIwMCcsICctaW1hZScsICc8aW5maWxlLm1hZT4nLCAnLW9tYWUnLCAnPG91dGZpbGUubWFlPic=

>  <r_epik_Ionization_Penalty>  (75) 
0.0610228

>  <r_epik_Ionization_Penalty_Charging>  (75) 
0.000913279

>  <r_epik_Ionization_Penalty_Neutral>  (75) 
0.0601096

>  <r_epik_State_Penalty>  (75) 
0.0525675

>  <r_epik_Charging_Adjusted_Penalty>  (75) 
0.0534808

>  <i_epik_Tot_Q>  (75) 
-1

>  <i_epik_Tot_abs_Q>  (75) 
1

>  <s_lp_Force_Field>  (75) 
OPLS3e

>  <r_lp_Energy>  (75) 
48.2315

>  <b_lp_Chiralities_Consistent>  (75) 
1

>  <s_lp_Variant>  (75) 
16:0-1

>  <s_i_glide_gridfile>  (75) 
pfpi4k_grid

>  <i_i_glide_lignum>  (75) 
33

>  <i_i_glide_rotatable_bonds>  (75) 
0

>  <r_i_docking_score>  (75) 
-3.54557

>  <r_i_glide_ligand_efficiency>  (75) 
-0.147732

>  <r_i_glide_ligand_efficiency_sa>  (75) 
-0.426133

>  <r_i_glide_ligand_efficiency_ln>  (75) 
-0.848618

>  <r_i_glide_gscore>  (75) 
-3.54557

>  <r_i_glide_lipo>  (75) 
-0.380289

>  <r_i_glide_hbond>  (75) 
-0.193511

>  <r_i_glide_metal>  (75) 
-0

>  <r_i_glide_rewards>  (75) 
-1.23161

>  <r_i_glide_evdw>  (75) 
-22.5948

>  <r_i_glide_ecoul>  (75) 
-3.12798

>  <r_i_glide_erotb>  (75) 
0

>  <r_i_glide_esite>  (75) 
-0.141225

>  <r_i_glide_emodel>  (75) 
-34.2219

>  <r_i_glide_energy>  (75) 
-25.7227

>  <r_i_glide_einternal>  (75) 
0

>  <r_i_glide_intrahb_reward>  (75) 
-0

>  <i_i_glide_confnum>  (75) 
2

>  <i_i_glide_posenum>  (75) 
34

>  <r_i_glide_eff_state_penalty>  (75) 
0

>  <ligand_id>  (75) 
16

>  <original_smiles>  (75) 
CC1(C)OC2=C(C(=O)CC2)C2=C1CCc1c2[nH]c(=O)c2ncnn12

>  <smiles>  (75) 
[H]c1nc2c(=O)[n-]c3c(n2n1)C([H])([H])C([H])([H])C1=C3C2=C(OC1(C([H])([H])[H])C([H])([H])[H])C([H])([H])C([H])([H])C2=O

$$$$
16:0:1
     RDKit          3D

 39 43  0  0  1  0  0  0  0  0999 V2000
    7.2967   -2.8707    0.2563 C   0  0  0  0  0  0  0  0  0  0  0  0
    5.8852   -2.2868    0.0404 C   0  0  0  0  0  0  0  0  0  0  0  0
    5.8176   -0.7872    0.3173 C   0  0  0  0  0  0  0  0  0  0  0  0
    5.6989   -2.3764   -1.3878 O   0  0  0  0  0  0  0  0  0  0  0  0
    4.5225   -2.8904   -1.8576 C   0  0  0  0  0  0  0  0  0  0  0  0
    3.5939   -3.4738   -1.1060 C   0  0  0  0  0  0  0  0  0  0  0  0
    2.3625   -3.4508   -1.9249 C   0  0  0  0  0  0  0  0  0  0  0  0
    1.2187   -3.7138   -1.5552 O   0  0  0  0  0  0  0  0  0  0  0  0
    2.6691   -3.0318   -3.3535 C   0  0  0  0  0  0  0  0  0  0  0  0
    4.1380   -2.5886   -3.2851 C   0  0  0  0  0  0  0  0  0  0  0  0
    3.7645   -3.6301    0.3374 C   0  0  0  0  0  0  0  0  0  0  0  0
    4.8261   -3.0117    0.9036 C   0  0  0  0  0  0  0  0  0  0  0  0
    5.1506   -3.1691    2.3919 C   0  0  0  0  0  0  0  0  0  0  0  0
    3.8717   -3.2974    3.2197 C   0  0  0  0  0  0  0  0  0  0  0  0
    2.9696   -4.2884    2.5173 C   0  0  0  0  0  0  0  0  0  0  0  0
    2.9154   -4.4405    1.1251 C   0  0  0  0  0  0  0  0  0  0  0  0
    2.0855   -5.3682    0.5641 N   0  0  0  0  0  0  0  0  0  0  0  0
    1.3263   -6.2572    1.2689 C   0  0  0  0  0  0  0  0  0  0  0  0
    0.5884   -7.1036    0.7964 O   0  0  0  0  0  0  0  0  0  0  0  0
    1.3009   -6.0453    2.7437 C   0  0  0  0  0  0  0  0  0  0  0  0
    0.5244   -6.6297    3.6517 N   0  0  0  0  0  0  0  0  0  0  0  0
    0.9540   -5.9859    4.7770 C   0  0  0  0  0  0  0  0  0  0  0  0
    1.8646   -5.0267    4.5886 N   0  0  0  0  0  0  0  0  0  0  0  0
    2.0912   -5.1085    3.2542 N   0  0  0  0  0  0  0  0  0  0  0  0
    7.6424   -2.7401    1.2787 H   0  0  0  0  0  0  0  0  0  0  0  0
    8.0378   -2.4024   -0.3924 H   0  0  0  0  0  0  0  0  0  0  0  0
    7.3260   -3.9385    0.0444 H   0  0  0  0  0  0  0  0  0  0  0  0
    6.0329   -0.5490    1.3559 H   0  0  0  0  0  0  0  0  0  0  0  0
    4.8266   -0.4090    0.0699 H   0  0  0  0  0  0  0  0  0  0  0  0
    6.5284   -0.2478   -0.3046 H   0  0  0  0  0  0  0  0  0  0  0  0
    2.5314   -3.8866   -4.0084 H   0  0  0  0  0  0  0  0  0  0  0  0
    1.9899   -2.2299   -3.6759 H   0  0  0  0  0  0  0  0  0  0  0  0
    4.2493   -1.5309   -3.5320 H   0  0  0  0  0  0  0  0  0  0  0  0
    4.7682   -3.1792   -3.9437 H   0  0  0  0  0  0  0  0  0  0  0  0
    5.7355   -4.0842    2.5052 H   0  0  0  0  0  0  0  0  0  0  0  0
    5.7718   -2.3504    2.7539 H   0  0  0  0  0  0  0  0  0  0  0  0
    4.0859   -3.5852    4.2503 H   0  0  0  0  0  0  0  0  0  0  0  0
    3.3803   -2.3232    3.2495 H   0  0  0  0  0  0  0  0  0  0  0  0
    0.5748   -6.2255    5.7621 H   0  0  0  0  0  0  0  0  0  0  0  0
  1  2  1  0
  1 25  1  0
  1 26  1  0
  1 27  1  0
  2 12  1  0
  2  3  1  0
  2  4  1  0
  3 28  1  0
  3 29  1  0
  3 30  1  0
  4  5  1  0
  5 10  1  0
  5  6  2  0
  6  7  1  0
  6 11  1  0
  7  8  2  0
  7  9  1  0
  9 10  1  0
  9 31  1  0
  9 32  1  0
 10 33  1  0
 10 34  1  0
 11 16  1  0
 11 12  2  0
 12 13  1  0
 13 14  1  0
 13 35  1  0
 13 36  1  0
 14 15  1  0
 14 37  1  0
 14 38  1  0
 15 24  1  0
 15 16  2  0
 16 17  1  0
 17 18  1  0
 18 19  2  0
 18 20  1  0
 20 24  1  0
 20 21  2  0
 21 22  1  0
 22 23  2  0
 22 39  1  0
 23 24  1  0
M  CHG  1  17  -1
M  END
>  <i_m_ct_stereo_status>  (76) 
1

>  <s_m_source_file>  (76) 
/var/tmp/pbs.5076255.sched01/tmp9d3cgwpa/0mc_8ktg4.sdf

>  <i_m_source_file_index>  (76) 
33

>  <i_lp_mmshare_version>  (76) 
48012

>  <i_f3d_flags>  (76) 
0

>  <s_epik_input>  (76) 
W0NIMl0xW0NIMl1DKD1PKUMoPUMxMilDMz1DKEMoTzIpKFtDSDNdKVtDSDNdKVtDSDJdW0NIMl1jNGMzW25IXWMoPU8pYzVuNG5bY0hdbjU=

>  <s_epik_cmdline>  (76) 
J2VwaWtfcHl0aG9uJywgJy1waHQnLCAnMi4wJywgJy1waCcsICc3LjAnLCAnLXRuJywgJzgnLCAnLW1hJywgJzIwMCcsICctaW1hZScsICc8aW5maWxlLm1hZT4nLCAnLW9tYWUnLCAnPG91dGZpbGUubWFlPic=

>  <r_epik_Ionization_Penalty>  (76) 
0.0610228

>  <r_epik_Ionization_Penalty_Charging>  (76) 
0.000913279

>  <r_epik_Ionization_Penalty_Neutral>  (76) 
0.0601096

>  <r_epik_State_Penalty>  (76) 
0.0525675

>  <r_epik_Charging_Adjusted_Penalty>  (76) 
0.0534808

>  <i_epik_Tot_Q>  (76) 
-1

>  <i_epik_Tot_abs_Q>  (76) 
1

>  <s_lp_Force_Field>  (76) 
OPLS3e

>  <r_lp_Energy>  (76) 
48.2315

>  <b_lp_Chiralities_Consistent>  (76) 
1

>  <s_lp_Variant>  (76) 
16:0-1

>  <s_i_glide_gridfile>  (76) 
pfpi4k_grid

>  <i_i_glide_lignum>  (76) 
33

>  <i_i_glide_rotatable_bonds>  (76) 
0

>  <r_i_docking_score>  (76) 
-3.39597

>  <r_i_glide_ligand_efficiency>  (76) 
-0.141499

>  <r_i_glide_ligand_efficiency_sa>  (76) 
-0.408153

>  <r_i_glide_ligand_efficiency_ln>  (76) 
-0.812812

>  <r_i_glide_gscore>  (76) 
-3.39597

>  <r_i_glide_lipo>  (76) 
-0.692767

>  <r_i_glide_hbond>  (76) 
-0.0844068

>  <r_i_glide_metal>  (76) 
-0

>  <r_i_glide_rewards>  (76) 
-1.40748

>  <r_i_glide_evdw>  (76) 
-25.6942

>  <r_i_glide_ecoul>  (76) 
0.790009

>  <r_i_glide_erotb>  (76) 
0

>  <r_i_glide_esite>  (76) 
-0.0451112

>  <r_i_glide_emodel>  (76) 
-33.0031

>  <r_i_glide_energy>  (76) 
-24.9042

>  <r_i_glide_einternal>  (76) 
0

>  <r_i_glide_intrahb_reward>  (76) 
-0

>  <i_i_glide_confnum>  (76) 
1

>  <i_i_glide_posenum>  (76) 
12

>  <r_i_glide_eff_state_penalty>  (76) 
0

>  <ligand_id>  (76) 
16

>  <original_smiles>  (76) 
CC1(C)OC2=C(C(=O)CC2)C2=C1CCc1c2[nH]c(=O)c2ncnn12

>  <smiles>  (76) 
[H]c1nc2c(=O)[n-]c3c(n2n1)C([H])([H])C([H])([H])C1=C3C2=C(OC1(C([H])([H])[H])C([H])([H])[H])C([H])([H])C([H])([H])C2=O

$$$$
16:0:2
     RDKit          3D

 39 43  0  0  1  0  0  0  0  0999 V2000
   -2.4964    3.5321    3.0863 C   0  0  0  0  0  0  0  0  0  0  0  0
   -1.4274    3.3511    4.1877 C   0  0  0  0  0  0  0  0  0  0  0  0
   -0.3006    4.3862    4.0699 C   0  0  0  0  0  0  0  0  0  0  0  0
   -2.1194    3.7471    5.3889 O   0  0  0  0  0  0  0  0  0  0  0  0
   -2.0038    2.9474    6.4938 C   0  0  0  0  0  0  0  0  0  0  0  0
   -1.4573    1.7330    6.5049 C   0  0  0  0  0  0  0  0  0  0  0  0
   -1.1551    1.4616    7.9283 C   0  0  0  0  0  0  0  0  0  0  0  0
   -0.4648    0.5741    8.4213 O   0  0  0  0  0  0  0  0  0  0  0  0
   -1.7840    2.5163    8.8348 C   0  0  0  0  0  0  0  0  0  0  0  0
   -2.3135    3.5593    7.8388 C   0  0  0  0  0  0  0  0  0  0  0  0
   -0.9093    1.1351    5.2876 C   0  0  0  0  0  0  0  0  0  0  0  0
   -0.8362    1.9243    4.1911 C   0  0  0  0  0  0  0  0  0  0  0  0
   -0.3686    1.3832    2.8330 C   0  0  0  0  0  0  0  0  0  0  0  0
    0.7067    0.3121    3.0125 C   0  0  0  0  0  0  0  0  0  0  0  0
    0.2414   -0.6210    4.1074 C   0  0  0  0  0  0  0  0  0  0  0  0
   -0.5358   -0.2073    5.2003 C   0  0  0  0  0  0  0  0  0  0  0  0
   -0.9578   -1.1012    6.1362 N   0  0  0  0  0  0  0  0  0  0  0  0
   -0.6884   -2.4486    6.0949 C   0  0  0  0  0  0  0  0  0  0  0  0
   -1.1296   -3.2964    6.8631 O   0  0  0  0  0  0  0  0  0  0  0  0
    0.2180   -2.8965    4.9841 C   0  0  0  0  0  0  0  0  0  0  0  0
    0.6989   -4.1163    4.7347 N   0  0  0  0  0  0  0  0  0  0  0  0
    1.4669   -3.8321    3.6348 C   0  0  0  0  0  0  0  0  0  0  0  0
    1.4550   -2.5626    3.2140 N   0  0  0  0  0  0  0  0  0  0  0  0
    0.6062   -1.9796    4.1034 N   0  0  0  0  0  0  0  0  0  0  0  0
   -2.0832    3.4133    2.0834 H   0  0  0  0  0  0  0  0  0  0  0  0
   -2.9516    4.5245    3.1222 H   0  0  0  0  0  0  0  0  0  0  0  0
   -3.3077    2.8104    3.1980 H   0  0  0  0  0  0  0  0  0  0  0  0
    0.2612    4.2695    3.1428 H   0  0  0  0  0  0  0  0  0  0  0  0
    0.3970    4.2613    4.8980 H   0  0  0  0  0  0  0  0  0  0  0  0
   -0.6771    5.4100    4.1102 H   0  0  0  0  0  0  0  0  0  0  0  0
   -2.5912    2.0562    9.4061 H   0  0  0  0  0  0  0  0  0  0  0  0
   -1.0398    2.9173    9.5293 H   0  0  0  0  0  0  0  0  0  0  0  0
   -1.8188    4.5235    7.9860 H   0  0  0  0  0  0  0  0  0  0  0  0
   -3.3910    3.6885    7.9354 H   0  0  0  0  0  0  0  0  0  0  0  0
   -1.2359    0.9387    2.3369 H   0  0  0  0  0  0  0  0  0  0  0  0
   -0.0170    2.1825    2.1749 H   0  0  0  0  0  0  0  0  0  0  0  0
    0.9218   -0.2058    2.0750 H   0  0  0  0  0  0  0  0  0  0  0  0
    1.6279    0.8021    3.3309 H   0  0  0  0  0  0  0  0  0  0  0  0
    2.0328   -4.5920    3.1144 H   0  0  0  0  0  0  0  0  0  0  0  0
  1  2  1  0
  1 25  1  0
  1 26  1  0
  1 27  1  0
  2 12  1  0
  2  3  1  0
  2  4  1  0
  3 28  1  0
  3 29  1  0
  3 30  1  0
  4  5  1  0
  5 10  1  0
  5  6  2  0
  6  7  1  0
  6 11  1  0
  7  8  2  0
  7  9  1  0
  9 10  1  0
  9 31  1  0
  9 32  1  0
 10 33  1  0
 10 34  1  0
 11 16  1  0
 11 12  2  0
 12 13  1  0
 13 14  1  0
 13 35  1  0
 13 36  1  0
 14 15  1  0
 14 37  1  0
 14 38  1  0
 15 24  1  0
 15 16  2  0
 16 17  1  0
 17 18  1  0
 18 19  2  0
 18 20  1  0
 20 24  1  0
 20 21  2  0
 21 22  1  0
 22 23  2  0
 22 39  1  0
 23 24  1  0
M  CHG  1  17  -1
M  END
>  <i_m_ct_stereo_status>  (77) 
1

>  <s_m_source_file>  (77) 
/var/tmp/pbs.5076255.sched01/tmp9d3cgwpa/0mc_8ktg4.sdf

>  <i_m_source_file_index>  (77) 
33

>  <i_lp_mmshare_version>  (77) 
48012

>  <i_f3d_flags>  (77) 
0

>  <s_epik_input>  (77) 
W0NIMl0xW0NIMl1DKD1PKUMoPUMxMilDMz1DKEMoTzIpKFtDSDNdKVtDSDNdKVtDSDJdW0NIMl1jNGMzW25IXWMoPU8pYzVuNG5bY0hdbjU=

>  <s_epik_cmdline>  (77) 
J2VwaWtfcHl0aG9uJywgJy1waHQnLCAnMi4wJywgJy1waCcsICc3LjAnLCAnLXRuJywgJzgnLCAnLW1hJywgJzIwMCcsICctaW1hZScsICc8aW5maWxlLm1hZT4nLCAnLW9tYWUnLCAnPG91dGZpbGUubWFlPic=

>  <r_epik_Ionization_Penalty>  (77) 
0.0610228

>  <r_epik_Ionization_Penalty_Charging>  (77) 
0.000913279

>  <r_epik_Ionization_Penalty_Neutral>  (77) 
0.0601096

>  <r_epik_State_Penalty>  (77) 
0.0525675

>  <r_epik_Charging_Adjusted_Penalty>  (77) 
0.0534808

>  <i_epik_Tot_Q>  (77) 
-1

>  <i_epik_Tot_abs_Q>  (77) 
1

>  <s_lp_Force_Field>  (77) 
OPLS3e

>  <r_lp_Energy>  (77) 
48.2315

>  <b_lp_Chiralities_Consistent>  (77) 
1

>  <s_lp_Variant>  (77) 
16:0-1

>  <s_i_glide_gridfile>  (77) 
pfpi4k_grid

>  <i_i_glide_lignum>  (77) 
33

>  <i_i_glide_rotatable_bonds>  (77) 
0

>  <r_i_docking_score>  (77) 
-2.83203

>  <r_i_glide_ligand_efficiency>  (77) 
-0.118001

>  <r_i_glide_ligand_efficiency_sa>  (77) 
-0.340375

>  <r_i_glide_ligand_efficiency_ln>  (77) 
-0.677835

>  <r_i_glide_gscore>  (77) 
-2.83203

>  <r_i_glide_lipo>  (77) 
-0.150625

>  <r_i_glide_hbond>  (77) 
-0.0115363

>  <r_i_glide_metal>  (77) 
-0

>  <r_i_glide_rewards>  (77) 
-1.24501

>  <r_i_glide_evdw>  (77) 
-25.5927

>  <r_i_glide_ecoul>  (77) 
-0.682414

>  <r_i_glide_erotb>  (77) 
0

>  <r_i_glide_esite>  (77) 
-0.0428579

>  <r_i_glide_emodel>  (77) 
-33.0113

>  <r_i_glide_energy>  (77) 
-26.2751

>  <r_i_glide_einternal>  (77) 
0

>  <r_i_glide_intrahb_reward>  (77) 
-0

>  <i_i_glide_confnum>  (77) 
2

>  <i_i_glide_posenum>  (77) 
24

>  <r_i_glide_eff_state_penalty>  (77) 
0

>  <ligand_id>  (77) 
16

>  <original_smiles>  (77) 
CC1(C)OC2=C(C(=O)CC2)C2=C1CCc1c2[nH]c(=O)c2ncnn12

>  <smiles>  (77) 
[H]c1nc2c(=O)[n-]c3c(n2n1)C([H])([H])C([H])([H])C1=C3C2=C(OC1(C([H])([H])[H])C([H])([H])[H])C([H])([H])C([H])([H])C2=O

$$$$
16:1:0
     RDKit          3D

 40 44  0  0  1  0  0  0  0  0999 V2000
    6.6975  -10.1983    4.5354 C   0  0  0  0  0  0  0  0  0  0  0  0
    5.8115  -10.4687    3.3130 C   0  0  0  0  0  0  0  0  0  0  0  0
    6.5161  -11.3460    2.2630 C   0  0  0  0  0  0  0  0  0  0  0  0
    4.7689  -11.3121    3.8340 O   0  0  0  0  0  0  0  0  0  0  0  0
    3.5217  -10.7650    3.9815 C   0  0  0  0  0  0  0  0  0  0  0  0
    3.1507   -9.5787    3.5208 C   0  0  0  0  0  0  0  0  0  0  0  0
    1.8240   -9.3030    4.1003 C   0  0  0  0  0  0  0  0  0  0  0  0
    1.1726   -8.2620    4.0353 O   0  0  0  0  0  0  0  0  0  0  0  0
    1.3275  -10.5114    4.8877 C   0  0  0  0  0  0  0  0  0  0  0  0
    2.5120  -11.4932    4.8231 C   0  0  0  0  0  0  0  0  0  0  0  0
    4.0605   -8.7184    2.7793 C   0  0  0  0  0  0  0  0  0  0  0  0
    5.3481   -9.1298    2.6959 C   0  0  0  0  0  0  0  0  0  0  0  0
    6.3889   -8.3133    1.9164 C   0  0  0  0  0  0  0  0  0  0  0  0
    6.0660   -6.8002    1.9304 C   0  0  0  0  0  0  0  0  0  0  0  0
    4.5779   -6.5970    1.6859 C   0  0  0  0  0  0  0  0  0  0  0  0
    3.6481   -7.5010    2.0785 C   0  0  0  0  0  0  0  0  0  0  0  0
    2.3053   -7.3622    1.6791 N   0  0  0  0  0  0  0  0  0  0  0  0
    1.8110   -6.3283    0.9748 C   0  0  0  0  0  0  0  0  0  0  0  0
    0.6245   -6.2550    0.6399 O   0  0  0  0  0  0  0  0  0  0  0  0
    2.8135   -5.2747    0.6169 C   0  0  0  0  0  0  0  0  0  0  0  0
    2.6331   -4.1177   -0.0139 N   0  0  0  0  0  0  0  0  0  0  0  0
    3.9220   -3.6520   -0.0296 C   0  0  0  0  0  0  0  0  0  0  0  0
    4.8356   -4.4301    0.5558 N   0  0  0  0  0  0  0  0  0  0  0  0
    4.0848   -5.4828    0.9666 N   0  0  0  0  0  0  0  0  0  0  0  0
    1.6742   -8.1051    1.9499 H   0  0  0  0  0  0  0  0  0  0  0  0
    7.6001   -9.6440    4.2815 H   0  0  0  0  0  0  0  0  0  0  0  0
    6.9893  -11.1285    5.0223 H   0  0  0  0  0  0  0  0  0  0  0  0
    6.1413   -9.6142    5.2698 H   0  0  0  0  0  0  0  0  0  0  0  0
    7.4160  -10.8780    1.8738 H   0  0  0  0  0  0  0  0  0  0  0  0
    5.8538  -11.5164    1.4140 H   0  0  0  0  0  0  0  0  0  0  0  0
    6.7894  -12.3236    2.6673 H   0  0  0  0  0  0  0  0  0  0  0  0
    1.0833  -10.2243    5.9112 H   0  0  0  0  0  0  0  0  0  0  0  0
    0.4324  -10.9145    4.4148 H   0  0  0  0  0  0  0  0  0  0  0  0
    2.2254  -12.4260    4.3471 H   0  0  0  0  0  0  0  0  0  0  0  0
    2.9086  -11.7056    5.8134 H   0  0  0  0  0  0  0  0  0  0  0  0
    7.3948   -8.4904    2.3038 H   0  0  0  0  0  0  0  0  0  0  0  0
    6.3839   -8.6739    0.8835 H   0  0  0  0  0  0  0  0  0  0  0  0
    6.3121   -6.3944    2.9129 H   0  0  0  0  0  0  0  0  0  0  0  0
    6.6861   -6.2692    1.2073 H   0  0  0  0  0  0  0  0  0  0  0  0
    4.1999   -2.7039   -0.4758 H   0  0  0  0  0  0  0  0  0  0  0  0
  1  2  1  0
  1 26  1  0
  1 27  1  0
  1 28  1  0
  2 12  1  0
  2  3  1  0
  2  4  1  0
  3 29  1  0
  3 30  1  0
  3 31  1  0
  4  5  1  0
  5 10  1  0
  5  6  2  0
  6  7  1  0
  6 11  1  0
  7  8  2  0
  7  9  1  0
  9 10  1  0
  9 32  1  0
  9 33  1  0
 10 34  1  0
 10 35  1  0
 11 16  1  0
 11 12  2  0
 12 13  1  0
 13 14  1  0
 13 36  1  0
 13 37  1  0
 14 15  1  0
 14 38  1  0
 14 39  1  0
 15 24  1  0
 15 16  2  0
 16 17  1  0
 17 25  1  0
 17 18  1  0
 18 19  2  0
 18 20  1  0
 20 24  1  0
 20 21  2  0
 21 22  1  0
 22 23  2  0
 22 40  1  0
 23 24  1  0
M  END
>  <i_m_ct_stereo_status>  (78) 
1

>  <s_m_source_file>  (78) 
/var/tmp/pbs.5076255.sched01/tmp9d3cgwpa/0mc_8ktg4.sdf

>  <i_m_source_file_index>  (78) 
34

>  <i_lp_mmshare_version>  (78) 
48012

>  <i_f3d_flags>  (78) 
0

>  <s_epik_input>  (78) 
W0NIMl0xW0NIMl1DKD1PKUMoPUMxMilDMz1DKEMoTzIpKFtDSDNdKVtDSDNdKVtDSDJdW0NIMl1jNGMzW25IXWMoPU8pYzVuNG5bY0hdbjU=

>  <s_epik_cmdline>  (78) 
J2VwaWtfcHl0aG9uJywgJy1waHQnLCAnMi4wJywgJy1waCcsICc3LjAnLCAnLXRuJywgJzgnLCAnLW1hJywgJzIwMCcsICctaW1hZScsICc8aW5maWxlLm1hZT4nLCAnLW9tYWUnLCAnPG91dGZpbGUubWFlPic=

>  <r_epik_Ionization_Penalty>  (78) 
1.38623

>  <r_epik_Ionization_Penalty_Charging>  (78) 
1.38616

>  <r_epik_Ionization_Penalty_Neutral>  (78) 
7.53072e-05

>  <r_epik_State_Penalty>  (78) 
1.46764

>  <r_epik_Charging_Adjusted_Penalty>  (78) 
2.8538

>  <i_epik_Tot_Q>  (78) 
0

>  <i_epik_Tot_abs_Q>  (78) 
0

>  <s_lp_Force_Field>  (78) 
OPLS3e

>  <r_lp_Energy>  (78) 
39.975

>  <b_lp_Chiralities_Consistent>  (78) 
1

>  <s_lp_Variant>  (78) 
16:0-2

>  <s_i_glide_gridfile>  (78) 
pfpi4k_grid

>  <i_i_glide_lignum>  (78) 
34

>  <i_i_glide_rotatable_bonds>  (78) 
0

>  <r_i_docking_score>  (78) 
-3.46584

>  <r_i_glide_ligand_efficiency>  (78) 
-0.14441

>  <r_i_glide_ligand_efficiency_sa>  (78) 
-0.416551

>  <r_i_glide_ligand_efficiency_ln>  (78) 
-0.829535

>  <r_i_glide_gscore>  (78) 
-3.46584

>  <r_i_glide_lipo>  (78) 
-0.21955

>  <r_i_glide_hbond>  (78) 
-0.16

>  <r_i_glide_metal>  (78) 
-0

>  <r_i_glide_rewards>  (78) 
-1.26406

>  <r_i_glide_evdw>  (78) 
-24.2577

>  <r_i_glide_ecoul>  (78) 
-3.68468

>  <r_i_glide_erotb>  (78) 
0

>  <r_i_glide_esite>  (78) 
-0.0566472

>  <r_i_glide_emodel>  (78) 
-34.6837

>  <r_i_glide_energy>  (78) 
-27.9424

>  <r_i_glide_einternal>  (78) 
0

>  <r_i_glide_intrahb_reward>  (78) 
-0

>  <i_i_glide_confnum>  (78) 
2

>  <i_i_glide_posenum>  (78) 
40

>  <r_i_glide_eff_state_penalty>  (78) 
0

>  <ligand_id>  (78) 
16

>  <original_smiles>  (78) 
CC1(C)OC2=C(C(=O)CC2)C2=C1CCc1c2[nH]c(=O)c2ncnn12

>  <smiles>  (78) 
[H]c1nc2c(=O)n([H])c3c(n2n1)C([H])([H])C([H])([H])C1=C3C2=C(OC1(C([H])([H])[H])C([H])([H])[H])C([H])([H])C([H])([H])C2=O

$$$$
16:1:1
     RDKit          3D

 40 44  0  0  1  0  0  0  0  0999 V2000
    5.9150   -8.2546    4.0355 C   0  0  0  0  0  0  0  0  0  0  0  0
    5.5117   -8.3806    2.5586 C   0  0  0  0  0  0  0  0  0  0  0  0
    6.5243   -9.2029    1.7407 C   0  0  0  0  0  0  0  0  0  0  0  0
    4.3370   -9.2118    2.6032 O   0  0  0  0  0  0  0  0  0  0  0  0
    3.1276   -8.6204    2.3616 C   0  0  0  0  0  0  0  0  0  0  0  0
    2.9629   -7.3789    1.9140 C   0  0  0  0  0  0  0  0  0  0  0  0
    1.5229   -7.0892    2.0166 C   0  0  0  0  0  0  0  0  0  0  0  0
    0.9435   -6.0269    1.8039 O   0  0  0  0  0  0  0  0  0  0  0  0
    0.7628   -8.3287    2.4780 C   0  0  0  0  0  0  0  0  0  0  0  0
    1.8724   -9.3652    2.7270 C   0  0  0  0  0  0  0  0  0  0  0  0
    4.0888   -6.5056    1.6148 C   0  0  0  0  0  0  0  0  0  0  0  0
    5.3159   -6.9746    1.9456 C   0  0  0  0  0  0  0  0  0  0  0  0
    6.5805   -6.1536    1.6582 C   0  0  0  0  0  0  0  0  0  0  0  0
    6.3040   -4.6341    1.6972 C   0  0  0  0  0  0  0  0  0  0  0  0
    5.0012   -4.3310    0.9759 C   0  0  0  0  0  0  0  0  0  0  0  0
    3.9765   -5.2137    0.9308 C   0  0  0  0  0  0  0  0  0  0  0  0
    2.8719   -4.9657    0.0970 N   0  0  0  0  0  0  0  0  0  0  0  0
    2.6833   -3.8533   -0.6404 C   0  0  0  0  0  0  0  0  0  0  0  0
    1.6989   -3.6866   -1.3568 O   0  0  0  0  0  0  0  0  0  0  0  0
    3.7673   -2.8355   -0.5297 C   0  0  0  0  0  0  0  0  0  0  0  0
    3.8629   -1.6382   -1.0944 N   0  0  0  0  0  0  0  0  0  0  0  0
    5.0541   -1.2232   -0.5727 C   0  0  0  0  0  0  0  0  0  0  0  0
    5.6916   -2.0945    0.2147 N   0  0  0  0  0  0  0  0  0  0  0  0
    4.8234   -3.1364    0.2354 N   0  0  0  0  0  0  0  0  0  0  0  0
    2.1817   -5.7065    0.0412 H   0  0  0  0  0  0  0  0  0  0  0  0
    6.8587   -7.7253    4.1677 H   0  0  0  0  0  0  0  0  0  0  0  0
    6.0045   -9.2347    4.5076 H   0  0  0  0  0  0  0  0  0  0  0  0
    5.1476   -7.7065    4.5831 H   0  0  0  0  0  0  0  0  0  0  0  0
    7.5128   -8.7424    1.7463 H   0  0  0  0  0  0  0  0  0  0  0  0
    6.2026   -9.2904    0.7027 H   0  0  0  0  0  0  0  0  0  0  0  0
    6.6238  -10.2176    2.1325 H   0  0  0  0  0  0  0  0  0  0  0  0
    0.1779   -8.1058    3.3741 H   0  0  0  0  0  0  0  0  0  0  0  0
    0.0837   -8.6481    1.6866 H   0  0  0  0  0  0  0  0  0  0  0  0
    1.7557  -10.2426    2.0911 H   0  0  0  0  0  0  0  0  0  0  0  0
    1.8943   -9.6749    3.7721 H   0  0  0  0  0  0  0  0  0  0  0  0
    7.3835   -6.4087    2.3542 H   0  0  0  0  0  0  0  0  0  0  0  0
    6.9401   -6.4265    0.6627 H   0  0  0  0  0  0  0  0  0  0  0  0
    6.1936   -4.3225    2.7350 H   0  0  0  0  0  0  0  0  0  0  0  0
    7.1489   -4.0751    1.2875 H   0  0  0  0  0  0  0  0  0  0  0  0
    5.4813   -0.2557   -0.8003 H   0  0  0  0  0  0  0  0  0  0  0  0
  1  2  1  0
  1 26  1  0
  1 27  1  0
  1 28  1  0
  2 12  1  0
  2  3  1  0
  2  4  1  0
  3 29  1  0
  3 30  1  0
  3 31  1  0
  4  5  1  0
  5 10  1  0
  5  6  2  0
  6  7  1  0
  6 11  1  0
  7  8  2  0
  7  9  1  0
  9 10  1  0
  9 32  1  0
  9 33  1  0
 10 34  1  0
 10 35  1  0
 11 16  1  0
 11 12  2  0
 12 13  1  0
 13 14  1  0
 13 36  1  0
 13 37  1  0
 14 15  1  0
 14 38  1  0
 14 39  1  0
 15 24  1  0
 15 16  2  0
 16 17  1  0
 17 25  1  0
 17 18  1  0
 18 19  2  0
 18 20  1  0
 20 24  1  0
 20 21  2  0
 21 22  1  0
 22 23  2  0
 22 40  1  0
 23 24  1  0
M  END
>  <i_m_ct_stereo_status>  (79) 
1

>  <s_m_source_file>  (79) 
/var/tmp/pbs.5076255.sched01/tmp9d3cgwpa/0mc_8ktg4.sdf

>  <i_m_source_file_index>  (79) 
34

>  <i_lp_mmshare_version>  (79) 
48012

>  <i_f3d_flags>  (79) 
0

>  <s_epik_input>  (79) 
W0NIMl0xW0NIMl1DKD1PKUMoPUMxMilDMz1DKEMoTzIpKFtDSDNdKVtDSDNdKVtDSDJdW0NIMl1jNGMzW25IXWMoPU8pYzVuNG5bY0hdbjU=

>  <s_epik_cmdline>  (79) 
J2VwaWtfcHl0aG9uJywgJy1waHQnLCAnMi4wJywgJy1waCcsICc3LjAnLCAnLXRuJywgJzgnLCAnLW1hJywgJzIwMCcsICctaW1hZScsICc8aW5maWxlLm1hZT4nLCAnLW9tYWUnLCAnPG91dGZpbGUubWFlPic=

>  <r_epik_Ionization_Penalty>  (79) 
1.38623

>  <r_epik_Ionization_Penalty_Charging>  (79) 
1.38616

>  <r_epik_Ionization_Penalty_Neutral>  (79) 
7.53072e-05

>  <r_epik_State_Penalty>  (79) 
1.46764

>  <r_epik_Charging_Adjusted_Penalty>  (79) 
2.8538

>  <i_epik_Tot_Q>  (79) 
0

>  <i_epik_Tot_abs_Q>  (79) 
0

>  <s_lp_Force_Field>  (79) 
OPLS3e

>  <r_lp_Energy>  (79) 
39.975

>  <b_lp_Chiralities_Consistent>  (79) 
1

>  <s_lp_Variant>  (79) 
16:0-2

>  <s_i_glide_gridfile>  (79) 
pfpi4k_grid

>  <i_i_glide_lignum>  (79) 
34

>  <i_i_glide_rotatable_bonds>  (79) 
0

>  <r_i_docking_score>  (79) 
-3.37253

>  <r_i_glide_ligand_efficiency>  (79) 
-0.140522

>  <r_i_glide_ligand_efficiency_sa>  (79) 
-0.405336

>  <r_i_glide_ligand_efficiency_ln>  (79) 
-0.807202

>  <r_i_glide_gscore>  (79) 
-3.37253

>  <r_i_glide_lipo>  (79) 
-0.426161

>  <r_i_glide_hbond>  (79) 
-0.151395

>  <r_i_glide_metal>  (79) 
-0

>  <r_i_glide_rewards>  (79) 
-1.23297

>  <r_i_glide_evdw>  (79) 
-26.2259

>  <r_i_glide_ecoul>  (79) 
-0.870944

>  <r_i_glide_erotb>  (79) 
0

>  <r_i_glide_esite>  (79) 
-0.12007

>  <r_i_glide_emodel>  (79) 
-33.6539

>  <r_i_glide_energy>  (79) 
-27.0968

>  <r_i_glide_einternal>  (79) 
0

>  <r_i_glide_intrahb_reward>  (79) 
-0

>  <i_i_glide_confnum>  (79) 
1

>  <i_i_glide_posenum>  (79) 
11

>  <r_i_glide_eff_state_penalty>  (79) 
0

>  <ligand_id>  (79) 
16

>  <original_smiles>  (79) 
CC1(C)OC2=C(C(=O)CC2)C2=C1CCc1c2[nH]c(=O)c2ncnn12

>  <smiles>  (79) 
[H]c1nc2c(=O)n([H])c3c(n2n1)C([H])([H])C([H])([H])C1=C3C2=C(OC1(C([H])([H])[H])C([H])([H])[H])C([H])([H])C([H])([H])C2=O

$$$$
16:1:2
     RDKit          3D

 40 44  0  0  1  0  0  0  0  0999 V2000
    5.0141   -9.3197    4.3975 C   0  0  0  0  0  0  0  0  0  0  0  0
    4.7057   -9.3132    2.8919 C   0  0  0  0  0  0  0  0  0  0  0  0
    5.6582  -10.2318    2.0993 C   0  0  0  0  0  0  0  0  0  0  0  0
    3.4244   -9.9689    2.8169 O   0  0  0  0  0  0  0  0  0  0  0  0
    2.3272   -9.1970    2.5299 C   0  0  0  0  0  0  0  0  0  0  0  0
    2.3681   -7.9264    2.1405 C   0  0  0  0  0  0  0  0  0  0  0  0
    0.9786   -7.4346    2.1634 C   0  0  0  0  0  0  0  0  0  0  0  0
    0.5627   -6.2916    1.9707 O   0  0  0  0  0  0  0  0  0  0  0  0
    0.0222   -8.5723    2.5128 C   0  0  0  0  0  0  0  0  0  0  0  0
    0.9568   -9.7730    2.7756 C   0  0  0  0  0  0  0  0  0  0  0  0
    3.6254   -7.2112    1.9661 C   0  0  0  0  0  0  0  0  0  0  0  0
    4.7458   -7.8647    2.3509 C   0  0  0  0  0  0  0  0  0  0  0  0
    6.1332   -7.2226    2.1956 C   0  0  0  0  0  0  0  0  0  0  0  0
    6.0712   -5.6813    2.3035 C   0  0  0  0  0  0  0  0  0  0  0  0
    4.8788   -5.1612    1.5164 C   0  0  0  0  0  0  0  0  0  0  0  0
    3.7443   -5.8841    1.3528 C   0  0  0  0  0  0  0  0  0  0  0  0
    2.7425   -5.4335    0.4718 N   0  0  0  0  0  0  0  0  0  0  0  0
    2.7644   -4.2641   -0.2043 C   0  0  0  0  0  0  0  0  0  0  0  0
    1.8588   -3.8945   -0.9567 O   0  0  0  0  0  0  0  0  0  0  0  0
    3.9822   -3.4295    0.0263 C   0  0  0  0  0  0  0  0  0  0  0  0
    4.2816   -2.2283   -0.4559 N   0  0  0  0  0  0  0  0  0  0  0  0
    5.4877   -2.0266    0.1593 C   0  0  0  0  0  0  0  0  0  0  0  0
    5.9297   -3.0170    0.9388 N   0  0  0  0  0  0  0  0  0  0  0  0
    4.9254   -3.9228    0.8363 N   0  0  0  0  0  0  0  0  0  0  0  0
    1.9635   -6.0641    0.3400 H   0  0  0  0  0  0  0  0  0  0  0  0
    6.0104   -8.9384    4.6201 H   0  0  0  0  0  0  0  0  0  0  0  0
    4.9295  -10.3249    4.8133 H   0  0  0  0  0  0  0  0  0  0  0  0
    4.2911   -8.6944    4.9238 H   0  0  0  0  0  0  0  0  0  0  0  0
    6.7029   -9.9340    2.1937 H   0  0  0  0  0  0  0  0  0  0  0  0
    5.4043  -10.2214    1.0378 H   0  0  0  0  0  0  0  0  0  0  0  0
    5.5734  -11.2683    2.4317 H   0  0  0  0  0  0  0  0  0  0  0  0
   -0.5848   -8.3145    3.3808 H   0  0  0  0  0  0  0  0  0  0  0  0
   -0.6393   -8.7540    1.6691 H   0  0  0  0  0  0  0  0  0  0  0  0
    0.7607  -10.5904    2.0814 H   0  0  0  0  0  0  0  0  0  0  0  0
    0.8630  -10.1334    3.7991 H   0  0  0  0  0  0  0  0  0  0  0  0
    6.8409   -7.6225    2.9263 H   0  0  0  0  0  0  0  0  0  0  0  0
    6.5238   -7.4989    1.2121 H   0  0  0  0  0  0  0  0  0  0  0  0
    5.9337   -5.4063    3.3500 H   0  0  0  0  0  0  0  0  0  0  0  0
    7.0122   -5.2311    1.9818 H   0  0  0  0  0  0  0  0  0  0  0  0
    6.0659   -1.1225    0.0203 H   0  0  0  0  0  0  0  0  0  0  0  0
  1  2  1  0
  1 26  1  0
  1 27  1  0
  1 28  1  0
  2 12  1  0
  2  3  1  0
  2  4  1  0
  3 29  1  0
  3 30  1  0
  3 31  1  0
  4  5  1  0
  5 10  1  0
  5  6  2  0
  6  7  1  0
  6 11  1  0
  7  8  2  0
  7  9  1  0
  9 10  1  0
  9 32  1  0
  9 33  1  0
 10 34  1  0
 10 35  1  0
 11 16  1  0
 11 12  2  0
 12 13  1  0
 13 14  1  0
 13 36  1  0
 13 37  1  0
 14 15  1  0
 14 38  1  0
 14 39  1  0
 15 24  1  0
 15 16  2  0
 16 17  1  0
 17 25  1  0
 17 18  1  0
 18 19  2  0
 18 20  1  0
 20 24  1  0
 20 21  2  0
 21 22  1  0
 22 23  2  0
 22 40  1  0
 23 24  1  0
M  END
>  <i_m_ct_stereo_status>  (80) 
1

>  <s_m_source_file>  (80) 
/var/tmp/pbs.5076255.sched01/tmp9d3cgwpa/0mc_8ktg4.sdf

>  <i_m_source_file_index>  (80) 
34

>  <i_lp_mmshare_version>  (80) 
48012

>  <i_f3d_flags>  (80) 
0

>  <s_epik_input>  (80) 
W0NIMl0xW0NIMl1DKD1PKUMoPUMxMilDMz1DKEMoTzIpKFtDSDNdKVtDSDNdKVtDSDJdW0NIMl1jNGMzW25IXWMoPU8pYzVuNG5bY0hdbjU=

>  <s_epik_cmdline>  (80) 
J2VwaWtfcHl0aG9uJywgJy1waHQnLCAnMi4wJywgJy1waCcsICc3LjAnLCAnLXRuJywgJzgnLCAnLW1hJywgJzIwMCcsICctaW1hZScsICc8aW5maWxlLm1hZT4nLCAnLW9tYWUnLCAnPG91dGZpbGUubWFlPic=

>  <r_epik_Ionization_Penalty>  (80) 
1.38623

>  <r_epik_Ionization_Penalty_Charging>  (80) 
1.38616

>  <r_epik_Ionization_Penalty_Neutral>  (80) 
7.53072e-05

>  <r_epik_State_Penalty>  (80) 
1.46764

>  <r_epik_Charging_Adjusted_Penalty>  (80) 
2.8538

>  <i_epik_Tot_Q>  (80) 
0

>  <i_epik_Tot_abs_Q>  (80) 
0

>  <s_lp_Force_Field>  (80) 
OPLS3e

>  <r_lp_Energy>  (80) 
39.975

>  <b_lp_Chiralities_Consistent>  (80) 
1

>  <s_lp_Variant>  (80) 
16:0-2

>  <s_i_glide_gridfile>  (80) 
pfpi4k_grid

>  <i_i_glide_lignum>  (80) 
34

>  <i_i_glide_rotatable_bonds>  (80) 
0

>  <r_i_docking_score>  (80) 
-3.20517

>  <r_i_glide_ligand_efficiency>  (80) 
-0.133549

>  <r_i_glide_ligand_efficiency_sa>  (80) 
-0.385221

>  <r_i_glide_ligand_efficiency_ln>  (80) 
-0.767144

>  <r_i_glide_gscore>  (80) 
-3.20517

>  <r_i_glide_lipo>  (80) 
-0.272335

>  <r_i_glide_hbond>  (80) 
-0.137402

>  <r_i_glide_metal>  (80) 
-0

>  <r_i_glide_rewards>  (80) 
-1.30728

>  <r_i_glide_evdw>  (80) 
-25.938

>  <r_i_glide_ecoul>  (80) 
-0.750708

>  <r_i_glide_erotb>  (80) 
0

>  <r_i_glide_esite>  (80) 
-0.0786519

>  <r_i_glide_emodel>  (80) 
-32.9161

>  <r_i_glide_energy>  (80) 
-26.6887

>  <r_i_glide_einternal>  (80) 
0

>  <r_i_glide_intrahb_reward>  (80) 
-0

>  <i_i_glide_confnum>  (80) 
1

>  <i_i_glide_posenum>  (80) 
16

>  <r_i_glide_eff_state_penalty>  (80) 
0

>  <ligand_id>  (80) 
16

>  <original_smiles>  (80) 
CC1(C)OC2=C(C(=O)CC2)C2=C1CCc1c2[nH]c(=O)c2ncnn12

>  <smiles>  (80) 
[H]c1nc2c(=O)n([H])c3c(n2n1)C([H])([H])C([H])([H])C1=C3C2=C(OC1(C([H])([H])[H])C([H])([H])[H])C([H])([H])C([H])([H])C2=O

$$$$
17:0:0
     RDKit          3D

 78 84  0  0  1  0  0  0  0  0999 V2000
    3.2510   -2.4566   -2.2492 C   0  0  0  0  0  0  0  0  0  0  0  0
    3.8538   -3.2787   -1.0984 C   0  0  2  0  0  0  0  0  0  0  0  0
    2.7020   -3.8549   -0.2268 C   0  0  0  0  0  0  0  0  0  0  0  0
    2.9855   -4.3282    1.2296 C   0  0  2  0  0  0  0  0  0  0  0  0
    3.2488   -3.1715    2.1717 C   0  0  2  0  0  0  0  0  0  0  0  0
    2.9325   -1.8281    1.9390 C   0  0  0  0  0  0  0  0  0  0  0  0
    4.4661   -2.2087    1.9467 C   0  0  1  0  0  0  0  0  0  0  0  0
    4.9337   -0.8802    1.3524 C   0  0  0  0  0  0  0  0  0  0  0  0
    4.9328   -1.0806   -0.1676 C   0  0  0  0  0  0  0  0  0  0  0  0
    5.0611   -2.6109   -0.3739 C   0  0  2  0  0  0  0  0  0  0  0  0
    6.2082   -2.8116   -1.1573 O   0  0  0  0  0  0  0  0  0  0  0  0
    5.3722   -3.0839    1.0741 C   0  0  2  0  0  0  0  0  0  0  0  0
    5.4708   -4.5990    1.4771 C   0  0  1  0  0  0  0  0  0  0  0  0
    6.2787   -4.6668    2.7737 C   0  0  0  0  0  0  0  0  0  0  0  0
    6.1115   -5.7389    3.8490 C   0  0  1  0  0  0  0  0  0  0  0  0
    4.8797   -5.4047    4.6917 C   0  0  0  0  0  0  0  0  0  0  0  0
    3.6027   -5.9030    4.0422 C   0  0  0  0  0  0  0  0  0  0  0  0
    3.7669   -6.4460    2.5794 C   0  0  2  0  0  0  0  0  0  0  0  0
    2.5817   -7.1800    2.1591 O   0  0  0  0  0  0  0  0  0  0  0  0
    1.3323   -6.9677    2.8035 C   0  0  2  0  0  0  0  0  0  0  0  0
    1.2359   -7.5614    4.0478 O   0  0  0  0  0  0  0  0  0  0  0  0
    1.0516   -8.9325    3.8371 C   0  0  1  0  0  0  0  0  0  0  0  0
    0.7153   -9.6093    5.1847 C   0  0  0  0  0  0  0  0  0  0  0  0
    1.8852   -9.8723    5.9145 O   0  0  0  0  0  0  0  0  0  0  0  0
   -0.0009   -8.9877    2.7046 C   0  0  1  0  0  0  0  0  0  0  0  0
   -1.3462   -9.1003    3.1585 O   0  0  0  0  0  0  0  0  0  0  0  0
    0.2268   -7.6475    1.9784 C   0  0  1  0  0  0  0  0  0  0  0  0
   -0.9142   -6.8227    1.9674 O   0  0  0  0  0  0  0  0  0  0  0  0
    4.7855   -7.6271    2.7616 C   0  0  0  0  0  0  0  0  0  0  0  0
    6.1515   -7.2129    3.3716 C   0  0  0  0  0  0  0  0  0  0  0  0
    7.3268   -7.4136    2.3818 C   0  0  0  0  0  0  0  0  0  0  0  0
    6.4929   -8.1260    4.5769 C   0  0  0  0  0  0  0  0  0  0  0  0
    4.1245   -5.4081    1.3950 C   0  0  1  0  0  0  0  0  0  0  0  0
    4.2635   -6.2945    0.1140 C   0  0  0  0  0  0  0  0  0  0  0  0
    2.6407   -1.6239   -1.9020 H   0  0  0  0  0  0  0  0  0  0  0  0
    2.5792   -3.0725   -2.8452 H   0  0  0  0  0  0  0  0  0  0  0  0
    4.0209   -2.0713   -2.9049 H   0  0  0  0  0  0  0  0  0  0  0  0
    4.2566   -4.1201   -1.6396 H   0  0  0  0  0  0  0  0  0  0  0  0
    1.8776   -3.1382   -0.2049 H   0  0  0  0  0  0  0  0  0  0  0  0
    2.2721   -4.6980   -0.7677 H   0  0  0  0  0  0  0  0  0  0  0  0
    2.0336   -4.7587    1.5277 H   0  0  0  0  0  0  0  0  0  0  0  0
    3.1188   -3.4278    3.2142 H   0  0  0  0  0  0  0  0  0  0  0  0
    2.4911   -1.5050    0.9999 H   0  0  0  0  0  0  0  0  0  0  0  0
    2.5742   -1.2548    2.7827 H   0  0  0  0  0  0  0  0  0  0  0  0
    4.3450   -0.0163    1.6723 H   0  0  0  0  0  0  0  0  0  0  0  0
    5.9504   -0.6835    1.7088 H   0  0  0  0  0  0  0  0  0  0  0  0
    4.0155   -0.6593   -0.5702 H   0  0  0  0  0  0  0  0  0  0  0  0
    5.7544   -0.5267   -0.6259 H   0  0  0  0  0  0  0  0  0  0  0  0
    6.2436   -3.7341   -1.3622 H   0  0  0  0  0  0  0  0  0  0  0  0
    6.3969   -2.7369    1.2651 H   0  0  0  0  0  0  0  0  0  0  0  0
    6.1378   -5.0335    0.7405 H   0  0  0  0  0  0  0  0  0  0  0  0
    7.3064   -4.6823    2.4626 H   0  0  0  0  0  0  0  0  0  0  0  0
    6.1625   -3.7247    3.2777 H   0  0  0  0  0  0  0  0  0  0  0  0
    6.9576   -5.5927    4.5353 H   0  0  0  0  0  0  0  0  0  0  0  0
    4.9514   -5.8774    5.6688 H   0  0  0  0  0  0  0  0  0  0  0  0
    4.8020   -4.3392    4.8930 H   0  0  0  0  0  0  0  0  0  0  0  0
    3.3353   -6.7684    4.6498 H   0  0  0  0  0  0  0  0  0  0  0  0
    2.8018   -5.1867    4.1789 H   0  0  0  0  0  0  0  0  0  0  0  0
    1.1202   -5.8911    2.9414 H   0  0  0  0  0  0  0  0  0  0  0  0
    1.9869   -9.3141    3.4280 H   0  0  0  0  0  0  0  0  0  0  0  0
    0.0418   -8.9684    5.7535 H   0  0  0  0  0  0  0  0  0  0  0  0
    0.2186  -10.5649    5.0062 H   0  0  0  0  0  0  0  0  0  0  0  0
    1.6967  -10.5773    6.5338 H   0  0  0  0  0  0  0  0  0  0  0  0
    0.2439   -9.8280    2.0615 H   0  0  0  0  0  0  0  0  0  0  0  0
   -1.4254   -9.8122    3.8211 H   0  0  0  0  0  0  0  0  0  0  0  0
    0.5567   -7.7659    0.9352 H   0  0  0  0  0  0  0  0  0  0  0  0
   -1.6603   -7.4273    2.0697 H   0  0  0  0  0  0  0  0  0  0  0  0
    4.3183   -8.3729    3.4172 H   0  0  0  0  0  0  0  0  0  0  0  0
    4.9446   -8.2286    1.8771 H   0  0  0  0  0  0  0  0  0  0  0  0
    7.5185   -8.4745    2.1818 H   0  0  0  0  0  0  0  0  0  0  0  0
    8.2580   -7.0004    2.7909 H   0  0  0  0  0  0  0  0  0  0  0  0
    7.1503   -6.9315    1.4197 H   0  0  0  0  0  0  0  0  0  0  0  0
    6.5807   -9.1743    4.2579 H   0  0  0  0  0  0  0  0  0  0  0  0
    5.7281   -8.0823    5.3547 H   0  0  0  0  0  0  0  0  0  0  0  0
    7.4535   -7.8468    5.0280 H   0  0  0  0  0  0  0  0  0  0  0  0
    4.9055   -7.1642    0.2234 H   0  0  0  0  0  0  0  0  0  0  0  0
    4.7765   -5.8058   -0.7027 H   0  0  0  0  0  0  0  0  0  0  0  0
    3.3018   -6.6558   -0.2412 H   0  0  0  0  0  0  0  0  0  0  0  0
  1  2  1  0
  1 35  1  0
  1 36  1  0
  1 37  1  0
  2 10  1  0
  2  3  1  0
  2 38  1  6
  3  4  1  0
  3 39  1  0
  3 40  1  0
  4 33  1  0
  4  5  1  0
  4 41  1  1
  5  7  1  0
  5  6  1  0
  5 42  1  1
  7  6  1  6
  6 43  1  0
  6 44  1  0
  7 12  1  0
  7  8  1  0
  8  9  1  0
  8 45  1  0
  8 46  1  0
  9 10  1  0
  9 47  1  0
  9 48  1  0
 10 11  1  6
 10 12  1  0
 11 49  1  0
 12 13  1  0
 12 50  1  1
 13 33  1  0
 13 14  1  0
 13 51  1  6
 14 15  1  0
 14 52  1  0
 14 53  1  0
 15 30  1  0
 15 16  1  0
 15 54  1  1
 16 17  1  0
 16 55  1  0
 16 56  1  0
 17 18  1  0
 17 57  1  0
 17 58  1  0
 18 19  1  6
 18 29  1  0
 18 33  1  0
 19 20  1  0
 20 27  1  0
 20 21  1  0
 20 59  1  1
 21 22  1  0
 22 23  1  0
 22 25  1  0
 22 60  1  6
 23 24  1  0
 23 61  1  0
 23 62  1  0
 24 63  1  0
 25 26  1  0
 25 27  1  0
 25 64  1  6
 26 65  1  0
 27 28  1  0
 27 66  1  6
 28 67  1  0
 29 30  1  0
 29 68  1  0
 29 69  1  0
 30 31  1  0
 30 32  1  0
 31 70  1  0
 31 71  1  0
 31 72  1  0
 32 73  1  0
 32 74  1  0
 32 75  1  0
 33 34  1  6
 34 76  1  0
 34 77  1  0
 34 78  1  0
M  END
>  <i_m_ct_stereo_status>  (81) 
1

>  <s_m_source_file>  (81) 
/var/tmp/pbs.5076255.sched01/tmp9d3cgwpa/0mc_8ktg4.sdf

>  <i_m_source_file_index>  (81) 
35

>  <i_lp_mmshare_version>  (81) 
48012

>  <i_f3d_flags>  (81) 
0

>  <s_epik_input>  (81) 
W0NIM11bQ0BIXShbQ0gyXTEpW0NAQF0oW09IXSkoW0NIMl1bQ0gyXTIpW0NAQEhdM1tDQEhdKFtDQF00KFtDSDNdKVtDQEhdMVtDQEBIXShDMjM1KVtDSDJdNSlbQ0gyXVtDQEhdNltDSDJdW0NIMl1bQ0BAXTQoW0NIMl1DNihbQ0gzXSlbQ0gzXSlPW0NAQEhdN09bQ0BASF0oW0NIMl1bT0hdKVtDQEBIXShbT0hdKVtDQEhdN1tPSF0=

>  <s_epik_cmdline>  (81) 
J2VwaWtfcHl0aG9uJywgJy1waHQnLCAnMi4wJywgJy1waCcsICc3LjAnLCAnLXRuJywgJzgnLCAnLW1hJywgJzIwMCcsICctaW1hZScsICc8aW5maWxlLm1hZT4nLCAnLW9tYWUnLCAnPG91dGZpbGUubWFlPic=

>  <r_lp_tautomer_probability>  (81) 
1

>  <r_epik_Ionization_Penalty>  (81) 
7.58422e-06

>  <r_epik_Ionization_Penalty_Charging>  (81) 
0

>  <r_epik_Ionization_Penalty_Neutral>  (81) 
7.58422e-06

>  <r_epik_State_Penalty>  (81) 
-0

>  <r_epik_Charging_Adjusted_Penalty>  (81) 
0

>  <i_epik_Tot_Q>  (81) 
0

>  <i_epik_Tot_abs_Q>  (81) 
0

>  <s_epik_Chemistry_Notes>  (81) 
This compound contains an acetal/aminal-like group ( X-CH(R)-Y where X, Y are N, S, or O) that may be acid/base labile, releasing an aldehyde.

>  <s_lp_Force_Field>  (81) 
OPLS3e

>  <r_lp_Energy>  (81) 
149.361

>  <b_lp_Chiralities_Consistent>  (81) 
1

>  <s_lp_Variant>  (81) 
17:0-1

>  <s_i_glide_gridfile>  (81) 
pfpi4k_grid

>  <i_i_glide_lignum>  (81) 
35

>  <i_i_glide_rotatable_bonds>  (81) 
7

>  <r_i_docking_score>  (81) 
-3.01816

>  <r_i_glide_ligand_efficiency>  (81) 
-0.0887695

>  <r_i_glide_ligand_efficiency_sa>  (81) 
-0.287579

>  <r_i_glide_ligand_efficiency_ln>  (81) 
-0.666797

>  <r_i_glide_gscore>  (81) 
-3.01816

>  <r_i_glide_lipo>  (81) 
-0.359827

>  <r_i_glide_hbond>  (81) 
0

>  <r_i_glide_metal>  (81) 
-0

>  <r_i_glide_rewards>  (81) 
-0.159236

>  <r_i_glide_evdw>  (81) 
-21.8922

>  <r_i_glide_ecoul>  (81) 
-10.9792

>  <r_i_glide_erotb>  (81) 
0.267413

>  <r_i_glide_esite>  (81) 
-0.0250179

>  <r_i_glide_emodel>  (81) 
-34.3147

>  <r_i_glide_energy>  (81) 
-32.8714

>  <r_i_glide_einternal>  (81) 
8.88818

>  <r_i_glide_intrahb_reward>  (81) 
-0

>  <i_i_glide_confnum>  (81) 
3

>  <i_i_glide_posenum>  (81) 
39

>  <r_i_glide_eff_state_penalty>  (81) 
0

>  <ligand_id>  (81) 
17

>  <original_smiles>  (81) 
CC1CC2C3CC34CCC1(O)C4C1CC3CCC(OC4OC(CO)C(O)C4O)(CC3(C)C)C21C

>  <smiles>  (81) 
[H]OC([H])([H])C1([H])OC([H])(OC23C([H])([H])C([H])([H])C([H])(C([H])([H])C4([H])C5([H])C6(O[H])C([H])([H])C([H])([H])C57C([H])([H])C7([H])C([H])(C([H])([H])C6([H])C([H])([H])[H])C42C([H])([H])[H])C(C([H])([H])[H])(C([H])([H])[H])C3([H])[H])C([H])(O[H])C1([H])O[H]

$$$$
17:0:1
     RDKit          3D

 78 84  0  0  1  0  0  0  0  0999 V2000
    3.3961   -2.6901   -1.7045 C   0  0  0  0  0  0  0  0  0  0  0  0
    3.7880   -3.5651   -0.4909 C   0  0  2  0  0  0  0  0  0  0  0  0
    2.5629   -3.7318    0.4542 C   0  0  0  0  0  0  0  0  0  0  0  0
    2.7833   -4.1573    1.9401 C   0  0  2  0  0  0  0  0  0  0  0  0
    3.4070   -3.0253    2.7767 C   0  0  2  0  0  0  0  0  0  0  0  0
    3.4839   -1.6850    2.3841 C   0  0  0  0  0  0  0  0  0  0  0  0
    4.8403   -2.4913    2.4350 C   0  0  1  0  0  0  0  0  0  0  0  0
    5.6293   -1.3995    1.6931 C   0  0  0  0  0  0  0  0  0  0  0  0
    5.5167   -1.7178    0.2025 C   0  0  0  0  0  0  0  0  0  0  0  0
    5.1819   -3.2262    0.1406 C   0  0  2  0  0  0  0  0  0  0  0  0
    6.1701   -3.8349   -0.6611 O   0  0  0  0  0  0  0  0  0  0  0  0
    5.4161   -3.6561    1.6158 C   0  0  2  0  0  0  0  0  0  0  0  0
    5.1041   -5.1095    2.1644 C   0  0  1  0  0  0  0  0  0  0  0  0
    5.9285   -5.2693    3.4730 C   0  0  0  0  0  0  0  0  0  0  0  0
    5.4484   -6.1547    4.6293 C   0  0  1  0  0  0  0  0  0  0  0  0
    4.3212   -5.4309    5.3936 C   0  0  0  0  0  0  0  0  0  0  0  0
    2.9344   -5.6175    4.7663 C   0  0  0  0  0  0  0  0  0  0  0  0
    2.9702   -6.3458    3.4024 C   0  0  2  0  0  0  0  0  0  0  0  0
    1.6148   -6.6006    2.9729 O   0  0  0  0  0  0  0  0  0  0  0  0
    0.6601   -7.2321    3.7926 C   0  0  2  0  0  0  0  0  0  0  0  0
    0.9263   -8.5743    4.0144 O   0  0  0  0  0  0  0  0  0  0  0  0
    0.6455   -9.2747    2.8217 C   0  0  1  0  0  0  0  0  0  0  0  0
    0.6628  -10.7935    3.0760 C   0  0  0  0  0  0  0  0  0  0  0  0
    1.9828  -11.2560    3.2483 O   0  0  0  0  0  0  0  0  0  0  0  0
   -0.7101   -8.6561    2.4140 C   0  0  1  0  0  0  0  0  0  0  0  0
   -1.8194   -9.4402    2.8463 O   0  0  0  0  0  0  0  0  0  0  0  0
   -0.6730   -7.2557    3.0414 C   0  0  1  0  0  0  0  0  0  0  0  0
   -1.7677   -7.0316    3.9116 O   0  0  0  0  0  0  0  0  0  0  0  0
    3.6670   -7.7152    3.7003 C   0  0  0  0  0  0  0  0  0  0  0  0
    5.1052   -7.6275    4.2625 C   0  0  0  0  0  0  0  0  0  0  0  0
    6.1183   -8.2312    3.2600 C   0  0  0  0  0  0  0  0  0  0  0  0
    5.2001   -8.5001    5.5382 C   0  0  0  0  0  0  0  0  0  0  0  0
    3.5703   -5.5176    2.1554 C   0  0  1  0  0  0  0  0  0  0  0  0
    3.3763   -6.4736    0.9301 C   0  0  0  0  0  0  0  0  0  0  0  0
    3.0404   -1.6980   -1.4136 H   0  0  0  0  0  0  0  0  0  0  0  0
    2.5805   -3.1559   -2.2634 H   0  0  0  0  0  0  0  0  0  0  0  0
    4.2392   -2.5680   -2.3897 H   0  0  0  0  0  0  0  0  0  0  0  0
    3.9159   -4.5249   -0.9796 H   0  0  0  0  0  0  0  0  0  0  0  0
    1.9721   -2.8157    0.4371 H   0  0  0  0  0  0  0  0  0  0  0  0
    1.8946   -4.4512   -0.0269 H   0  0  0  0  0  0  0  0  0  0  0  0
    1.7788   -4.2744    2.3428 H   0  0  0  0  0  0  0  0  0  0  0  0
    3.2407   -3.1366    3.8409 H   0  0  0  0  0  0  0  0  0  0  0  0
    3.1138   -1.3421    1.4289 H   0  0  0  0  0  0  0  0  0  0  0  0
    3.3410   -0.9432    3.1606 H   0  0  0  0  0  0  0  0  0  0  0  0
    5.3344   -0.3777    1.9459 H   0  0  0  0  0  0  0  0  0  0  0  0
    6.6675   -1.4798    2.0122 H   0  0  0  0  0  0  0  0  0  0  0  0
    4.7576   -1.0792   -0.2376 H   0  0  0  0  0  0  0  0  0  0  0  0
    6.4475   -1.4823   -0.3050 H   0  0  0  0  0  0  0  0  0  0  0  0
    5.9145   -4.7364   -0.7927 H   0  0  0  0  0  0  0  0  0  0  0  0
    6.5007   -3.6078    1.7431 H   0  0  0  0  0  0  0  0  0  0  0  0
    5.6043   -5.7734    1.4615 H   0  0  0  0  0  0  0  0  0  0  0  0
    6.9231   -5.5968    3.1834 H   0  0  0  0  0  0  0  0  0  0  0  0
    6.1073   -4.2899    3.9152 H   0  0  0  0  0  0  0  0  0  0  0  0
    6.3018   -6.1959    5.3137 H   0  0  0  0  0  0  0  0  0  0  0  0
    4.2889   -5.8213    6.4096 H   0  0  0  0  0  0  0  0  0  0  0  0
    4.5539   -4.3713    5.5077 H   0  0  0  0  0  0  0  0  0  0  0  0
    2.4189   -6.2539    5.4808 H   0  0  0  0  0  0  0  0  0  0  0  0
    2.3479   -4.7064    4.7581 H   0  0  0  0  0  0  0  0  0  0  0  0
    0.5479   -6.6848    4.7294 H   0  0  0  0  0  0  0  0  0  0  0  0
    1.3886   -9.0011    2.0773 H   0  0  0  0  0  0  0  0  0  0  0  0
    0.0820  -11.0434    3.9576 H   0  0  0  0  0  0  0  0  0  0  0  0
    0.2179  -11.3044    2.2234 H   0  0  0  0  0  0  0  0  0  0  0  0
    1.9662  -12.1991    3.3356 H   0  0  0  0  0  0  0  0  0  0  0  0
   -0.7756   -8.5468    1.3302 H   0  0  0  0  0  0  0  0  0  0  0  0
   -1.6465   -9.8422    3.6990 H   0  0  0  0  0  0  0  0  0  0  0  0
   -0.6684   -6.4704    2.2785 H   0  0  0  0  0  0  0  0  0  0  0  0
   -1.8926   -7.8239    4.4107 H   0  0  0  0  0  0  0  0  0  0  0  0
    3.0928   -8.2077    4.4783 H   0  0  0  0  0  0  0  0  0  0  0  0
    3.6141   -8.4295    2.8872 H   0  0  0  0  0  0  0  0  0  0  0  0
    5.9650   -9.3070    3.1528 H   0  0  0  0  0  0  0  0  0  0  0  0
    7.1457   -8.0852    3.6031 H   0  0  0  0  0  0  0  0  0  0  0  0
    6.0284   -7.8010    2.2644 H   0  0  0  0  0  0  0  0  0  0  0  0
    4.9485   -9.5421    5.3091 H   0  0  0  0  0  0  0  0  0  0  0  0
    4.5027   -8.1634    6.3101 H   0  0  0  0  0  0  0  0  0  0  0  0
    6.2075   -8.4895    5.9652 H   0  0  0  0  0  0  0  0  0  0  0  0
    3.7267   -7.4795    1.1130 H   0  0  0  0  0  0  0  0  0  0  0  0
    3.9667   -6.2053    0.0656 H   0  0  0  0  0  0  0  0  0  0  0  0
    2.3339   -6.5553    0.6238 H   0  0  0  0  0  0  0  0  0  0  0  0
  1  2  1  0
  1 35  1  0
  1 36  1  0
  1 37  1  0
  2 10  1  0
  2  3  1  0
  2 38  1  6
  3  4  1  0
  3 39  1  0
  3 40  1  0
  4 33  1  0
  4  5  1  0
  4 41  1  1
  5  7  1  0
  5  6  1  0
  5 42  1  1
  7  6  1  6
  6 43  1  0
  6 44  1  0
  7 12  1  0
  7  8  1  0
  8  9  1  0
  8 45  1  0
  8 46  1  0
  9 10  1  0
  9 47  1  0
  9 48  1  0
 10 11  1  6
 10 12  1  0
 11 49  1  0
 12 13  1  0
 12 50  1  6
 13 33  1  0
 13 14  1  0
 13 51  1  6
 14 15  1  0
 14 52  1  0
 14 53  1  0
 15 30  1  0
 15 16  1  0
 15 54  1  1
 16 17  1  0
 16 55  1  0
 16 56  1  0
 17 18  1  0
 17 57  1  0
 17 58  1  0
 18 19  1  6
 18 29  1  0
 18 33  1  0
 19 20  1  0
 20 27  1  0
 20 21  1  0
 20 59  1  1
 21 22  1  0
 22 23  1  0
 22 25  1  0
 22 60  1  6
 23 24  1  0
 23 61  1  0
 23 62  1  0
 24 63  1  0
 25 26  1  0
 25 27  1  0
 25 64  1  6
 26 65  1  0
 27 28  1  0
 27 66  1  6
 28 67  1  0
 29 30  1  0
 29 68  1  0
 29 69  1  0
 30 31  1  0
 30 32  1  0
 31 70  1  0
 31 71  1  0
 31 72  1  0
 32 73  1  0
 32 74  1  0
 32 75  1  0
 33 34  1  6
 34 76  1  0
 34 77  1  0
 34 78  1  0
M  END
>  <i_m_ct_stereo_status>  (82) 
1

>  <s_m_source_file>  (82) 
/var/tmp/pbs.5076255.sched01/tmp9d3cgwpa/0mc_8ktg4.sdf

>  <i_m_source_file_index>  (82) 
35

>  <i_lp_mmshare_version>  (82) 
48012

>  <i_f3d_flags>  (82) 
0

>  <s_epik_input>  (82) 
W0NIM11bQ0BIXShbQ0gyXTEpW0NAQF0oW09IXSkoW0NIMl1bQ0gyXTIpW0NAQEhdM1tDQEhdKFtDQF00KFtDSDNdKVtDQEhdMVtDQEBIXShDMjM1KVtDSDJdNSlbQ0gyXVtDQEhdNltDSDJdW0NIMl1bQ0BAXTQoW0NIMl1DNihbQ0gzXSlbQ0gzXSlPW0NAQEhdN09bQ0BASF0oW0NIMl1bT0hdKVtDQEBIXShbT0hdKVtDQEhdN1tPSF0=

>  <s_epik_cmdline>  (82) 
J2VwaWtfcHl0aG9uJywgJy1waHQnLCAnMi4wJywgJy1waCcsICc3LjAnLCAnLXRuJywgJzgnLCAnLW1hJywgJzIwMCcsICctaW1hZScsICc8aW5maWxlLm1hZT4nLCAnLW9tYWUnLCAnPG91dGZpbGUubWFlPic=

>  <r_lp_tautomer_probability>  (82) 
1

>  <r_epik_Ionization_Penalty>  (82) 
7.58422e-06

>  <r_epik_Ionization_Penalty_Charging>  (82) 
0

>  <r_epik_Ionization_Penalty_Neutral>  (82) 
7.58422e-06

>  <r_epik_State_Penalty>  (82) 
-0

>  <r_epik_Charging_Adjusted_Penalty>  (82) 
0

>  <i_epik_Tot_Q>  (82) 
0

>  <i_epik_Tot_abs_Q>  (82) 
0

>  <s_epik_Chemistry_Notes>  (82) 
This compound contains an acetal/aminal-like group ( X-CH(R)-Y where X, Y are N, S, or O) that may be acid/base labile, releasing an aldehyde.

>  <s_lp_Force_Field>  (82) 
OPLS3e

>  <r_lp_Energy>  (82) 
149.361

>  <b_lp_Chiralities_Consistent>  (82) 
1

>  <s_lp_Variant>  (82) 
17:0-1

>  <s_i_glide_gridfile>  (82) 
pfpi4k_grid

>  <i_i_glide_lignum>  (82) 
35

>  <i_i_glide_rotatable_bonds>  (82) 
7

>  <r_i_docking_score>  (82) 
-2.38277

>  <r_i_glide_ligand_efficiency>  (82) 
-0.0700815

>  <r_i_glide_ligand_efficiency_sa>  (82) 
-0.227037

>  <r_i_glide_ligand_efficiency_ln>  (82) 
-0.526421

>  <r_i_glide_gscore>  (82) 
-2.38277

>  <r_i_glide_lipo>  (82) 
-0.476892

>  <r_i_glide_hbond>  (82) 
0

>  <r_i_glide_metal>  (82) 
-0

>  <r_i_glide_rewards>  (82) 
-0.159236

>  <r_i_glide_evdw>  (82) 
-24.9058

>  <r_i_glide_ecoul>  (82) 
-4.96083

>  <r_i_glide_erotb>  (82) 
0.267413

>  <r_i_glide_esite>  (82) 
-0.0246416

>  <r_i_glide_emodel>  (82) 
-33.2421

>  <r_i_glide_energy>  (82) 
-29.8666

>  <r_i_glide_einternal>  (82) 
3.39837

>  <r_i_glide_intrahb_reward>  (82) 
-0

>  <i_i_glide_confnum>  (82) 
3

>  <i_i_glide_posenum>  (82) 
33

>  <r_i_glide_eff_state_penalty>  (82) 
0

>  <ligand_id>  (82) 
17

>  <original_smiles>  (82) 
CC1CC2C3CC34CCC1(O)C4C1CC3CCC(OC4OC(CO)C(O)C4O)(CC3(C)C)C21C

>  <smiles>  (82) 
[H]OC([H])([H])C1([H])OC([H])(OC23C([H])([H])C([H])([H])C([H])(C([H])([H])C4([H])C5([H])C6(O[H])C([H])([H])C([H])([H])C57C([H])([H])C7([H])C([H])(C([H])([H])C6([H])C([H])([H])[H])C42C([H])([H])[H])C(C([H])([H])[H])(C([H])([H])[H])C3([H])[H])C([H])(O[H])C1([H])O[H]

$$$$
18:0:0
     RDKit          3D

 12 13  0  0  1  0  0  0  0  0999 V2000
    2.5615   -9.0301    1.8482 C   0  0  0  0  0  0  0  0  0  0  0  0
    2.0043  -10.1657    2.4944 C   0  0  0  0  0  0  0  0  0  0  0  0
    0.7662  -10.2230    2.9895 N   0  0  0  0  0  0  0  0  0  0  0  0
    0.1152   -9.0423    2.7926 N   0  0  0  0  0  0  0  0  0  0  0  0
   -1.1501   -8.7143    3.1613 C   0  0  0  0  0  0  0  0  0  0  0  0
   -1.4199   -7.4570    2.8006 N   0  0  0  0  0  0  0  0  0  0  0  0
   -0.3002   -6.9364    2.1600 N   0  0  0  0  0  0  0  0  0  0  0  0
    0.6351   -7.8933    2.1591 C   0  0  0  0  0  0  0  0  0  0  0  0
    1.8929   -7.8917    1.6812 N   0  0  0  0  0  0  0  0  0  0  0  0
    3.5765   -9.0668    1.4658 H   0  0  0  0  0  0  0  0  0  0  0  0
    2.6041  -11.0655    2.5943 H   0  0  0  0  0  0  0  0  0  0  0  0
   -1.8316   -9.3758    3.6804 H   0  0  0  0  0  0  0  0  0  0  0  0
  1  9  2  0
  1  2  1  0
  1 10  1  0
  2  3  2  0
  2 11  1  0
  3  4  1  0
  4  8  1  0
  4  5  1  0
  5  6  2  0
  5 12  1  0
  6  7  1  0
  7  8  2  0
  8  9  1  0
M  END
>  <i_m_ct_stereo_status>  (83) 
1

>  <s_m_source_file>  (83) 
/var/tmp/pbs.5076255.sched01/tmp9d3cgwpa/0mc_8ktg4.sdf

>  <i_m_source_file_index>  (83) 
36

>  <i_lp_mmshare_version>  (83) 
48012

>  <i_f3d_flags>  (83) 
0

>  <s_epik_input>  (83) 
bjFbY0hdW2NIXW5jKG4xMilubltjSF0y

>  <s_epik_cmdline>  (83) 
J2VwaWtfcHl0aG9uJywgJy1waHQnLCAnMi4wJywgJy1waCcsICc3LjAnLCAnLXRuJywgJzgnLCAnLW1hJywgJzIwMCcsICctaW1hZScsICc8aW5maWxlLm1hZT4nLCAnLW9tYWUnLCAnPG91dGZpbGUubWFlPic=

>  <r_lp_tautomer_probability>  (83) 
1

>  <r_epik_Ionization_Penalty>  (83) 
4.91311e-10

>  <r_epik_Ionization_Penalty_Charging>  (83) 
0

>  <r_epik_Ionization_Penalty_Neutral>  (83) 
4.91311e-10

>  <r_epik_State_Penalty>  (83) 
-0

>  <r_epik_Charging_Adjusted_Penalty>  (83) 
0

>  <i_epik_Tot_Q>  (83) 
0

>  <i_epik_Tot_abs_Q>  (83) 
0

>  <s_lp_Force_Field>  (83) 
OPLS3e

>  <r_lp_Energy>  (83) 
15.6361

>  <b_lp_Chiralities_Consistent>  (83) 
1

>  <s_lp_Variant>  (83) 
18:0-1

>  <s_i_glide_gridfile>  (83) 
pfpi4k_grid

>  <i_i_glide_lignum>  (83) 
36

>  <i_i_glide_rotatable_bonds>  (83) 
0

>  <r_i_docking_score>  (83) 
-4.20476

>  <r_i_glide_ligand_efficiency>  (83) 
-0.467195

>  <r_i_glide_ligand_efficiency_sa>  (83) 
-0.971805

>  <r_i_glide_ligand_efficiency_ln>  (83) 
-1.31513

>  <r_i_glide_gscore>  (83) 
-4.20476

>  <r_i_glide_lipo>  (83) 
-0.0868803

>  <r_i_glide_hbond>  (83) 
0

>  <r_i_glide_metal>  (83) 
-0

>  <r_i_glide_rewards>  (83) 
-2.25

>  <r_i_glide_evdw>  (83) 
-15.599

>  <r_i_glide_ecoul>  (83) 
-5.15362

>  <r_i_glide_erotb>  (83) 
0

>  <r_i_glide_esite>  (83) 
-0.31488

>  <r_i_glide_emodel>  (83) 
-27.671

>  <r_i_glide_energy>  (83) 
-20.7527

>  <r_i_glide_einternal>  (83) 
0

>  <r_i_glide_intrahb_reward>  (83) 
-0

>  <i_i_glide_confnum>  (83) 
2

>  <i_i_glide_posenum>  (83) 
17

>  <r_i_glide_eff_state_penalty>  (83) 
0

>  <ligand_id>  (83) 
18

>  <original_smiles>  (83) 
c1cnn2cnnc2n1

>  <smiles>  (83) 
[H]c1nc2nnc([H])n2nc1[H]

$$$$
18:0:1
     RDKit          3D

 12 13  0  0  1  0  0  0  0  0999 V2000
    1.8474   -6.9014    1.2834 C   0  0  0  0  0  0  0  0  0  0  0  0
    2.3429   -8.1242    1.8122 C   0  0  0  0  0  0  0  0  0  0  0  0
    1.6525   -8.9350    2.6170 N   0  0  0  0  0  0  0  0  0  0  0  0
    0.4097   -8.4313    2.8559 N   0  0  0  0  0  0  0  0  0  0  0  0
   -0.5764   -8.9564    3.6256 C   0  0  0  0  0  0  0  0  0  0  0  0
   -1.6433   -8.1508    3.6144 N   0  0  0  0  0  0  0  0  0  0  0  0
   -1.3504   -7.0559    2.8160 N   0  0  0  0  0  0  0  0  0  0  0  0
   -0.1129   -7.2268    2.3471 C   0  0  0  0  0  0  0  0  0  0  0  0
    0.6249   -6.4437    1.5384 N   0  0  0  0  0  0  0  0  0  0  0  0
    2.4730   -6.2982    0.6329 H   0  0  0  0  0  0  0  0  0  0  0  0
    3.3472   -8.4482    1.5581 H   0  0  0  0  0  0  0  0  0  0  0  0
   -0.5141   -9.8860    4.1719 H   0  0  0  0  0  0  0  0  0  0  0  0
  1  9  2  0
  1  2  1  0
  1 10  1  0
  2  3  2  0
  2 11  1  0
  3  4  1  0
  4  8  1  0
  4  5  1  0
  5  6  2  0
  5 12  1  0
  6  7  1  0
  7  8  2  0
  8  9  1  0
M  END
>  <i_m_ct_stereo_status>  (84) 
1

>  <s_m_source_file>  (84) 
/var/tmp/pbs.5076255.sched01/tmp9d3cgwpa/0mc_8ktg4.sdf

>  <i_m_source_file_index>  (84) 
36

>  <i_lp_mmshare_version>  (84) 
48012

>  <i_f3d_flags>  (84) 
0

>  <s_epik_input>  (84) 
bjFbY0hdW2NIXW5jKG4xMilubltjSF0y

>  <s_epik_cmdline>  (84) 
J2VwaWtfcHl0aG9uJywgJy1waHQnLCAnMi4wJywgJy1waCcsICc3LjAnLCAnLXRuJywgJzgnLCAnLW1hJywgJzIwMCcsICctaW1hZScsICc8aW5maWxlLm1hZT4nLCAnLW9tYWUnLCAnPG91dGZpbGUubWFlPic=

>  <r_lp_tautomer_probability>  (84) 
1

>  <r_epik_Ionization_Penalty>  (84) 
4.91311e-10

>  <r_epik_Ionization_Penalty_Charging>  (84) 
0

>  <r_epik_Ionization_Penalty_Neutral>  (84) 
4.91311e-10

>  <r_epik_State_Penalty>  (84) 
-0

>  <r_epik_Charging_Adjusted_Penalty>  (84) 
0

>  <i_epik_Tot_Q>  (84) 
0

>  <i_epik_Tot_abs_Q>  (84) 
0

>  <s_lp_Force_Field>  (84) 
OPLS3e

>  <r_lp_Energy>  (84) 
15.6361

>  <b_lp_Chiralities_Consistent>  (84) 
1

>  <s_lp_Variant>  (84) 
18:0-1

>  <s_i_glide_gridfile>  (84) 
pfpi4k_grid

>  <i_i_glide_lignum>  (84) 
36

>  <i_i_glide_rotatable_bonds>  (84) 
0

>  <r_i_docking_score>  (84) 
-4.13417

>  <r_i_glide_ligand_efficiency>  (84) 
-0.459352

>  <r_i_glide_ligand_efficiency_sa>  (84) 
-0.955491

>  <r_i_glide_ligand_efficiency_ln>  (84) 
-1.29305

>  <r_i_glide_gscore>  (84) 
-4.13417

>  <r_i_glide_lipo>  (84) 
0

>  <r_i_glide_hbond>  (84) 
-0.13784

>  <r_i_glide_metal>  (84) 
-0

>  <r_i_glide_rewards>  (84) 
-2.25

>  <r_i_glide_evdw>  (84) 
-13.3877

>  <r_i_glide_ecoul>  (84) 
-4.76844

>  <r_i_glide_erotb>  (84) 
0

>  <r_i_glide_esite>  (84) 
-0.361678

>  <r_i_glide_emodel>  (84) 
-24.9576

>  <r_i_glide_energy>  (84) 
-18.1561

>  <r_i_glide_einternal>  (84) 
0

>  <r_i_glide_intrahb_reward>  (84) 
-0

>  <i_i_glide_confnum>  (84) 
1

>  <i_i_glide_posenum>  (84) 
4

>  <r_i_glide_eff_state_penalty>  (84) 
0

>  <ligand_id>  (84) 
18

>  <original_smiles>  (84) 
c1cnn2cnnc2n1

>  <smiles>  (84) 
[H]c1nc2nnc([H])n2nc1[H]

$$$$
18:0:2
     RDKit          3D

 12 13  0  0  1  0  0  0  0  0999 V2000
   -1.2993    2.5886    3.3002 C   0  0  0  0  0  0  0  0  0  0  0  0
   -0.4886    1.7510    2.4892 C   0  0  0  0  0  0  0  0  0  0  0  0
   -0.1269    0.5091    2.8132 N   0  0  0  0  0  0  0  0  0  0  0  0
   -0.6546    0.1532    4.0168 N   0  0  0  0  0  0  0  0  0  0  0  0
   -0.5170   -1.0314    4.6650 C   0  0  0  0  0  0  0  0  0  0  0  0
   -1.1888   -1.0017    5.8169 N   0  0  0  0  0  0  0  0  0  0  0  0
   -1.7863    0.2482    5.9411 N   0  0  0  0  0  0  0  0  0  0  0  0
   -1.4652    0.9522    4.8489 C   0  0  0  0  0  0  0  0  0  0  0  0
   -1.7866    2.2059    4.4781 N   0  0  0  0  0  0  0  0  0  0  0  0
   -1.5376    3.5944    2.9699 H   0  0  0  0  0  0  0  0  0  0  0  0
   -0.1156    2.1329    1.5428 H   0  0  0  0  0  0  0  0  0  0  0  0
    0.0492   -1.8766    4.3021 H   0  0  0  0  0  0  0  0  0  0  0  0
  1  9  2  0
  1  2  1  0
  1 10  1  0
  2  3  2  0
  2 11  1  0
  3  4  1  0
  4  8  1  0
  4  5  1  0
  5  6  2  0
  5 12  1  0
  6  7  1  0
  7  8  2  0
  8  9  1  0
M  END
>  <i_m_ct_stereo_status>  (85) 
1

>  <s_m_source_file>  (85) 
/var/tmp/pbs.5076255.sched01/tmp9d3cgwpa/0mc_8ktg4.sdf

>  <i_m_source_file_index>  (85) 
36

>  <i_lp_mmshare_version>  (85) 
48012

>  <i_f3d_flags>  (85) 
0

>  <s_epik_input>  (85) 
bjFbY0hdW2NIXW5jKG4xMilubltjSF0y

>  <s_epik_cmdline>  (85) 
J2VwaWtfcHl0aG9uJywgJy1waHQnLCAnMi4wJywgJy1waCcsICc3LjAnLCAnLXRuJywgJzgnLCAnLW1hJywgJzIwMCcsICctaW1hZScsICc8aW5maWxlLm1hZT4nLCAnLW9tYWUnLCAnPG91dGZpbGUubWFlPic=

>  <r_lp_tautomer_probability>  (85) 
1

>  <r_epik_Ionization_Penalty>  (85) 
4.91311e-10

>  <r_epik_Ionization_Penalty_Charging>  (85) 
0

>  <r_epik_Ionization_Penalty_Neutral>  (85) 
4.91311e-10

>  <r_epik_State_Penalty>  (85) 
-0

>  <r_epik_Charging_Adjusted_Penalty>  (85) 
0

>  <i_epik_Tot_Q>  (85) 
0

>  <i_epik_Tot_abs_Q>  (85) 
0

>  <s_lp_Force_Field>  (85) 
OPLS3e

>  <r_lp_Energy>  (85) 
15.6361

>  <b_lp_Chiralities_Consistent>  (85) 
1

>  <s_lp_Variant>  (85) 
18:0-1

>  <s_i_glide_gridfile>  (85) 
pfpi4k_grid

>  <i_i_glide_lignum>  (85) 
36

>  <i_i_glide_rotatable_bonds>  (85) 
0

>  <r_i_docking_score>  (85) 
-3.94915

>  <r_i_glide_ligand_efficiency>  (85) 
-0.438795

>  <r_i_glide_ligand_efficiency_sa>  (85) 
-0.91273

>  <r_i_glide_ligand_efficiency_ln>  (85) 
-1.23518

>  <r_i_glide_gscore>  (85) 
-3.94915

>  <r_i_glide_lipo>  (85) 
0

>  <r_i_glide_hbond>  (85) 
0

>  <r_i_glide_metal>  (85) 
-0

>  <r_i_glide_rewards>  (85) 
-2.25

>  <r_i_glide_evdw>  (85) 
-12.7334

>  <r_i_glide_ecoul>  (85) 
-5.62038

>  <r_i_glide_erotb>  (85) 
0

>  <r_i_glide_esite>  (85) 
-0.219426

>  <r_i_glide_emodel>  (85) 
-24.851

>  <r_i_glide_energy>  (85) 
-18.3538

>  <r_i_glide_einternal>  (85) 
0

>  <r_i_glide_intrahb_reward>  (85) 
-0

>  <i_i_glide_confnum>  (85) 
2

>  <i_i_glide_posenum>  (85) 
37

>  <r_i_glide_eff_state_penalty>  (85) 
0

>  <ligand_id>  (85) 
18

>  <original_smiles>  (85) 
c1cnn2cnnc2n1

>  <smiles>  (85) 
[H]c1nc2nnc([H])n2nc1[H]

$$$$
19:0:0
     RDKit          3D

 29 31  0  0  1  0  0  0  0  0999 V2000
    6.1415   -2.8532   -1.4742 C   0  0  0  0  0  0  0  0  0  0  0  0
    6.2393   -2.7882    0.0573 C   0  0  0  0  0  0  0  0  0  0  0  0
    5.1679   -1.9950    0.6219 N   0  0  0  0  0  0  0  0  0  0  0  0
    5.1578   -0.6546    0.3946 N   0  0  0  0  0  0  0  0  0  0  0  0
    4.0705   -0.1968    0.9778 C   0  0  0  0  0  0  0  0  0  0  0  0
    3.3253   -1.2360    1.6168 C   0  0  0  0  0  0  0  0  0  0  0  0
    2.1373   -1.4209    2.3725 C   0  0  0  0  0  0  0  0  0  0  0  0
    1.2924   -0.3589    2.7492 N   0  0  0  0  0  0  0  0  0  0  0  0
    0.2416   -0.3436    3.6929 C   0  0  0  0  0  0  0  0  0  0  0  0
   -0.6018    0.7894    3.7920 C   0  0  0  0  0  0  0  0  0  0  0  0
   -1.6220    0.7783    4.7670 C   0  0  0  0  0  0  0  0  0  0  0  0
   -1.8315   -0.2674    5.5957 N   0  0  0  0  0  0  0  0  0  0  0  0
   -1.0545   -1.3532    5.5013 N   0  0  0  0  0  0  0  0  0  0  0  0
   -0.0450   -1.4020    4.5994 C   0  0  0  0  0  0  0  0  0  0  0  0
    1.8401   -2.6671    2.7859 N   0  0  0  0  0  0  0  0  0  0  0  0
    2.6572   -3.6761    2.5073 C   0  0  0  0  0  0  0  0  0  0  0  0
    3.8025   -3.6612    1.8315 N   0  0  0  0  0  0  0  0  0  0  0  0
    4.0936   -2.4107    1.3864 C   0  0  0  0  0  0  0  0  0  0  0  0
    6.9461   -3.4582   -1.8871 H   0  0  0  0  0  0  0  0  0  0  0  0
    6.2059   -1.8562   -1.9090 H   0  0  0  0  0  0  0  0  0  0  0  0
    5.1902   -3.2926   -1.7777 H   0  0  0  0  0  0  0  0  0  0  0  0
    6.1836   -3.7949    0.4833 H   0  0  0  0  0  0  0  0  0  0  0  0
    7.1895   -2.3557    0.3800 H   0  0  0  0  0  0  0  0  0  0  0  0
    3.8314    0.8508    0.9166 H   0  0  0  0  0  0  0  0  0  0  0  0
   -0.4837    1.6578    3.1621 H   0  0  0  0  0  0  0  0  0  0  0  0
   -2.2853    1.6147    4.9127 H   0  0  0  0  0  0  0  0  0  0  0  0
    0.5294   -2.3099    4.6673 H   0  0  0  0  0  0  0  0  0  0  0  0
    2.3847   -4.6338    2.9266 H   0  0  0  0  0  0  0  0  0  0  0  0
    1.4862    0.5166    2.2804 H   0  0  0  0  0  0  0  0  0  0  0  0
  1  2  1  0
  1 19  1  0
  1 20  1  0
  1 21  1  0
  2  3  1  0
  2 22  1  0
  2 23  1  0
  3 18  1  0
  3  4  1  0
  4  5  2  0
  5  6  1  0
  5 24  1  0
  6 18  2  0
  6  7  1  0
  7  8  1  0
  7 15  2  0
  8  9  1  0
  8 29  1  0
  9 14  1  0
  9 10  2  0
 10 11  1  0
 10 25  1  0
 11 12  2  0
 11 26  1  0
 12 13  1  0
 13 14  2  0
 14 27  1  0
 15 16  1  0
 16 17  2  0
 16 28  1  0
 17 18  1  0
M  END
>  <i_m_ct_stereo_status>  (86) 
1

>  <s_m_source_file>  (86) 
/var/tmp/pbs.5076255.sched01/tmp9d3cgwpa/0mc_8ktg4.sdf

>  <i_m_source_file_index>  (86) 
37

>  <i_lp_mmshare_version>  (86) 
48012

>  <i_f3d_flags>  (86) 
0

>  <s_epik_input>  (86) 
W0NIM11bQ0gyXW4obltjSF0xKWMoYzEyKW5bY0hdW25IXWNcMj1OL2MzW2NIXVtjSF1ubltjSF0z

>  <s_epik_cmdline>  (86) 
J2VwaWtfcHl0aG9uJywgJy1waHQnLCAnMi4wJywgJy1waCcsICc3LjAnLCAnLXRuJywgJzgnLCAnLW1hJywgJzIwMCcsICctaW1hZScsICc8aW5maWxlLm1hZT4nLCAnLW9tYWUnLCAnPG91dGZpbGUubWFlPic=

>  <r_lp_tautomer_probability>  (86) 
0.999997

>  <r_epik_Ionization_Penalty>  (86) 
0.0879076

>  <r_epik_Ionization_Penalty_Charging>  (86) 
0

>  <r_epik_Ionization_Penalty_Neutral>  (86) 
0.0879076

>  <r_epik_State_Penalty>  (86) 
0.0774917

>  <r_epik_Charging_Adjusted_Penalty>  (86) 
0.0774917

>  <i_epik_Tot_Q>  (86) 
0

>  <i_epik_Tot_abs_Q>  (86) 
0

>  <s_lp_Force_Field>  (86) 
OPLS3e

>  <r_lp_Energy>  (86) 
28.5813

>  <b_lp_Chiralities_Consistent>  (86) 
1

>  <s_lp_Variant>  (86) 
19:0-1

>  <s_i_glide_gridfile>  (86) 
pfpi4k_grid

>  <i_i_glide_lignum>  (86) 
37

>  <i_i_glide_rotatable_bonds>  (86) 
3

>  <r_i_docking_score>  (86) 
-2.88784

>  <r_i_glide_ligand_efficiency>  (86) 
-0.160436

>  <r_i_glide_ligand_efficiency_sa>  (86) 
-0.42046

>  <r_i_glide_ligand_efficiency_ln>  (86) 
-0.742304

>  <r_i_glide_gscore>  (86) 
-2.88784

>  <r_i_glide_lipo>  (86) 
-0.144569

>  <r_i_glide_hbond>  (86) 
0

>  <r_i_glide_metal>  (86) 
-0

>  <r_i_glide_rewards>  (86) 
-1.82698

>  <r_i_glide_evdw>  (86) 
-21.0377

>  <r_i_glide_ecoul>  (86) 
-2.03363

>  <r_i_glide_erotb>  (86) 
0.595182

>  <r_i_glide_esite>  (86) 
-0.154544

>  <r_i_glide_emodel>  (86) 
-26.9248

>  <r_i_glide_energy>  (86) 
-23.0713

>  <r_i_glide_einternal>  (86) 
1.29162

>  <r_i_glide_intrahb_reward>  (86) 
-0

>  <i_i_glide_confnum>  (86) 
4

>  <i_i_glide_posenum>  (86) 
36

>  <r_i_glide_eff_state_penalty>  (86) 
0

>  <ligand_id>  (86) 
19

>  <original_smiles>  (86) 
CCn1ncc2c(=Nc3ccnnc3)[nH]cnc21

>  <smiles>  (86) 
[H]c1nc(N([H])c2c([H])nnc([H])c2[H])c2c([H])nn(C([H])([H])C([H])([H])[H])c2n1

$$$$
19:0:1
     RDKit          3D

 29 31  0  0  1  0  0  0  0  0999 V2000
   -0.5600   -5.3487    6.0578 C   0  0  0  0  0  0  0  0  0  0  0  0
    0.5317   -4.2862    6.2373 C   0  0  0  0  0  0  0  0  0  0  0  0
    0.1592   -3.0424    5.5817 N   0  0  0  0  0  0  0  0  0  0  0  0
   -0.9032   -2.3518    6.0718 N   0  0  0  0  0  0  0  0  0  0  0  0
   -1.0235   -1.2873    5.3196 C   0  0  0  0  0  0  0  0  0  0  0  0
    0.0105   -1.2053    4.3348 C   0  0  0  0  0  0  0  0  0  0  0  0
    0.4698   -0.3447    3.2972 C   0  0  0  0  0  0  0  0  0  0  0  0
   -0.0879    0.8923    2.9558 N   0  0  0  0  0  0  0  0  0  0  0  0
   -0.7747    1.8253    3.7523 C   0  0  0  0  0  0  0  0  0  0  0  0
   -0.8069    1.7804    5.1643 C   0  0  0  0  0  0  0  0  0  0  0  0
   -1.5761    2.7484    5.8318 C   0  0  0  0  0  0  0  0  0  0  0  0
   -2.2086    3.7430    5.1824 N   0  0  0  0  0  0  0  0  0  0  0  0
   -2.1268    3.8445    3.8495 N   0  0  0  0  0  0  0  0  0  0  0  0
   -1.4409    2.9156    3.1472 C   0  0  0  0  0  0  0  0  0  0  0  0
    1.5037   -0.7544    2.5288 N   0  0  0  0  0  0  0  0  0  0  0  0
    2.0908   -1.9239    2.7879 C   0  0  0  0  0  0  0  0  0  0  0  0
    1.8126   -2.8065    3.7483 N   0  0  0  0  0  0  0  0  0  0  0  0
    0.7521   -2.4007    4.5012 C   0  0  0  0  0  0  0  0  0  0  0  0
   -0.2710   -6.2711    6.5568 H   0  0  0  0  0  0  0  0  0  0  0  0
   -0.7118   -5.5742    5.0016 H   0  0  0  0  0  0  0  0  0  0  0  0
   -1.5124   -5.0268    6.4796 H   0  0  0  0  0  0  0  0  0  0  0  0
    0.6945   -4.0762    7.2997 H   0  0  0  0  0  0  0  0  0  0  0  0
    1.4827   -4.6300    5.8192 H   0  0  0  0  0  0  0  0  0  0  0  0
   -1.8421   -0.6069    5.5115 H   0  0  0  0  0  0  0  0  0  0  0  0
   -0.2689    1.0437    5.7458 H   0  0  0  0  0  0  0  0  0  0  0  0
   -1.6766    2.7181    6.9058 H   0  0  0  0  0  0  0  0  0  0  0  0
   -1.4163    3.0530    2.0799 H   0  0  0  0  0  0  0  0  0  0  0  0
    2.9071   -2.1859    2.1213 H   0  0  0  0  0  0  0  0  0  0  0  0
    0.1613    1.2107    2.0292 H   0  0  0  0  0  0  0  0  0  0  0  0
  1  2  1  0
  1 19  1  0
  1 20  1  0
  1 21  1  0
  2  3  1  0
  2 22  1  0
  2 23  1  0
  3 18  1  0
  3  4  1  0
  4  5  2  0
  5  6  1  0
  5 24  1  0
  6 18  2  0
  6  7  1  0
  7  8  1  0
  7 15  2  0
  8  9  1  0
  8 29  1  0
  9 14  1  0
  9 10  2  0
 10 11  1  0
 10 25  1  0
 11 12  2  0
 11 26  1  0
 12 13  1  0
 13 14  2  0
 14 27  1  0
 15 16  1  0
 16 17  2  0
 16 28  1  0
 17 18  1  0
M  END
>  <i_m_ct_stereo_status>  (87) 
1

>  <s_m_source_file>  (87) 
/var/tmp/pbs.5076255.sched01/tmp9d3cgwpa/0mc_8ktg4.sdf

>  <i_m_source_file_index>  (87) 
37

>  <i_lp_mmshare_version>  (87) 
48012

>  <i_f3d_flags>  (87) 
0

>  <s_epik_input>  (87) 
W0NIM11bQ0gyXW4obltjSF0xKWMoYzEyKW5bY0hdW25IXWNcMj1OL2MzW2NIXVtjSF1ubltjSF0z

>  <s_epik_cmdline>  (87) 
J2VwaWtfcHl0aG9uJywgJy1waHQnLCAnMi4wJywgJy1waCcsICc3LjAnLCAnLXRuJywgJzgnLCAnLW1hJywgJzIwMCcsICctaW1hZScsICc8aW5maWxlLm1hZT4nLCAnLW9tYWUnLCAnPG91dGZpbGUubWFlPic=

>  <r_lp_tautomer_probability>  (87) 
0.999997

>  <r_epik_Ionization_Penalty>  (87) 
0.0879076

>  <r_epik_Ionization_Penalty_Charging>  (87) 
0

>  <r_epik_Ionization_Penalty_Neutral>  (87) 
0.0879076

>  <r_epik_State_Penalty>  (87) 
0.0774917

>  <r_epik_Charging_Adjusted_Penalty>  (87) 
0.0774917

>  <i_epik_Tot_Q>  (87) 
0

>  <i_epik_Tot_abs_Q>  (87) 
0

>  <s_lp_Force_Field>  (87) 
OPLS3e

>  <r_lp_Energy>  (87) 
28.5813

>  <b_lp_Chiralities_Consistent>  (87) 
1

>  <s_lp_Variant>  (87) 
19:0-1

>  <s_i_glide_gridfile>  (87) 
pfpi4k_grid

>  <i_i_glide_lignum>  (87) 
37

>  <i_i_glide_rotatable_bonds>  (87) 
3

>  <r_i_docking_score>  (87) 
-2.85883

>  <r_i_glide_ligand_efficiency>  (87) 
-0.158824

>  <r_i_glide_ligand_efficiency_sa>  (87) 
-0.416236

>  <r_i_glide_ligand_efficiency_ln>  (87) 
-0.734847

>  <r_i_glide_gscore>  (87) 
-2.85883

>  <r_i_glide_lipo>  (87) 
-0.0823795

>  <r_i_glide_hbond>  (87) 
0

>  <r_i_glide_metal>  (87) 
-0

>  <r_i_glide_rewards>  (87) 
-1.80079

>  <r_i_glide_evdw>  (87) 
-19.4021

>  <r_i_glide_ecoul>  (87) 
-2.98601

>  <r_i_glide_erotb>  (87) 
0.595182

>  <r_i_glide_esite>  (87) 
-0.152838

>  <r_i_glide_emodel>  (87) 
-26.9248

>  <r_i_glide_energy>  (87) 
-22.3881

>  <r_i_glide_einternal>  (87) 
0.288755

>  <r_i_glide_intrahb_reward>  (87) 
-0

>  <i_i_glide_confnum>  (87) 
3

>  <i_i_glide_posenum>  (87) 
11

>  <r_i_glide_eff_state_penalty>  (87) 
0

>  <ligand_id>  (87) 
19

>  <original_smiles>  (87) 
CCn1ncc2c(=Nc3ccnnc3)[nH]cnc21

>  <smiles>  (87) 
[H]c1nc(N([H])c2c([H])nnc([H])c2[H])c2c([H])nn(C([H])([H])C([H])([H])[H])c2n1

$$$$
19:0:2
     RDKit          3D

 29 31  0  0  1  0  0  0  0  0999 V2000
    1.1976   -4.1023    7.4747 C   0  0  0  0  0  0  0  0  0  0  0  0
    0.3515   -4.3290    6.2152 C   0  0  0  0  0  0  0  0  0  0  0  0
    0.0232   -3.0706    5.5714 N   0  0  0  0  0  0  0  0  0  0  0  0
   -1.0178   -2.3489    6.0635 N   0  0  0  0  0  0  0  0  0  0  0  0
   -1.0967   -1.2724    5.3204 C   0  0  0  0  0  0  0  0  0  0  0  0
   -0.0619   -1.2219    4.3323 C   0  0  0  0  0  0  0  0  0  0  0  0
    0.4297   -0.3717    3.3018 C   0  0  0  0  0  0  0  0  0  0  0  0
   -0.0790    0.8884    2.9683 N   0  0  0  0  0  0  0  0  0  0  0  0
   -0.7691    1.8209    3.7612 C   0  0  0  0  0  0  0  0  0  0  0  0
   -0.8095    1.7759    5.1676 C   0  0  0  0  0  0  0  0  0  0  0  0
   -1.5752    2.7462    5.8327 C   0  0  0  0  0  0  0  0  0  0  0  0
   -2.2037    3.7439    5.1764 N   0  0  0  0  0  0  0  0  0  0  0  0
   -2.1213    3.8440    3.8491 N   0  0  0  0  0  0  0  0  0  0  0  0
   -1.4336    2.9119    3.1480 C   0  0  0  0  0  0  0  0  0  0  0  0
    1.4482   -0.8177    2.5304 N   0  0  0  0  0  0  0  0  0  0  0  0
    1.9875   -2.0107    2.7797 C   0  0  0  0  0  0  0  0  0  0  0  0
    1.6709   -2.8883    3.7328 N   0  0  0  0  0  0  0  0  0  0  0  0
    0.6294   -2.4479    4.4902 C   0  0  0  0  0  0  0  0  0  0  0  0
    1.4395   -5.0566    7.9423 H   0  0  0  0  0  0  0  0  0  0  0  0
    0.6661   -3.4912    8.2070 H   0  0  0  0  0  0  0  0  0  0  0  0
    2.1320   -3.5976    7.2255 H   0  0  0  0  0  0  0  0  0  0  0  0
    0.8774   -4.9556    5.4922 H   0  0  0  0  0  0  0  0  0  0  0  0
   -0.5878   -4.8279    6.4646 H   0  0  0  0  0  0  0  0  0  0  0  0
   -1.8879   -0.5592    5.5189 H   0  0  0  0  0  0  0  0  0  0  0  0
   -0.2794    1.0317    5.7472 H   0  0  0  0  0  0  0  0  0  0  0  0
   -1.6835    2.7182    6.9057 H   0  0  0  0  0  0  0  0  0  0  0  0
   -1.4083    3.0451    2.0785 H   0  0  0  0  0  0  0  0  0  0  0  0
    2.7926   -2.3020    2.1113 H   0  0  0  0  0  0  0  0  0  0  0  0
    0.1973    1.2105    2.0522 H   0  0  0  0  0  0  0  0  0  0  0  0
  1  2  1  0
  1 19  1  0
  1 20  1  0
  1 21  1  0
  2  3  1  0
  2 22  1  0
  2 23  1  0
  3 18  1  0
  3  4  1  0
  4  5  2  0
  5  6  1  0
  5 24  1  0
  6 18  2  0
  6  7  1  0
  7  8  1  0
  7 15  2  0
  8  9  1  0
  8 29  1  0
  9 14  1  0
  9 10  2  0
 10 11  1  0
 10 25  1  0
 11 12  2  0
 11 26  1  0
 12 13  1  0
 13 14  2  0
 14 27  1  0
 15 16  1  0
 16 17  2  0
 16 28  1  0
 17 18  1  0
M  END
>  <i_m_ct_stereo_status>  (88) 
1

>  <s_m_source_file>  (88) 
/var/tmp/pbs.5076255.sched01/tmp9d3cgwpa/0mc_8ktg4.sdf

>  <i_m_source_file_index>  (88) 
37

>  <i_lp_mmshare_version>  (88) 
48012

>  <i_f3d_flags>  (88) 
0

>  <s_epik_input>  (88) 
W0NIM11bQ0gyXW4obltjSF0xKWMoYzEyKW5bY0hdW25IXWNcMj1OL2MzW2NIXVtjSF1ubltjSF0z

>  <s_epik_cmdline>  (88) 
J2VwaWtfcHl0aG9uJywgJy1waHQnLCAnMi4wJywgJy1waCcsICc3LjAnLCAnLXRuJywgJzgnLCAnLW1hJywgJzIwMCcsICctaW1hZScsICc8aW5maWxlLm1hZT4nLCAnLW9tYWUnLCAnPG91dGZpbGUubWFlPic=

>  <r_lp_tautomer_probability>  (88) 
0.999997

>  <r_epik_Ionization_Penalty>  (88) 
0.0879076

>  <r_epik_Ionization_Penalty_Charging>  (88) 
0

>  <r_epik_Ionization_Penalty_Neutral>  (88) 
0.0879076

>  <r_epik_State_Penalty>  (88) 
0.0774917

>  <r_epik_Charging_Adjusted_Penalty>  (88) 
0.0774917

>  <i_epik_Tot_Q>  (88) 
0

>  <i_epik_Tot_abs_Q>  (88) 
0

>  <s_lp_Force_Field>  (88) 
OPLS3e

>  <r_lp_Energy>  (88) 
28.5813

>  <b_lp_Chiralities_Consistent>  (88) 
1

>  <s_lp_Variant>  (88) 
19:0-1

>  <s_i_glide_gridfile>  (88) 
pfpi4k_grid

>  <i_i_glide_lignum>  (88) 
37

>  <i_i_glide_rotatable_bonds>  (88) 
3

>  <r_i_docking_score>  (88) 
-2.81071

>  <r_i_glide_ligand_efficiency>  (88) 
-0.156151

>  <r_i_glide_ligand_efficiency_sa>  (88) 
-0.409231

>  <r_i_glide_ligand_efficiency_ln>  (88) 
-0.722479

>  <r_i_glide_gscore>  (88) 
-2.81071

>  <r_i_glide_lipo>  (88) 
-0.0361596

>  <r_i_glide_hbond>  (88) 
0

>  <r_i_glide_metal>  (88) 
-0

>  <r_i_glide_rewards>  (88) 
-1.81246

>  <r_i_glide_evdw>  (88) 
-18.6591

>  <r_i_glide_ecoul>  (88) 
-3.14389

>  <r_i_glide_erotb>  (88) 
0.595182

>  <r_i_glide_esite>  (88) 
-0.152732

>  <r_i_glide_emodel>  (88) 
-26.3115

>  <r_i_glide_energy>  (88) 
-21.803

>  <r_i_glide_einternal>  (88) 
0.232022

>  <r_i_glide_intrahb_reward>  (88) 
-0

>  <i_i_glide_confnum>  (88) 
3

>  <i_i_glide_posenum>  (88) 
39

>  <r_i_glide_eff_state_penalty>  (88) 
0

>  <ligand_id>  (88) 
19

>  <original_smiles>  (88) 
CCn1ncc2c(=Nc3ccnnc3)[nH]cnc21

>  <smiles>  (88) 
[H]c1nc(N([H])c2c([H])nnc([H])c2[H])c2c([H])nn(C([H])([H])C([H])([H])[H])c2n1

$$$$
19:1:0
     RDKit          3D

 30 32  0  0  1  0  0  0  0  0999 V2000
   -2.3133    2.3894    8.8585 C   0  0  0  0  0  0  0  0  0  0  0  0
   -3.0164    2.7657    7.5500 C   0  0  0  0  0  0  0  0  0  0  0  0
   -2.1357    2.5992    6.4082 N   0  0  0  0  0  0  0  0  0  0  0  0
   -1.5573    3.6967    5.8397 N   0  0  0  0  0  0  0  0  0  0  0  0
   -0.7930    3.2422    4.8726 C   0  0  0  0  0  0  0  0  0  0  0  0
   -0.8696    1.8146    4.7623 C   0  0  0  0  0  0  0  0  0  0  0  0
   -0.3275    0.7636    3.9851 C   0  0  0  0  0  0  0  0  0  0  0  0
    0.5792    0.9854    2.9396 N   0  0  0  0  0  0  0  0  0  0  0  0
    1.5120    0.0885    2.3705 C   0  0  0  0  0  0  0  0  0  0  0  0
    2.6246    0.6173    1.6866 C   0  0  0  0  0  0  0  0  0  0  0  0
    3.5692   -0.2676    1.1320 C   0  0  0  0  0  0  0  0  0  0  0  0
    3.4053   -1.6052    1.2509 N   0  0  0  0  0  0  0  0  0  0  0  0
    2.3722   -2.1605    1.8986 N   0  0  0  0  0  0  0  0  0  0  0  0
    1.4483   -1.3279    2.4340 C   0  0  0  0  0  0  0  0  0  0  0  0
   -0.6762   -0.5014    4.3029 N   0  0  0  0  0  0  0  0  0  0  0  0
   -1.5330   -0.7326    5.2923 C   0  0  0  0  0  0  0  0  0  0  0  0
   -2.1332    0.1400    6.0966 N   0  0  0  0  0  0  0  0  0  0  0  0
   -1.7597    1.4173    5.7897 C   0  0  0  0  0  0  0  0  0  0  0  0
   -2.9798    2.5256    9.7118 H   0  0  0  0  0  0  0  0  0  0  0  0
   -1.4343    3.0147    9.0130 H   0  0  0  0  0  0  0  0  0  0  0  0
   -1.9886    1.3487    8.8464 H   0  0  0  0  0  0  0  0  0  0  0  0
   -3.8924    2.1396    7.3858 H   0  0  0  0  0  0  0  0  0  0  0  0
   -3.3618    3.7977    7.5896 H   0  0  0  0  0  0  0  0  0  0  0  0
   -0.1985    3.9301    4.2920 H   0  0  0  0  0  0  0  0  0  0  0  0
    2.7659    1.6859    1.5980 H   0  0  0  0  0  0  0  0  0  0  0  0
    4.4484    0.0468    0.5914 H   0  0  0  0  0  0  0  0  0  0  0  0
    0.6424   -1.8659    2.8931 H   0  0  0  0  0  0  0  0  0  0  0  0
   -1.7321   -1.7752    5.4890 H   0  0  0  0  0  0  0  0  0  0  0  0
    0.6595    1.9560    2.6566 H   0  0  0  0  0  0  0  0  0  0  0  0
    4.0979   -2.2283    0.8332 H   0  0  0  0  0  0  0  0  0  0  0  0
  1  2  1  0
  1 19  1  0
  1 20  1  0
  1 21  1  0
  2  3  1  0
  2 22  1  0
  2 23  1  0
  3 18  1  0
  3  4  1  0
  4  5  2  0
  5  6  1  0
  5 24  1  0
  6 18  2  0
  6  7  1  0
  7  8  1  0
  7 15  2  0
  8  9  1  0
  8 29  1  0
  9 14  1  0
  9 10  2  0
 10 11  1  0
 10 25  1  0
 11 12  2  0
 11 26  1  0
 12 13  1  0
 12 30  1  0
 13 14  2  0
 14 27  1  0
 15 16  1  0
 16 17  2  0
 16 28  1  0
 17 18  1  0
M  CHG  1  12   1
M  END
>  <i_m_ct_stereo_status>  (89) 
1

>  <s_m_source_file>  (89) 
/var/tmp/pbs.5076255.sched01/tmp9d3cgwpa/0mc_8ktg4.sdf

>  <i_m_source_file_index>  (89) 
38

>  <i_lp_mmshare_version>  (89) 
48012

>  <i_f3d_flags>  (89) 
0

>  <s_epik_input>  (89) 
W0NIM11bQ0gyXW4obltjSF0xKWMoYzEyKW5bY0hdW25IXWNcMj1OL2MzW2NIXVtjSF1ubltjSF0z

>  <s_epik_cmdline>  (89) 
J2VwaWtfcHl0aG9uJywgJy1waHQnLCAnMi4wJywgJy1waCcsICc3LjAnLCAnLXRuJywgJzgnLCAnLW1hJywgJzIwMCcsICctaW1hZScsICc8aW5maWxlLm1hZT4nLCAnLW9tYWUnLCAnPG91dGZpbGUubWFlPic=

>  <r_lp_tautomer_probability>  (89) 
0.999768

>  <r_epik_Ionization_Penalty>  (89) 
1.17978

>  <r_epik_Ionization_Penalty_Charging>  (89) 
1.17972

>  <r_epik_Ionization_Penalty_Neutral>  (89) 
5.60133e-05

>  <r_epik_State_Penalty>  (89) 
1.24353

>  <r_epik_Charging_Adjusted_Penalty>  (89) 
2.42325

>  <i_epik_Tot_Q>  (89) 
1

>  <i_epik_Tot_abs_Q>  (89) 
1

>  <s_lp_Force_Field>  (89) 
OPLS3e

>  <r_lp_Energy>  (89) 
34.4357

>  <b_lp_Chiralities_Consistent>  (89) 
1

>  <s_lp_Variant>  (89) 
19:0-2

>  <s_i_glide_gridfile>  (89) 
pfpi4k_grid

>  <i_i_glide_lignum>  (89) 
38

>  <i_i_glide_rotatable_bonds>  (89) 
3

>  <r_i_docking_score>  (89) 
-3.82461

>  <r_i_glide_ligand_efficiency>  (89) 
-0.212478

>  <r_i_glide_ligand_efficiency_sa>  (89) 
-0.556851

>  <r_i_glide_ligand_efficiency_ln>  (89) 
-0.983097

>  <r_i_glide_gscore>  (89) 
-3.82461

>  <r_i_glide_lipo>  (89) 
-0.184031

>  <r_i_glide_hbond>  (89) 
-0.16

>  <r_i_glide_metal>  (89) 
-0

>  <r_i_glide_rewards>  (89) 
-1.89236

>  <r_i_glide_evdw>  (89) 
-20.1508

>  <r_i_glide_ecoul>  (89) 
-6.85076

>  <r_i_glide_erotb>  (89) 
0.590961

>  <r_i_glide_esite>  (89) 
-0.14403

>  <r_i_glide_emodel>  (89) 
-33.5667

>  <r_i_glide_energy>  (89) 
-27.0016

>  <r_i_glide_einternal>  (89) 
1.43548

>  <r_i_glide_intrahb_reward>  (89) 
-0

>  <i_i_glide_confnum>  (89) 
6

>  <i_i_glide_posenum>  (89) 
40

>  <r_i_glide_eff_state_penalty>  (89) 
0

>  <ligand_id>  (89) 
19

>  <original_smiles>  (89) 
CCn1ncc2c(=Nc3ccnnc3)[nH]cnc21

>  <smiles>  (89) 
[H]c1nc(N([H])c2c([H])n[n+]([H])c([H])c2[H])c2c([H])nn(C([H])([H])C([H])([H])[H])c2n1

$$$$
19:1:1
     RDKit          3D

 30 32  0  0  1  0  0  0  0  0999 V2000
   -2.1632    3.5512    7.7018 C   0  0  0  0  0  0  0  0  0  0  0  0
   -2.9227    2.7693    6.6251 C   0  0  0  0  0  0  0  0  0  0  0  0
   -2.0533    2.4173    5.5197 N   0  0  0  0  0  0  0  0  0  0  0  0
   -1.7743    3.3672    4.5728 N   0  0  0  0  0  0  0  0  0  0  0  0
   -0.9499    2.7849    3.7282 C   0  0  0  0  0  0  0  0  0  0  0  0
   -0.6816    1.4258    4.1017 C   0  0  0  0  0  0  0  0  0  0  0  0
    0.0903    0.3255    3.6516 C   0  0  0  0  0  0  0  0  0  0  0  0
    0.8853    0.3796    2.4961 N   0  0  0  0  0  0  0  0  0  0  0  0
    1.8924   -0.5295    2.0804 C   0  0  0  0  0  0  0  0  0  0  0  0
    1.9264   -1.9012    2.4064 C   0  0  0  0  0  0  0  0  0  0  0  0
    3.0033   -2.6901    1.9754 C   0  0  0  0  0  0  0  0  0  0  0  0
    3.9961   -2.1569    1.2283 N   0  0  0  0  0  0  0  0  0  0  0  0
    3.9993   -0.8606    0.8735 N   0  0  0  0  0  0  0  0  0  0  0  0
    2.9725   -0.0749    1.2799 C   0  0  0  0  0  0  0  0  0  0  0  0
    0.0451   -0.7951    4.4076 N   0  0  0  0  0  0  0  0  0  0  0  0
   -0.7111   -0.8746    5.4992 C   0  0  0  0  0  0  0  0  0  0  0  0
   -1.5035    0.0470    6.0313 N   0  0  0  0  0  0  0  0  0  0  0  0
   -1.4312    1.1977    5.2810 C   0  0  0  0  0  0  0  0  0  0  0  0
   -2.8185    3.8123    8.5301 H   0  0  0  0  0  0  0  0  0  0  0  0
   -1.7498    4.4699    7.2879 H   0  0  0  0  0  0  0  0  0  0  0  0
   -1.3357    2.9598    8.0959 H   0  0  0  0  0  0  0  0  0  0  0  0
   -3.3373    1.8531    7.0541 H   0  0  0  0  0  0  0  0  0  0  0  0
   -3.7612    3.3398    6.2261 H   0  0  0  0  0  0  0  0  0  0  0  0
   -0.5498    3.3411    2.8970 H   0  0  0  0  0  0  0  0  0  0  0  0
    1.1519   -2.4156    2.9592 H   0  0  0  0  0  0  0  0  0  0  0  0
    3.0824   -3.7391    2.1986 H   0  0  0  0  0  0  0  0  0  0  0  0
    3.0343    0.9550    0.9790 H   0  0  0  0  0  0  0  0  0  0  0  0
   -0.6618   -1.8131    6.0084 H   0  0  0  0  0  0  0  0  0  0  0  0
    0.7869    1.2293    1.9433 H   0  0  0  0  0  0  0  0  0  0  0  0
    4.7466   -2.7792    0.9202 H   0  0  0  0  0  0  0  0  0  0  0  0
  1  2  1  0
  1 19  1  0
  1 20  1  0
  1 21  1  0
  2  3  1  0
  2 22  1  0
  2 23  1  0
  3 18  1  0
  3  4  1  0
  4  5  2  0
  5  6  1  0
  5 24  1  0
  6 18  2  0
  6  7  1  0
  7  8  1  0
  7 15  2  0
  8  9  1  0
  8 29  1  0
  9 14  1  0
  9 10  2  0
 10 11  1  0
 10 25  1  0
 11 12  2  0
 11 26  1  0
 12 13  1  0
 12 30  1  0
 13 14  2  0
 14 27  1  0
 15 16  1  0
 16 17  2  0
 16 28  1  0
 17 18  1  0
M  CHG  1  12   1
M  END
>  <i_m_ct_stereo_status>  (90) 
1

>  <s_m_source_file>  (90) 
/var/tmp/pbs.5076255.sched01/tmp9d3cgwpa/0mc_8ktg4.sdf

>  <i_m_source_file_index>  (90) 
38

>  <i_lp_mmshare_version>  (90) 
48012

>  <i_f3d_flags>  (90) 
0

>  <s_epik_input>  (90) 
W0NIM11bQ0gyXW4obltjSF0xKWMoYzEyKW5bY0hdW25IXWNcMj1OL2MzW2NIXVtjSF1ubltjSF0z

>  <s_epik_cmdline>  (90) 
J2VwaWtfcHl0aG9uJywgJy1waHQnLCAnMi4wJywgJy1waCcsICc3LjAnLCAnLXRuJywgJzgnLCAnLW1hJywgJzIwMCcsICctaW1hZScsICc8aW5maWxlLm1hZT4nLCAnLW9tYWUnLCAnPG91dGZpbGUubWFlPic=

>  <r_lp_tautomer_probability>  (90) 
0.999768

>  <r_epik_Ionization_Penalty>  (90) 
1.17978

>  <r_epik_Ionization_Penalty_Charging>  (90) 
1.17972

>  <r_epik_Ionization_Penalty_Neutral>  (90) 
5.60133e-05

>  <r_epik_State_Penalty>  (90) 
1.24353

>  <r_epik_Charging_Adjusted_Penalty>  (90) 
2.42325

>  <i_epik_Tot_Q>  (90) 
1

>  <i_epik_Tot_abs_Q>  (90) 
1

>  <s_lp_Force_Field>  (90) 
OPLS3e

>  <r_lp_Energy>  (90) 
34.4357

>  <b_lp_Chiralities_Consistent>  (90) 
1

>  <s_lp_Variant>  (90) 
19:0-2

>  <s_i_glide_gridfile>  (90) 
pfpi4k_grid

>  <i_i_glide_lignum>  (90) 
38

>  <i_i_glide_rotatable_bonds>  (90) 
3

>  <r_i_docking_score>  (90) 
-3.65447

>  <r_i_glide_ligand_efficiency>  (90) 
-0.203026

>  <r_i_glide_ligand_efficiency_sa>  (90) 
-0.532079

>  <r_i_glide_ligand_efficiency_ln>  (90) 
-0.939363

>  <r_i_glide_gscore>  (90) 
-3.65447

>  <r_i_glide_lipo>  (90) 
-0.255627

>  <r_i_glide_hbond>  (90) 
-0.0957531

>  <r_i_glide_metal>  (90) 
-0

>  <r_i_glide_rewards>  (90) 
-1.79352

>  <r_i_glide_evdw>  (90) 
-20.9097

>  <r_i_glide_ecoul>  (90) 
-6.34876

>  <r_i_glide_erotb>  (90) 
0.590961

>  <r_i_glide_esite>  (90) 
-0.102736

>  <r_i_glide_emodel>  (90) 
-32.8493

>  <r_i_glide_energy>  (90) 
-27.2584

>  <r_i_glide_einternal>  (90) 
2.47633

>  <r_i_glide_intrahb_reward>  (90) 
-0

>  <i_i_glide_confnum>  (90) 
3

>  <i_i_glide_posenum>  (90) 
27

>  <r_i_glide_eff_state_penalty>  (90) 
0

>  <ligand_id>  (90) 
19

>  <original_smiles>  (90) 
CCn1ncc2c(=Nc3ccnnc3)[nH]cnc21

>  <smiles>  (90) 
[H]c1nc(N([H])c2c([H])n[n+]([H])c([H])c2[H])c2c([H])nn(C([H])([H])C([H])([H])[H])c2n1

$$$$
19:1:2
     RDKit          3D

 30 32  0  0  1  0  0  0  0  0999 V2000
   -2.1750    3.4676    8.0389 C   0  0  0  0  0  0  0  0  0  0  0  0
   -2.9184    2.7350    6.9157 C   0  0  0  0  0  0  0  0  0  0  0  0
   -2.0393    2.4564    5.7971 N   0  0  0  0  0  0  0  0  0  0  0  0
   -1.7012    3.4704    4.9479 N   0  0  0  0  0  0  0  0  0  0  0  0
   -0.8738    2.9464    4.0726 C   0  0  0  0  0  0  0  0  0  0  0  0
   -0.6622    1.5497    4.3167 C   0  0  0  0  0  0  0  0  0  0  0  0
    0.0703    0.4626    3.7819 C   0  0  0  0  0  0  0  0  0  0  0  0
    0.9022    0.5959    2.6601 N   0  0  0  0  0  0  0  0  0  0  0  0
    1.8320   -0.3244    2.1240 C   0  0  0  0  0  0  0  0  0  0  0  0
    2.8584    0.1605    1.2908 C   0  0  0  0  0  0  0  0  0  0  0  0
    3.7990   -0.7427    0.7618 C   0  0  0  0  0  0  0  0  0  0  0  0
    3.7097   -2.0626    1.0459 N   0  0  0  0  0  0  0  0  0  0  0  0
    2.7513   -2.5783    1.8284 N   0  0  0  0  0  0  0  0  0  0  0  0
    1.8363   -1.7256    2.3472 C   0  0  0  0  0  0  0  0  0  0  0  0
   -0.0165   -0.7290    4.4110 N   0  0  0  0  0  0  0  0  0  0  0  0
   -0.7965   -0.8684    5.4812 C   0  0  0  0  0  0  0  0  0  0  0  0
   -1.5643    0.0390    6.0808 N   0  0  0  0  0  0  0  0  0  0  0  0
   -1.4469    1.2519    5.4581 C   0  0  0  0  0  0  0  0  0  0  0  0
   -2.8373    3.6747    8.8773 H   0  0  0  0  0  0  0  0  0  0  0  0
   -1.7732    4.4161    7.6825 H   0  0  0  0  0  0  0  0  0  0  0  0
   -1.3411    2.8681    8.4065 H   0  0  0  0  0  0  0  0  0  0  0  0
   -3.3277    1.7912    7.2800 H   0  0  0  0  0  0  0  0  0  0  0  0
   -3.7590    3.3189    6.5451 H   0  0  0  0  0  0  0  0  0  0  0  0
   -0.4406    3.5682    3.3043 H   0  0  0  0  0  0  0  0  0  0  0  0
    2.9326    1.2124    1.0615 H   0  0  0  0  0  0  0  0  0  0  0  0
    4.6134   -0.4542    0.1155 H   0  0  0  0  0  0  0  0  0  0  0  0
    1.0890   -2.2292    2.9314 H   0  0  0  0  0  0  0  0  0  0  0  0
   -0.7914   -1.8551    5.9236 H   0  0  0  0  0  0  0  0  0  0  0  0
    0.8966    1.5203    2.2444 H   0  0  0  0  0  0  0  0  0  0  0  0
    4.3997   -2.7010    0.6477 H   0  0  0  0  0  0  0  0  0  0  0  0
  1  2  1  0
  1 19  1  0
  1 20  1  0
  1 21  1  0
  2  3  1  0
  2 22  1  0
  2 23  1  0
  3 18  1  0
  3  4  1  0
  4  5  2  0
  5  6  1  0
  5 24  1  0
  6 18  2  0
  6  7  1  0
  7  8  1  0
  7 15  2  0
  8  9  1  0
  8 29  1  0
  9 14  1  0
  9 10  2  0
 10 11  1  0
 10 25  1  0
 11 12  2  0
 11 26  1  0
 12 13  1  0
 12 30  1  0
 13 14  2  0
 14 27  1  0
 15 16  1  0
 16 17  2  0
 16 28  1  0
 17 18  1  0
M  CHG  1  12   1
M  END
>  <i_m_ct_stereo_status>  (91) 
1

>  <s_m_source_file>  (91) 
/var/tmp/pbs.5076255.sched01/tmp9d3cgwpa/0mc_8ktg4.sdf

>  <i_m_source_file_index>  (91) 
38

>  <i_lp_mmshare_version>  (91) 
48012

>  <i_f3d_flags>  (91) 
0

>  <s_epik_input>  (91) 
W0NIM11bQ0gyXW4obltjSF0xKWMoYzEyKW5bY0hdW25IXWNcMj1OL2MzW2NIXVtjSF1ubltjSF0z

>  <s_epik_cmdline>  (91) 
J2VwaWtfcHl0aG9uJywgJy1waHQnLCAnMi4wJywgJy1waCcsICc3LjAnLCAnLXRuJywgJzgnLCAnLW1hJywgJzIwMCcsICctaW1hZScsICc8aW5maWxlLm1hZT4nLCAnLW9tYWUnLCAnPG91dGZpbGUubWFlPic=

>  <r_lp_tautomer_probability>  (91) 
0.999768

>  <r_epik_Ionization_Penalty>  (91) 
1.17978

>  <r_epik_Ionization_Penalty_Charging>  (91) 
1.17972

>  <r_epik_Ionization_Penalty_Neutral>  (91) 
5.60133e-05

>  <r_epik_State_Penalty>  (91) 
1.24353

>  <r_epik_Charging_Adjusted_Penalty>  (91) 
2.42325

>  <i_epik_Tot_Q>  (91) 
1

>  <i_epik_Tot_abs_Q>  (91) 
1

>  <s_lp_Force_Field>  (91) 
OPLS3e

>  <r_lp_Energy>  (91) 
34.4357

>  <b_lp_Chiralities_Consistent>  (91) 
1

>  <s_lp_Variant>  (91) 
19:0-2

>  <s_i_glide_gridfile>  (91) 
pfpi4k_grid

>  <i_i_glide_lignum>  (91) 
38

>  <i_i_glide_rotatable_bonds>  (91) 
3

>  <r_i_docking_score>  (91) 
-3.65249

>  <r_i_glide_ligand_efficiency>  (91) 
-0.202916

>  <r_i_glide_ligand_efficiency_sa>  (91) 
-0.531791

>  <r_i_glide_ligand_efficiency_ln>  (91) 
-0.938854

>  <r_i_glide_gscore>  (91) 
-3.65249

>  <r_i_glide_lipo>  (91) 
-0.238844

>  <r_i_glide_hbond>  (91) 
-0.125691

>  <r_i_glide_metal>  (91) 
-0

>  <r_i_glide_rewards>  (91) 
-1.81343

>  <r_i_glide_evdw>  (91) 
-20.1951

>  <r_i_glide_ecoul>  (91) 
-6.29615

>  <r_i_glide_erotb>  (91) 
0.590961

>  <r_i_glide_esite>  (91) 
-0.111313

>  <r_i_glide_emodel>  (91) 
-33.0168

>  <r_i_glide_energy>  (91) 
-26.4912

>  <r_i_glide_einternal>  (91) 
0.878658

>  <r_i_glide_intrahb_reward>  (91) 
-0

>  <i_i_glide_confnum>  (91) 
1

>  <i_i_glide_posenum>  (91) 
7

>  <r_i_glide_eff_state_penalty>  (91) 
0

>  <ligand_id>  (91) 
19

>  <original_smiles>  (91) 
CCn1ncc2c(=Nc3ccnnc3)[nH]cnc21

>  <smiles>  (91) 
[H]c1nc(N([H])c2c([H])n[n+]([H])c([H])c2[H])c2c([H])nn(C([H])([H])C([H])([H])[H])c2n1

$$$$
20:0:0
     RDKit          3D

 41 43  0  0  1  0  0  0  0  0999 V2000
    2.9821   -0.5670   -3.5802 C   0  0  0  0  0  0  0  0  0  0  0  0
    4.4360   -0.7519   -3.1405 C   0  0  0  0  0  0  0  0  0  0  0  0
    4.5682   -1.8484   -2.1511 N   0  0  0  0  0  0  0  0  0  0  0  0
    4.8968   -3.1023   -2.4638 C   0  0  0  0  0  0  0  0  0  0  0  0
    5.2565   -3.4948   -3.5672 O   0  0  0  0  0  0  0  0  0  0  0  0
    4.7316   -3.8842   -1.3992 N   0  0  0  0  0  0  0  0  0  0  0  0
    4.2965   -3.1440   -0.2272 C   0  0  1  0  0  0  0  0  0  0  0  0
    2.9103   -3.5823    0.2520 C   0  0  0  0  0  0  0  0  0  0  0  0
    2.9392   -4.8614    1.1191 C   0  0  0  0  0  0  0  0  0  0  0  0
    1.8788   -5.4794    1.2084 O   0  0  0  0  0  0  0  0  0  0  0  0
    4.0576   -5.1995    1.8156 N   0  0  0  0  0  0  0  0  0  0  0  0
    4.0591   -6.3192    2.7671 C   0  0  0  0  0  0  0  0  0  0  0  0
    5.3772   -4.6629    1.5019 C   0  0  1  0  0  0  0  0  0  0  0  0
    5.9522   -5.4695    0.5224 O   0  0  0  0  0  0  0  0  0  0  0  0
    7.3351   -5.7639    0.7034 C   0  0  0  0  0  0  0  0  0  0  0  0
    8.2497   -4.5393    0.7866 C   0  0  0  0  0  0  0  0  0  0  0  0
    7.7612   -3.3269   -0.0158 C   0  0  0  0  0  0  0  0  0  0  0  0
    6.6588   -2.5713    0.7233 C   0  0  0  0  0  0  0  0  0  0  0  0
    6.8651   -1.4296    1.1125 O   0  0  0  0  0  0  0  0  0  0  0  0
    5.2851   -3.2080    0.9658 C   0  0  1  0  0  0  0  0  0  0  0  0
    4.2160   -1.7510   -0.8603 C   0  0  0  0  0  0  0  0  0  0  0  0
    3.8702   -0.7522   -0.2548 O   0  0  0  0  0  0  0  0  0  0  0  0
    2.8728    0.2475   -4.2968 H   0  0  0  0  0  0  0  0  0  0  0  0
    2.3519   -0.3192   -2.7308 H   0  0  0  0  0  0  0  0  0  0  0  0
    2.5678   -1.4677   -4.0400 H   0  0  0  0  0  0  0  0  0  0  0  0
    5.0114   -0.9653   -4.0453 H   0  0  0  0  0  0  0  0  0  0  0  0
    4.8088    0.1711   -2.7100 H   0  0  0  0  0  0  0  0  0  0  0  0
    4.8516   -4.8930   -1.4286 H   0  0  0  0  0  0  0  0  0  0  0  0
    2.4456   -2.7932    0.8514 H   0  0  0  0  0  0  0  0  0  0  0  0
    2.2294   -3.7470   -0.5925 H   0  0  0  0  0  0  0  0  0  0  0  0
    3.0605   -6.6647    3.0394 H   0  0  0  0  0  0  0  0  0  0  0  0
    4.5607   -6.0533    3.7006 H   0  0  0  0  0  0  0  0  0  0  0  0
    4.5747   -7.1715    2.3244 H   0  0  0  0  0  0  0  0  0  0  0  0
    5.9668   -4.6883    2.4218 H   0  0  0  0  0  0  0  0  0  0  0  0
    7.4821   -6.4265    1.5550 H   0  0  0  0  0  0  0  0  0  0  0  0
    7.6814   -6.3220   -0.1598 H   0  0  0  0  0  0  0  0  0  0  0  0
    8.4263   -4.2680    1.8275 H   0  0  0  0  0  0  0  0  0  0  0  0
    9.2236   -4.8401    0.4121 H   0  0  0  0  0  0  0  0  0  0  0  0
    8.5959   -2.6424   -0.1459 H   0  0  0  0  0  0  0  0  0  0  0  0
    7.4375   -3.6153   -1.0175 H   0  0  0  0  0  0  0  0  0  0  0  0
    4.8491   -2.6181    1.7774 H   0  0  0  0  0  0  0  0  0  0  0  0
  1  2  1  0
  1 23  1  0
  1 24  1  0
  1 25  1  0
  2  3  1  0
  2 26  1  0
  2 27  1  0
  3 21  1  0
  3  4  1  0
  4  5  2  0
  4  6  1  0
  7  6  1  6
  6 28  1  0
  7 20  1  0
  7  8  1  0
  7 21  1  0
  8  9  1  0
  8 29  1  0
  8 30  1  0
  9 10  2  0
  9 11  1  0
 11 12  1  0
 11 13  1  0
 12 31  1  0
 12 32  1  0
 12 33  1  0
 13 20  1  0
 13 14  1  0
 13 34  1  1
 14 15  1  0
 15 16  1  0
 15 35  1  0
 15 36  1  0
 16 17  1  0
 16 37  1  0
 16 38  1  0
 17 18  1  0
 17 39  1  0
 17 40  1  0
 18 19  2  0
 18 20  1  0
 20 41  1  1
 21 22  2  0
M  END
>  <i_m_ct_stereo_status>  (92) 
1

>  <s_m_source_file>  (92) 
/var/tmp/pbs.5076255.sched01/tmp9d3cgwpa/0mc_8ktg4.sdf

>  <i_m_source_file_index>  (92) 
39

>  <i_lp_mmshare_version>  (92) 
48012

>  <i_f3d_flags>  (92) 
0

>  <s_epik_input>  (92) 
W0NIM11bQ0gyXU4oQzE9TylDKD1PKVtOSF1bQ0BAXTEyW0NASF0zW0NAQEhdKE4oW0NIM10pQyg9TylbQ0gyXTIpT1tDSDJdW0NIMl1bQ0gyXUMzPU8=

>  <s_epik_cmdline>  (92) 
J2VwaWtfcHl0aG9uJywgJy1waHQnLCAnMi4wJywgJy1waCcsICc3LjAnLCAnLXRuJywgJzgnLCAnLW1hJywgJzIwMCcsICctaW1hZScsICc8aW5maWxlLm1hZT4nLCAnLW9tYWUnLCAnPG91dGZpbGUubWFlPic=

>  <r_lp_tautomer_probability>  (92) 
1

>  <r_epik_Ionization_Penalty>  (92) 
0.000592294

>  <r_epik_Ionization_Penalty_Charging>  (92) 
0

>  <r_epik_Ionization_Penalty_Neutral>  (92) 
0.000592294

>  <r_epik_State_Penalty>  (92) 
0.000363716

>  <r_epik_Charging_Adjusted_Penalty>  (92) 
0.000363716

>  <i_epik_Tot_Q>  (92) 
0

>  <i_epik_Tot_abs_Q>  (92) 
0

>  <s_epik_Chemistry_Notes>  (92) 
This compound contains an acetal/aminal-like group ( X-CH(R)-Y where X, Y are N, S, or O) that may be acid/base labile, releasing an aldehyde.

>  <s_lp_Force_Field>  (92) 
OPLS3e

>  <r_lp_Energy>  (92) 
10.466

>  <b_lp_Chiralities_Consistent>  (92) 
1

>  <s_lp_Variant>  (92) 
20:0-1

>  <s_i_glide_gridfile>  (92) 
pfpi4k_grid

>  <i_i_glide_lignum>  (92) 
39

>  <i_i_glide_rotatable_bonds>  (92) 
1

>  <r_i_docking_score>  (92) 
-4.23277

>  <r_i_glide_ligand_efficiency>  (92) 
-0.192399

>  <r_i_glide_ligand_efficiency_sa>  (92) 
-0.539109

>  <r_i_glide_ligand_efficiency_ln>  (92) 
-1.03464

>  <r_i_glide_gscore>  (92) 
-4.23277

>  <r_i_glide_lipo>  (92) 
-0.733814

>  <r_i_glide_hbond>  (92) 
-0.0666008

>  <r_i_glide_metal>  (92) 
-0

>  <r_i_glide_rewards>  (92) 
-1.66601

>  <r_i_glide_evdw>  (92) 
-26.6465

>  <r_i_glide_ecoul>  (92) 
-2.36178

>  <r_i_glide_erotb>  (92) 
0

>  <r_i_glide_esite>  (92) 
-0.0797563

>  <r_i_glide_emodel>  (92) 
-35.9973

>  <r_i_glide_energy>  (92) 
-29.0083

>  <r_i_glide_einternal>  (92) 
0.128347

>  <r_i_glide_intrahb_reward>  (92) 
-0

>  <i_i_glide_confnum>  (92) 
2

>  <i_i_glide_posenum>  (92) 
8

>  <r_i_glide_eff_state_penalty>  (92) 
0

>  <ligand_id>  (92) 
20

>  <original_smiles>  (92) 
CCN1C(=O)NC2(CC(=O)N(C)C3OCCCC(=O)C32)C1=O

>  <smiles>  (92) 
[H]N1C(=O)N(C([H])([H])C([H])([H])[H])C(=O)C12C([H])([H])C(=O)N(C([H])([H])[H])C1([H])OC([H])([H])C([H])([H])C([H])([H])C(=O)C12[H]

$$$$
20:0:1
     RDKit          3D

 41 43  0  0  1  0  0  0  0  0999 V2000
    2.6361   -1.6573   -3.7340 C   0  0  0  0  0  0  0  0  0  0  0  0
    2.3766   -2.9872   -3.0393 C   0  0  0  0  0  0  0  0  0  0  0  0
    3.4511   -3.3231   -2.0920 N   0  0  0  0  0  0  0  0  0  0  0  0
    4.7041   -3.6379   -2.4678 C   0  0  0  0  0  0  0  0  0  0  0  0
    5.2144   -3.4942   -3.5741 O   0  0  0  0  0  0  0  0  0  0  0  0
    5.3232   -4.2006   -1.4343 N   0  0  0  0  0  0  0  0  0  0  0  0
    4.5245   -4.2094   -0.2357 C   0  0  1  0  0  0  0  0  0  0  0  0
    4.2567   -5.6377    0.2801 C   0  0  0  0  0  0  0  0  0  0  0  0
    5.4012   -6.2376    1.1053 C   0  0  0  0  0  0  0  0  0  0  0  0
    5.4044   -7.4630    1.2449 O   0  0  0  0  0  0  0  0  0  0  0  0
    6.2976   -5.4278    1.7189 N   0  0  0  0  0  0  0  0  0  0  0  0
    7.3328   -5.9839    2.6052 C   0  0  0  0  0  0  0  0  0  0  0  0
    6.4554   -4.0183    1.3617 C   0  0  1  0  0  0  0  0  0  0  0  0
    7.4104   -3.9280    0.3452 O   0  0  0  0  0  0  0  0  0  0  0  0
    8.3587   -2.8683    0.4371 C   0  0  0  0  0  0  0  0  0  0  0  0
    7.7520   -1.4463    0.5429 C   0  0  0  0  0  0  0  0  0  0  0  0
    6.4005   -1.2898   -0.1617 C   0  0  0  0  0  0  0  0  0  0  0  0
    5.2562   -1.8481    0.6876 C   0  0  0  0  0  0  0  0  0  0  0  0
    4.4516   -1.0846    1.2121 O   0  0  0  0  0  0  0  0  0  0  0  0
    5.1308   -3.3715    0.9070 C   0  0  1  0  0  0  0  0  0  0  0  0
    3.2469   -3.6100   -0.8053 C   0  0  0  0  0  0  0  0  0  0  0  0
    2.2140   -3.5134   -0.1650 O   0  0  0  0  0  0  0  0  0  0  0  0
    1.8144   -1.4367   -4.4175 H   0  0  0  0  0  0  0  0  0  0  0  0
    3.5340   -1.6689   -4.3432 H   0  0  0  0  0  0  0  0  0  0  0  0
    2.7244   -0.8541   -2.9992 H   0  0  0  0  0  0  0  0  0  0  0  0
    1.4126   -2.9376   -2.5352 H   0  0  0  0  0  0  0  0  0  0  0  0
    2.2628   -3.7821   -3.7736 H   0  0  0  0  0  0  0  0  0  0  0  0
    6.2276   -4.6444   -1.5247 H   0  0  0  0  0  0  0  0  0  0  0  0
    3.3776   -5.6449    0.9268 H   0  0  0  0  0  0  0  0  0  0  0  0
    4.0395   -6.3285   -0.5387 H   0  0  0  0  0  0  0  0  0  0  0  0
    7.1596   -7.0238    2.8861 H   0  0  0  0  0  0  0  0  0  0  0  0
    7.3943   -5.4460    3.5495 H   0  0  0  0  0  0  0  0  0  0  0  0
    8.3053   -5.9431    2.1138 H   0  0  0  0  0  0  0  0  0  0  0  0
    6.7616   -3.5011    2.2587 H   0  0  0  0  0  0  0  0  0  0  0  0
    9.0721   -3.0704    1.2363 H   0  0  0  0  0  0  0  0  0  0  0  0
    8.9422   -2.9123   -0.4839 H   0  0  0  0  0  0  0  0  0  0  0  0
    7.6179   -1.0810    1.5636 H   0  0  0  0  0  0  0  0  0  0  0  0
    8.4861   -0.7511    0.1418 H   0  0  0  0  0  0  0  0  0  0  0  0
    6.1972   -0.2269   -0.2876 H   0  0  0  0  0  0  0  0  0  0  0  0
    6.4127   -1.7428   -1.1502 H   0  0  0  0  0  0  0  0  0  0  0  0
    4.4504   -3.4643    1.7529 H   0  0  0  0  0  0  0  0  0  0  0  0
  1  2  1  0
  1 23  1  0
  1 24  1  0
  1 25  1  0
  2  3  1  0
  2 26  1  0
  2 27  1  0
  3 21  1  0
  3  4  1  0
  4  5  2  0
  4  6  1  0
  7  6  1  6
  6 28  1  0
  7 20  1  0
  7  8  1  0
  7 21  1  0
  8  9  1  0
  8 29  1  0
  8 30  1  0
  9 10  2  0
  9 11  1  0
 11 12  1  0
 11 13  1  0
 12 31  1  0
 12 32  1  0
 12 33  1  0
 13 20  1  0
 13 14  1  0
 13 34  1  1
 14 15  1  0
 15 16  1  0
 15 35  1  0
 15 36  1  0
 16 17  1  0
 16 37  1  0
 16 38  1  0
 17 18  1  0
 17 39  1  0
 17 40  1  0
 18 19  2  0
 18 20  1  0
 20 41  1  1
 21 22  2  0
M  END
>  <i_m_ct_stereo_status>  (93) 
1

>  <s_m_source_file>  (93) 
/var/tmp/pbs.5076255.sched01/tmp9d3cgwpa/0mc_8ktg4.sdf

>  <i_m_source_file_index>  (93) 
39

>  <i_lp_mmshare_version>  (93) 
48012

>  <i_f3d_flags>  (93) 
0

>  <s_epik_input>  (93) 
W0NIM11bQ0gyXU4oQzE9TylDKD1PKVtOSF1bQ0BAXTEyW0NASF0zW0NAQEhdKE4oW0NIM10pQyg9TylbQ0gyXTIpT1tDSDJdW0NIMl1bQ0gyXUMzPU8=

>  <s_epik_cmdline>  (93) 
J2VwaWtfcHl0aG9uJywgJy1waHQnLCAnMi4wJywgJy1waCcsICc3LjAnLCAnLXRuJywgJzgnLCAnLW1hJywgJzIwMCcsICctaW1hZScsICc8aW5maWxlLm1hZT4nLCAnLW9tYWUnLCAnPG91dGZpbGUubWFlPic=

>  <r_lp_tautomer_probability>  (93) 
1

>  <r_epik_Ionization_Penalty>  (93) 
0.000592294

>  <r_epik_Ionization_Penalty_Charging>  (93) 
0

>  <r_epik_Ionization_Penalty_Neutral>  (93) 
0.000592294

>  <r_epik_State_Penalty>  (93) 
0.000363716

>  <r_epik_Charging_Adjusted_Penalty>  (93) 
0.000363716

>  <i_epik_Tot_Q>  (93) 
0

>  <i_epik_Tot_abs_Q>  (93) 
0

>  <s_epik_Chemistry_Notes>  (93) 
This compound contains an acetal/aminal-like group ( X-CH(R)-Y where X, Y are N, S, or O) that may be acid/base labile, releasing an aldehyde.

>  <s_lp_Force_Field>  (93) 
OPLS3e

>  <r_lp_Energy>  (93) 
10.466

>  <b_lp_Chiralities_Consistent>  (93) 
1

>  <s_lp_Variant>  (93) 
20:0-1

>  <s_i_glide_gridfile>  (93) 
pfpi4k_grid

>  <i_i_glide_lignum>  (93) 
39

>  <i_i_glide_rotatable_bonds>  (93) 
1

>  <r_i_docking_score>  (93) 
-3.73524

>  <r_i_glide_ligand_efficiency>  (93) 
-0.169784

>  <r_i_glide_ligand_efficiency_sa>  (93) 
-0.47574

>  <r_i_glide_ligand_efficiency_ln>  (93) 
-0.913029

>  <r_i_glide_gscore>  (93) 
-3.73524

>  <r_i_glide_lipo>  (93) 
-0.551303

>  <r_i_glide_hbond>  (93) 
-0.00883302

>  <r_i_glide_metal>  (93) 
-0

>  <r_i_glide_rewards>  (93) 
-1.7503

>  <r_i_glide_evdw>  (93) 
-22.7433

>  <r_i_glide_ecoul>  (93) 
-1.74201

>  <r_i_glide_erotb>  (93) 
0

>  <r_i_glide_esite>  (93) 
-0.0263347

>  <r_i_glide_emodel>  (93) 
-29.4376

>  <r_i_glide_energy>  (93) 
-24.4853

>  <r_i_glide_einternal>  (93) 
1.04249

>  <r_i_glide_intrahb_reward>  (93) 
-0

>  <i_i_glide_confnum>  (93) 
2

>  <i_i_glide_posenum>  (93) 
32

>  <r_i_glide_eff_state_penalty>  (93) 
0

>  <ligand_id>  (93) 
20

>  <original_smiles>  (93) 
CCN1C(=O)NC2(CC(=O)N(C)C3OCCCC(=O)C32)C1=O

>  <smiles>  (93) 
[H]N1C(=O)N(C([H])([H])C([H])([H])[H])C(=O)C12C([H])([H])C(=O)N(C([H])([H])[H])C1([H])OC([H])([H])C([H])([H])C([H])([H])C(=O)C12[H]

$$$$
20:0:2
     RDKit          3D

 41 43  0  0  1  0  0  0  0  0999 V2000
    4.2160   -0.4811   -3.4981 C   0  0  0  0  0  0  0  0  0  0  0  0
    3.2777   -1.4992   -2.8722 C   0  0  0  0  0  0  0  0  0  0  0  0
    3.9920   -2.3937   -1.9482 N   0  0  0  0  0  0  0  0  0  0  0  0
    4.6627   -3.4759   -2.3290 C   0  0  0  0  0  0  0  0  0  0  0  0
    4.8881   -3.8008   -3.5092 O   0  0  0  0  0  0  0  0  0  0  0  0
    4.9756   -4.2184   -1.2716 N   0  0  0  0  0  0  0  0  0  0  0  0
    4.5505   -3.5927   -0.0070 C   0  0  1  0  0  0  0  0  0  0  0  0
    3.4875   -4.4201    0.7327 C   0  0  0  0  0  0  0  0  0  0  0  0
    4.0732   -5.5542    1.5875 C   0  0  0  0  0  0  0  0  0  0  0  0
    3.2863   -6.4315    1.9153 O   0  0  0  0  0  0  0  0  0  0  0  0
    5.3547   -5.5061    2.0441 N   0  0  0  0  0  0  0  0  0  0  0  0
    5.9021   -6.5096    2.9600 C   0  0  0  0  0  0  0  0  0  0  0  0
    6.3492   -4.6096    1.4638 C   0  0  1  0  0  0  0  0  0  0  0  0
    6.9420   -5.2796    0.4034 O   0  0  0  0  0  0  0  0  0  0  0  0
    8.3556   -5.1203    0.2673 C   0  0  0  0  0  0  0  0  0  0  0  0
    8.8263   -3.6631    0.1637 C   0  0  0  0  0  0  0  0  0  0  0  0
    7.8402   -2.7210   -0.5100 C   0  0  0  0  0  0  0  0  0  0  0  0
    6.7436   -2.2738    0.4535 C   0  0  0  0  0  0  0  0  0  0  0  0
    6.6667   -1.0971    0.7899 O   0  0  0  0  0  0  0  0  0  0  0  0
    5.7139   -3.2887    0.9634 C   0  0  1  0  0  0  0  0  0  0  0  0
    3.9312   -2.3300   -0.5970 C   0  0  0  0  0  0  0  0  0  0  0  0
    3.4513   -1.4503    0.0982 O   0  0  0  0  0  0  0  0  0  0  0  0
    3.6809    0.2015   -4.1610 H   0  0  0  0  0  0  0  0  0  0  0  0
    4.9829   -0.9966   -4.0700 H   0  0  0  0  0  0  0  0  0  0  0  0
    4.6961    0.1042   -2.7148 H   0  0  0  0  0  0  0  0  0  0  0  0
    2.4790   -0.9613   -2.3779 H   0  0  0  0  0  0  0  0  0  0  0  0
    2.7965   -2.0937   -3.6479 H   0  0  0  0  0  0  0  0  0  0  0  0
    5.3815   -5.1468   -1.3352 H   0  0  0  0  0  0  0  0  0  0  0  0
    2.9273   -3.7849    1.4237 H   0  0  0  0  0  0  0  0  0  0  0  0
    2.7339   -4.8483    0.0582 H   0  0  0  0  0  0  0  0  0  0  0  0
    5.1432   -7.1329    3.4398 H   0  0  0  0  0  0  0  0  0  0  0  0
    6.4772   -6.0502    3.7681 H   0  0  0  0  0  0  0  0  0  0  0  0
    6.5617   -7.1848    2.4125 H   0  0  0  0  0  0  0  0  0  0  0  0
    7.0752   -4.4088    2.2443 H   0  0  0  0  0  0  0  0  0  0  0  0
    8.8830   -5.6381    1.0668 H   0  0  0  0  0  0  0  0  0  0  0  0
    8.6647   -5.6271   -0.6417 H   0  0  0  0  0  0  0  0  0  0  0  0
    9.1107   -3.2810    1.1451 H   0  0  0  0  0  0  0  0  0  0  0  0
    9.7383   -3.6230   -0.4265 H   0  0  0  0  0  0  0  0  0  0  0  0
    8.4113   -1.8442   -0.7868 H   0  0  0  0  0  0  0  0  0  0  0  0
    7.4312   -3.1427   -1.4272 H   0  0  0  0  0  0  0  0  0  0  0  0
    5.2702   -2.8093    1.8415 H   0  0  0  0  0  0  0  0  0  0  0  0
  1  2  1  0
  1 23  1  0
  1 24  1  0
  1 25  1  0
  2  3  1  0
  2 26  1  0
  2 27  1  0
  3 21  1  0
  3  4  1  0
  4  5  2  0
  4  6  1  0
  7  6  1  6
  6 28  1  0
  7 20  1  0
  7  8  1  0
  7 21  1  0
  8  9  1  0
  8 29  1  0
  8 30  1  0
  9 10  2  0
  9 11  1  0
 11 12  1  0
 11 13  1  0
 12 31  1  0
 12 32  1  0
 12 33  1  0
 13 20  1  0
 13 14  1  0
 13 34  1  1
 14 15  1  0
 15 16  1  0
 15 35  1  0
 15 36  1  0
 16 17  1  0
 16 37  1  0
 16 38  1  0
 17 18  1  0
 17 39  1  0
 17 40  1  0
 18 19  2  0
 18 20  1  0
 20 41  1  1
 21 22  2  0
M  END
>  <i_m_ct_stereo_status>  (94) 
1

>  <s_m_source_file>  (94) 
/var/tmp/pbs.5076255.sched01/tmp9d3cgwpa/0mc_8ktg4.sdf

>  <i_m_source_file_index>  (94) 
39

>  <i_lp_mmshare_version>  (94) 
48012

>  <i_f3d_flags>  (94) 
0

>  <s_epik_input>  (94) 
W0NIM11bQ0gyXU4oQzE9TylDKD1PKVtOSF1bQ0BAXTEyW0NASF0zW0NAQEhdKE4oW0NIM10pQyg9TylbQ0gyXTIpT1tDSDJdW0NIMl1bQ0gyXUMzPU8=

>  <s_epik_cmdline>  (94) 
J2VwaWtfcHl0aG9uJywgJy1waHQnLCAnMi4wJywgJy1waCcsICc3LjAnLCAnLXRuJywgJzgnLCAnLW1hJywgJzIwMCcsICctaW1hZScsICc8aW5maWxlLm1hZT4nLCAnLW9tYWUnLCAnPG91dGZpbGUubWFlPic=

>  <r_lp_tautomer_probability>  (94) 
1

>  <r_epik_Ionization_Penalty>  (94) 
0.000592294

>  <r_epik_Ionization_Penalty_Charging>  (94) 
0

>  <r_epik_Ionization_Penalty_Neutral>  (94) 
0.000592294

>  <r_epik_State_Penalty>  (94) 
0.000363716

>  <r_epik_Charging_Adjusted_Penalty>  (94) 
0.000363716

>  <i_epik_Tot_Q>  (94) 
0

>  <i_epik_Tot_abs_Q>  (94) 
0

>  <s_epik_Chemistry_Notes>  (94) 
This compound contains an acetal/aminal-like group ( X-CH(R)-Y where X, Y are N, S, or O) that may be acid/base labile, releasing an aldehyde.

>  <s_lp_Force_Field>  (94) 
OPLS3e

>  <r_lp_Energy>  (94) 
10.466

>  <b_lp_Chiralities_Consistent>  (94) 
1

>  <s_lp_Variant>  (94) 
20:0-1

>  <s_i_glide_gridfile>  (94) 
pfpi4k_grid

>  <i_i_glide_lignum>  (94) 
39

>  <i_i_glide_rotatable_bonds>  (94) 
1

>  <r_i_docking_score>  (94) 
-3.38692

>  <r_i_glide_ligand_efficiency>  (94) 
-0.153951

>  <r_i_glide_ligand_efficiency_sa>  (94) 
-0.431376

>  <r_i_glide_ligand_efficiency_ln>  (94) 
-0.827886

>  <r_i_glide_gscore>  (94) 
-3.38692

>  <r_i_glide_lipo>  (94) 
-0.440186

>  <r_i_glide_hbond>  (94) 
0

>  <r_i_glide_metal>  (94) 
-0

>  <r_i_glide_rewards>  (94) 
-1.62391

>  <r_i_glide_evdw>  (94) 
-26.875

>  <r_i_glide_ecoul>  (94) 
0.553447

>  <r_i_glide_erotb>  (94) 
0

>  <r_i_glide_esite>  (94) 
-0.0620879

>  <r_i_glide_emodel>  (94) 
-31.5817

>  <r_i_glide_energy>  (94) 
-26.3216

>  <r_i_glide_einternal>  (94) 
0.208583

>  <r_i_glide_intrahb_reward>  (94) 
-0

>  <i_i_glide_confnum>  (94) 
1

>  <i_i_glide_posenum>  (94) 
19

>  <r_i_glide_eff_state_penalty>  (94) 
0

>  <ligand_id>  (94) 
20

>  <original_smiles>  (94) 
CCN1C(=O)NC2(CC(=O)N(C)C3OCCCC(=O)C32)C1=O

>  <smiles>  (94) 
[H]N1C(=O)N(C([H])([H])C([H])([H])[H])C(=O)C12C([H])([H])C(=O)N(C([H])([H])[H])C1([H])OC([H])([H])C([H])([H])C([H])([H])C(=O)C12[H]

$$$$
21:0:0
     RDKit          3D

 51 55  0  0  1  0  0  0  0  0999 V2000
    5.2379    2.1075    6.2554 C   0  0  0  0  0  0  0  0  0  0  0  0
    4.3394    3.0309    5.6493 O   0  0  0  0  0  0  0  0  0  0  0  0
    3.3394    2.4363    4.8197 C   0  0  2  0  0  0  0  0  0  0  0  0
    2.9301    3.4468    3.7115 C   0  0  0  0  0  0  0  0  0  0  0  0
    1.4117    3.7025    3.4162 C   0  0  0  0  0  0  0  0  0  0  0  0
    0.3271    3.5434    4.5727 C   0  0  2  0  0  0  0  0  0  0  0  0
   -0.7265    4.6203    4.0774 C   0  0  0  0  0  0  0  0  0  0  0  0
    1.0951    4.1139    5.8268 C   0  0  0  0  0  0  0  0  0  0  0  0
    1.5400    2.9083    6.6769 C   0  0  1  0  0  0  0  0  0  0  0  0
    0.3540    2.3367    7.5650 C   0  0  1  0  0  0  0  0  0  0  0  0
   -0.9152    3.0245    7.1770 C   0  0  0  0  0  0  0  0  0  0  0  0
   -1.2386    2.7930    5.8818 C   0  0  0  0  0  0  0  0  0  0  0  0
   -0.3469    1.9824    4.8321 C   0  0  1  0  0  0  0  0  0  0  0  0
   -0.8546    0.8278    5.8905 C   0  0  2  0  0  0  0  0  0  0  0  0
   -0.0719    0.8674    7.2898 C   0  0  0  0  0  0  0  0  0  0  0  0
   -1.0564   -0.5712    5.2863 C   0  0  0  0  0  0  0  0  0  0  0  0
   -2.1737   -1.0529    5.0851 O   0  0  0  0  0  0  0  0  0  0  0  0
    0.1878   -1.3490    4.9831 C   0  0  0  0  0  0  0  0  0  0  0  0
    1.3712   -0.3971    5.0006 C   0  0  0  0  0  0  0  0  0  0  0  0
    1.1051    1.1763    4.7783 C   0  0  1  0  0  0  0  0  0  0  0  0
    1.4821    1.0946    3.3839 O   0  0  0  0  0  0  0  0  0  0  0  0
    0.5253    0.6850    2.3962 C   0  0  0  0  0  0  0  0  0  0  0  0
    2.1767    1.8899    5.6823 C   0  0  1  0  0  0  0  0  0  0  0  0
    5.9424    2.6471    6.8879 H   0  0  0  0  0  0  0  0  0  0  0  0
    5.8146    1.5646    5.5043 H   0  0  0  0  0  0  0  0  0  0  0  0
    4.7289    1.3812    6.8888 H   0  0  0  0  0  0  0  0  0  0  0  0
    3.7954    1.5912    4.2965 H   0  0  0  0  0  0  0  0  0  0  0  0
    3.4142    4.4038    3.9234 H   0  0  0  0  0  0  0  0  0  0  0  0
    3.3935    3.1288    2.7770 H   0  0  0  0  0  0  0  0  0  0  0  0
    1.4530    4.7297    3.0590 H   0  0  0  0  0  0  0  0  0  0  0  0
    1.0868    3.2002    2.5061 H   0  0  0  0  0  0  0  0  0  0  0  0
   -1.3788    4.9974    4.8625 H   0  0  0  0  0  0  0  0  0  0  0  0
   -1.3484    4.2107    3.2773 H   0  0  0  0  0  0  0  0  0  0  0  0
   -0.2760    5.5389    3.7004 H   0  0  0  0  0  0  0  0  0  0  0  0
    1.9482    4.7364    5.5656 H   0  0  0  0  0  0  0  0  0  0  0  0
    0.5011    4.8334    6.3942 H   0  0  0  0  0  0  0  0  0  0  0  0
    2.3154    3.2538    7.3606 H   0  0  0  0  0  0  0  0  0  0  0  0
    0.5532    2.4934    8.6263 H   0  0  0  0  0  0  0  0  0  0  0  0
   -1.5278    3.5430    7.9014 H   0  0  0  0  0  0  0  0  0  0  0  0
   -2.2000    3.1316    5.5242 H   0  0  0  0  0  0  0  0  0  0  0  0
   -1.9189    0.8827    6.1644 H   0  0  0  0  0  0  0  0  0  0  0  0
    0.7620    0.1875    7.4210 H   0  0  0  0  0  0  0  0  0  0  0  0
   -0.7689    0.5620    8.0717 H   0  0  0  0  0  0  0  0  0  0  0  0
    0.3270   -2.1193    5.7458 H   0  0  0  0  0  0  0  0  0  0  0  0
    0.1000   -1.8630    4.0280 H   0  0  0  0  0  0  0  0  0  0  0  0
    1.8874   -0.6309    5.9266 H   0  0  0  0  0  0  0  0  0  0  0  0
    2.1103   -0.7718    4.2881 H   0  0  0  0  0  0  0  0  0  0  0  0
    0.9900    0.7748    1.4138 H   0  0  0  0  0  0  0  0  0  0  0  0
   -0.3657    1.3144    2.3756 H   0  0  0  0  0  0  0  0  0  0  0  0
    0.2160   -0.3523    2.5019 H   0  0  0  0  0  0  0  0  0  0  0  0
    2.6439    1.1773    6.3517 H   0  0  0  0  0  0  0  0  0  0  0  0
  1  2  1  0
  1 24  1  0
  1 25  1  0
  1 26  1  0
  2  3  1  0
  3 23  1  0
  3  4  1  0
  3 27  1  6
  4  5  1  0
  4 28  1  0
  4 29  1  0
  5  6  1  0
  5 30  1  0
  5 31  1  0
  6 13  1  0
  6  7  1  6
  6  8  1  0
  7 32  1  0
  7 33  1  0
  7 34  1  0
  8  9  1  0
  8 35  1  0
  8 36  1  0
  9 23  1  0
  9 10  1  0
  9 37  1  1
 10 15  1  0
 10 11  1  0
 10 38  1  1
 11 12  2  0
 11 39  1  0
 13 12  1  1
 12 40  1  0
 13 20  1  0
 13 14  1  0
 14 15  1  0
 14 16  1  0
 14 41  1  1
 15 42  1  0
 15 43  1  0
 16 17  2  0
 16 18  1  0
 18 19  1  0
 18 44  1  0
 18 45  1  0
 19 20  1  0
 19 46  1  0
 19 47  1  0
 20 21  1  6
 20 23  1  0
 21 22  1  0
 22 48  1  0
 22 49  1  0
 22 50  1  0
 23 51  1  1
M  END
>  <i_m_ct_stereo_status>  (95) 
1

>  <s_m_source_file>  (95) 
/var/tmp/pbs.5076255.sched01/tmp9d3cgwpa/0mc_8ktg4.sdf

>  <i_m_source_file_index>  (95) 
40

>  <i_lp_mmshare_version>  (95) 
48012

>  <i_f3d_flags>  (95) 
2

>  <s_epik_input>  (95) 
W0NIM11bQ0BAXTEoQzIzNClbQ0gyXVtDSDJdW0NAQEhdKE9bQ0gzXSlbQ0BIXTVbQ0BASF0oW0NIMl0xKVtDQEBIXShbQ0hdPVtDSF0yKVtDSDJdW0NAQEhdM0MoPU8pW0NIMl1bQ0gyXVtDQEBdNDVPW0NIM10=

>  <s_epik_cmdline>  (95) 
J2VwaWtfcHl0aG9uJywgJy1waHQnLCAnMi4wJywgJy1waCcsICc3LjAnLCAnLXRuJywgJzgnLCAnLW1hJywgJzIwMCcsICctaW1hZScsICc8aW5maWxlLm1hZT4nLCAnLW9tYWUnLCAnPG91dGZpbGUubWFlPic=

>  <r_lp_tautomer_probability>  (95) 
1

>  <r_epik_Ionization_Penalty>  (95) 
6.09323e-11

>  <r_epik_Ionization_Penalty_Charging>  (95) 
0

>  <r_epik_Ionization_Penalty_Neutral>  (95) 
6.09323e-11

>  <r_epik_State_Penalty>  (95) 
-0

>  <r_epik_Charging_Adjusted_Penalty>  (95) 
0

>  <i_epik_Tot_Q>  (95) 
0

>  <i_epik_Tot_abs_Q>  (95) 
0

>  <s_lp_Force_Field>  (95) 
OPLS3e

>  <r_lp_Energy>  (95) 
282.07

>  <b_lp_Chiralities_Consistent>  (95) 
0

>  <s_lp_Variant>  (95) 
21:0-1

>  <s_i_glide_gridfile>  (95) 
pfpi4k_grid

>  <i_i_glide_lignum>  (95) 
40

>  <i_i_glide_rotatable_bonds>  (95) 
2

>  <r_i_docking_score>  (95) 
-2.3463

>  <r_i_glide_ligand_efficiency>  (95) 
-0.102013

>  <r_i_glide_ligand_efficiency_sa>  (95) 
-0.290112

>  <r_i_glide_ligand_efficiency_ln>  (95) 
-0.567358

>  <r_i_glide_gscore>  (95) 
-2.3463

>  <r_i_glide_lipo>  (95) 
-0.026821

>  <r_i_glide_hbond>  (95) 
0

>  <r_i_glide_metal>  (95) 
-0

>  <r_i_glide_rewards>  (95) 
-1.25158

>  <r_i_glide_evdw>  (95) 
-16.6699

>  <r_i_glide_ecoul>  (95) 
-1.31375

>  <r_i_glide_erotb>  (95) 
0

>  <r_i_glide_esite>  (95) 
-0.037344

>  <r_i_glide_emodel>  (95) 
-20.1413

>  <r_i_glide_energy>  (95) 
-17.9836

>  <r_i_glide_einternal>  (95) 
0.920866

>  <r_i_glide_intrahb_reward>  (95) 
-0

>  <i_i_glide_confnum>  (95) 
1

>  <i_i_glide_posenum>  (95) 
8

>  <r_i_glide_eff_state_penalty>  (95) 
0

>  <ligand_id>  (95) 
21

>  <original_smiles>  (95) 
COC1CCC2(C)CC3C4C=CC25C(C4)C(=O)CCC5(OC)C13

>  <smiles>  (95) 
[H]C1=C([H])C23C4([H])C(=O)C([H])([H])C([H])([H])C2(OC([H])([H])[H])C2([H])C([H])(OC([H])([H])[H])C([H])([H])C([H])([H])C3(C([H])([H])[H])C([H])([H])C2([H])C1([H])C4([H])[H]

$$$$
21:0:1
     RDKit          3D

 51 55  0  0  1  0  0  0  0  0999 V2000
    4.7628    4.4183    5.9792 C   0  0  0  0  0  0  0  0  0  0  0  0
    3.4253    4.0775    6.3188 O   0  0  0  0  0  0  0  0  0  0  0  0
    2.7901    3.1677    5.4214 C   0  0  2  0  0  0  0  0  0  0  0  0
    2.4710    3.8449    4.0580 C   0  0  0  0  0  0  0  0  0  0  0  0
    1.0365    3.7133    3.4477 C   0  0  0  0  0  0  0  0  0  0  0  0
   -0.2337    3.5228    4.3900 C   0  0  2  0  0  0  0  0  0  0  0  0
   -1.3212    4.2436    3.4859 C   0  0  0  0  0  0  0  0  0  0  0  0
    0.1159    4.4494    5.6183 C   0  0  0  0  0  0  0  0  0  0  0  0
    0.5611    3.5309    6.7745 C   0  0  1  0  0  0  0  0  0  0  0  0
   -0.6799    2.8722    7.5215 C   0  0  1  0  0  0  0  0  0  0  0  0
   -1.9276    3.1941    6.7636 C   0  0  0  0  0  0  0  0  0  0  0  0
   -1.8987    2.6856    5.5085 C   0  0  0  0  0  0  0  0  0  0  0  0
   -0.6620    1.9217    4.8442 C   0  0  1  0  0  0  0  0  0  0  0  0
   -1.1889    0.8798    6.0041 C   0  0  2  0  0  0  0  0  0  0  0  0
   -0.7687    1.3203    7.4874 C   0  0  0  0  0  0  0  0  0  0  0  0
   -0.9973   -0.6072    5.6738 C   0  0  0  0  0  0  0  0  0  0  0  0
   -1.9343   -1.3397    5.3540 O   0  0  0  0  0  0  0  0  0  0  0  0
    0.3992   -1.1379    5.7914 C   0  0  0  0  0  0  0  0  0  0  0  0
    1.3617    0.0372    5.8350 C   0  0  0  0  0  0  0  0  0  0  0  0
    0.8846    1.4554    5.2386 C   0  0  1  0  0  0  0  0  0  0  0  0
    1.5737    1.2173    3.9894 O   0  0  0  0  0  0  0  0  0  0  0  0
    0.9405    0.4668    2.9430 C   0  0  0  0  0  0  0  0  0  0  0  0
    1.5856    2.5301    6.1524 C   0  0  1  0  0  0  0  0  0  0  0  0
    5.1627    5.0944    6.7339 H   0  0  0  0  0  0  0  0  0  0  0  0
    4.8267    4.9299    5.0191 H   0  0  0  0  0  0  0  0  0  0  0  0
    5.4070    3.5393    5.9493 H   0  0  0  0  0  0  0  0  0  0  0  0
    3.4938    2.3527    5.2329 H   0  0  0  0  0  0  0  0  0  0  0  0
    2.6970    4.9093    4.1459 H   0  0  0  0  0  0  0  0  0  0  0  0
    3.1907    3.4822    3.3212 H   0  0  0  0  0  0  0  0  0  0  0  0
    0.9793    4.6561    2.9058 H   0  0  0  0  0  0  0  0  0  0  0  0
    1.0158    3.0142    2.6143 H   0  0  0  0  0  0  0  0  0  0  0  0
   -2.2005    4.5887    4.0268 H   0  0  0  0  0  0  0  0  0  0  0  0
   -1.6571    3.5799    2.6849 H   0  0  0  0  0  0  0  0  0  0  0  0
   -0.9683    5.1615    3.0144 H   0  0  0  0  0  0  0  0  0  0  0  0
    0.8845    5.1867    5.3987 H   0  0  0  0  0  0  0  0  0  0  0  0
   -0.7089    5.1062    5.9008 H   0  0  0  0  0  0  0  0  0  0  0  0
    1.0816    4.1473    7.5077 H   0  0  0  0  0  0  0  0  0  0  0  0
   -0.7605    3.2432    8.5447 H   0  0  0  0  0  0  0  0  0  0  0  0
   -2.7727    3.6783    7.2316 H   0  0  0  0  0  0  0  0  0  0  0  0
   -2.7963    2.7401    4.9108 H   0  0  0  0  0  0  0  0  0  0  0  0
   -2.2809    0.7479    6.0524 H   0  0  0  0  0  0  0  0  0  0  0  0
    0.1198    0.8696    7.9142 H   0  0  0  0  0  0  0  0  0  0  0  0
   -1.5608    1.0067    8.1683 H   0  0  0  0  0  0  0  0  0  0  0  0
    0.4874   -1.7222    6.7099 H   0  0  0  0  0  0  0  0  0  0  0  0
    0.6236   -1.8126    4.9671 H   0  0  0  0  0  0  0  0  0  0  0  0
    1.6840    0.0875    6.8716 H   0  0  0  0  0  0  0  0  0  0  0  0
    2.2972   -0.2881    5.3726 H   0  0  0  0  0  0  0  0  0  0  0  0
    1.5985    0.4841    2.0739 H   0  0  0  0  0  0  0  0  0  0  0  0
   -0.0067    0.8996    2.6181 H   0  0  0  0  0  0  0  0  0  0  0  0
    0.7750   -0.5784    3.1945 H   0  0  0  0  0  0  0  0  0  0  0  0
    2.0384    2.0697    7.0279 H   0  0  0  0  0  0  0  0  0  0  0  0
  1  2  1  0
  1 24  1  0
  1 25  1  0
  1 26  1  0
  2  3  1  0
  3 23  1  0
  3  4  1  0
  3 27  1  6
  4  5  1  0
  4 28  1  0
  4 29  1  0
  5  6  1  0
  5 30  1  0
  5 31  1  0
  6 13  1  0
  6  7  1  6
  6  8  1  0
  7 32  1  0
  7 33  1  0
  7 34  1  0
  8  9  1  0
  8 35  1  0
  8 36  1  0
  9 23  1  0
  9 10  1  0
  9 37  1  1
 10 15  1  0
 10 11  1  0
 10 38  1  1
 11 12  2  0
 11 39  1  0
 13 12  1  1
 12 40  1  0
 13 20  1  0
 13 14  1  0
 14 15  1  0
 14 16  1  0
 14 41  1  1
 15 42  1  0
 15 43  1  0
 16 17  2  0
 16 18  1  0
 18 19  1  0
 18 44  1  0
 18 45  1  0
 19 20  1  0
 19 46  1  0
 19 47  1  0
 20 21  1  6
 20 23  1  0
 21 22  1  0
 22 48  1  0
 22 49  1  0
 22 50  1  0
 23 51  1  1
M  END
>  <i_m_ct_stereo_status>  (96) 
1

>  <s_m_source_file>  (96) 
/var/tmp/pbs.5076255.sched01/tmp9d3cgwpa/0mc_8ktg4.sdf

>  <i_m_source_file_index>  (96) 
40

>  <i_lp_mmshare_version>  (96) 
48012

>  <i_f3d_flags>  (96) 
2

>  <s_epik_input>  (96) 
W0NIM11bQ0BAXTEoQzIzNClbQ0gyXVtDSDJdW0NAQEhdKE9bQ0gzXSlbQ0BIXTVbQ0BASF0oW0NIMl0xKVtDQEBIXShbQ0hdPVtDSF0yKVtDSDJdW0NAQEhdM0MoPU8pW0NIMl1bQ0gyXVtDQEBdNDVPW0NIM10=

>  <s_epik_cmdline>  (96) 
J2VwaWtfcHl0aG9uJywgJy1waHQnLCAnMi4wJywgJy1waCcsICc3LjAnLCAnLXRuJywgJzgnLCAnLW1hJywgJzIwMCcsICctaW1hZScsICc8aW5maWxlLm1hZT4nLCAnLW9tYWUnLCAnPG91dGZpbGUubWFlPic=

>  <r_lp_tautomer_probability>  (96) 
1

>  <r_epik_Ionization_Penalty>  (96) 
6.09323e-11

>  <r_epik_Ionization_Penalty_Charging>  (96) 
0

>  <r_epik_Ionization_Penalty_Neutral>  (96) 
6.09323e-11

>  <r_epik_State_Penalty>  (96) 
-0

>  <r_epik_Charging_Adjusted_Penalty>  (96) 
0

>  <i_epik_Tot_Q>  (96) 
0

>  <i_epik_Tot_abs_Q>  (96) 
0

>  <s_lp_Force_Field>  (96) 
OPLS3e

>  <r_lp_Energy>  (96) 
282.07

>  <b_lp_Chiralities_Consistent>  (96) 
0

>  <s_lp_Variant>  (96) 
21:0-1

>  <s_i_glide_gridfile>  (96) 
pfpi4k_grid

>  <i_i_glide_lignum>  (96) 
40

>  <i_i_glide_rotatable_bonds>  (96) 
2

>  <r_i_docking_score>  (96) 
-2.33669

>  <r_i_glide_ligand_efficiency>  (96) 
-0.101595

>  <r_i_glide_ligand_efficiency_sa>  (96) 
-0.288923

>  <r_i_glide_ligand_efficiency_ln>  (96) 
-0.565033

>  <r_i_glide_gscore>  (96) 
-2.33669

>  <r_i_glide_lipo>  (96) 
-0.120378

>  <r_i_glide_hbond>  (96) 
0

>  <r_i_glide_metal>  (96) 
-0

>  <r_i_glide_rewards>  (96) 
-1.25158

>  <r_i_glide_evdw>  (96) 
-16.973

>  <r_i_glide_ecoul>  (96) 
-0.446503

>  <r_i_glide_erotb>  (96) 
0

>  <r_i_glide_esite>  (96) 
-0.0491018

>  <r_i_glide_emodel>  (96) 
-20.0434

>  <r_i_glide_energy>  (96) 
-17.4195

>  <r_i_glide_einternal>  (96) 
0.0336596

>  <r_i_glide_intrahb_reward>  (96) 
-0

>  <i_i_glide_confnum>  (96) 
1

>  <i_i_glide_posenum>  (96) 
2

>  <r_i_glide_eff_state_penalty>  (96) 
0

>  <ligand_id>  (96) 
21

>  <original_smiles>  (96) 
COC1CCC2(C)CC3C4C=CC25C(C4)C(=O)CCC5(OC)C13

>  <smiles>  (96) 
[H]C1=C([H])C23C4([H])C(=O)C([H])([H])C([H])([H])C2(OC([H])([H])[H])C2([H])C([H])(OC([H])([H])[H])C([H])([H])C([H])([H])C3(C([H])([H])[H])C([H])([H])C2([H])C1([H])C4([H])[H]

$$$$
21:0:2
     RDKit          3D

 51 55  0  0  1  0  0  0  0  0999 V2000
    3.3802    5.6974    4.5679 C   0  0  0  0  0  0  0  0  0  0  0  0
    2.6529    4.6903    5.2640 O   0  0  0  0  0  0  0  0  0  0  0  0
    2.0927    3.6658    4.4413 C   0  0  2  0  0  0  0  0  0  0  0  0
    0.9831    4.2290    3.5100 C   0  0  0  0  0  0  0  0  0  0  0  0
   -0.4048    3.5075    3.4299 C   0  0  0  0  0  0  0  0  0  0  0  0
   -0.9618    2.6902    4.6761 C   0  0  2  0  0  0  0  0  0  0  0  0
   -2.5143    2.9202    4.4446 C   0  0  0  0  0  0  0  0  0  0  0  0
   -0.4918    3.5667    5.9003 C   0  0  0  0  0  0  0  0  0  0  0  0
    0.7209    2.8558    6.5350 C   0  0  1  0  0  0  0  0  0  0  0  0
    0.2783    1.6439    7.4676 C   0  0  1  0  0  0  0  0  0  0  0  0
   -1.1938    1.4302    7.3138 C   0  0  0  0  0  0  0  0  0  0  0  0
   -1.5223    1.0970    6.0431 C   0  0  0  0  0  0  0  0  0  0  0  0
   -0.5119    1.0374    4.8059 C   0  0  1  0  0  0  0  0  0  0  0  0
   -0.0444   -0.2248    5.7549 C   0  0  2  0  0  0  0  0  0  0  0  0
    0.7765    0.2305    7.0540 C   0  0  0  0  0  0  0  0  0  0  0  0
    0.5304   -1.4283    4.9961 C   0  0  0  0  0  0  0  0  0  0  0  0
   -0.1212   -2.4547    4.8046 O   0  0  0  0  0  0  0  0  0  0  0  0
    1.9256   -1.2790    4.4695 C   0  0  0  0  0  0  0  0  0  0  0  0
    2.2870    0.2000    4.4778 C   0  0  0  0  0  0  0  0  0  0  0  0
    1.1020    1.2902    4.4897 C   0  0  1  0  0  0  0  0  0  0  0  0
    1.2148    1.4997    3.0641 O   0  0  0  0  0  0  0  0  0  0  0  0
    0.5463    0.6280    2.1410 C   0  0  0  0  0  0  0  0  0  0  0  0
    1.6666    2.4873    5.3492 C   0  0  1  0  0  0  0  0  0  0  0  0
    3.7934    6.4002    5.2887 H   0  0  0  0  0  0  0  0  0  0  0  0
    2.7516    6.2728    3.8885 H   0  0  0  0  0  0  0  0  0  0  0  0
    4.2104    5.2822    3.9995 H   0  0  0  0  0  0  0  0  0  0  0  0
    2.8977    3.2862    3.8062 H   0  0  0  0  0  0  0  0  0  0  0  0
    0.7887    5.2658    3.7866 H   0  0  0  0  0  0  0  0  0  0  0  0
    1.4126    4.3002    2.5073 H   0  0  0  0  0  0  0  0  0  0  0  0
   -1.0393    4.3622    3.2060 H   0  0  0  0  0  0  0  0  0  0  0  0
   -0.5165    2.9402    2.5086 H   0  0  0  0  0  0  0  0  0  0  0  0
   -3.1235    2.8186    5.3435 H   0  0  0  0  0  0  0  0  0  0  0  0
   -2.9022    2.2406    3.6825 H   0  0  0  0  0  0  0  0  0  0  0  0
   -2.7674    3.9302    4.1315 H   0  0  0  0  0  0  0  0  0  0  0  0
   -0.2370    4.5877    5.6293 H   0  0  0  0  0  0  0  0  0  0  0  0
   -1.2916    3.7528    6.6197 H   0  0  0  0  0  0  0  0  0  0  0  0
    1.2309    3.5766    7.1718 H   0  0  0  0  0  0  0  0  0  0  0  0
    0.5169    1.8511    8.5125 H   0  0  0  0  0  0  0  0  0  0  0  0
   -1.8646    1.4528    8.1604 H   0  0  0  0  0  0  0  0  0  0  0  0
   -2.5385    0.7962    5.8392 H   0  0  0  0  0  0  0  0  0  0  0  0
   -0.8656   -0.8427    6.1502 H   0  0  0  0  0  0  0  0  0  0  0  0
    1.8593    0.1991    7.0026 H   0  0  0  0  0  0  0  0  0  0  0  0
    0.5461   -0.4732    7.8563 H   0  0  0  0  0  0  0  0  0  0  0  0
    2.6155   -1.8332    5.1085 H   0  0  0  0  0  0  0  0  0  0  0  0
    2.0053   -1.7105    3.4734 H   0  0  0  0  0  0  0  0  0  0  0  0
    2.9794    0.3038    5.3090 H   0  0  0  0  0  0  0  0  0  0  0  0
    2.9770    0.3783    3.6485 H   0  0  0  0  0  0  0  0  0  0  0  0
    0.6886    1.0223    1.1355 H   0  0  0  0  0  0  0  0  0  0  0  0
   -0.5323    0.5799    2.3017 H   0  0  0  0  0  0  0  0  0  0  0  0
    0.9402   -0.3865    2.1392 H   0  0  0  0  0  0  0  0  0  0  0  0
    2.5906    2.2101    5.8506 H   0  0  0  0  0  0  0  0  0  0  0  0
  1  2  1  0
  1 24  1  0
  1 25  1  0
  1 26  1  0
  2  3  1  0
  3 23  1  0
  3  4  1  0
  3 27  1  6
  4  5  1  0
  4 28  1  0
  4 29  1  0
  5  6  1  0
  5 30  1  0
  5 31  1  0
  6 13  1  0
  6  7  1  6
  6  8  1  0
  7 32  1  0
  7 33  1  0
  7 34  1  0
  8  9  1  0
  8 35  1  0
  8 36  1  0
  9 23  1  0
  9 10  1  0
  9 37  1  1
 10 15  1  0
 10 11  1  0
 10 38  1  1
 11 12  2  0
 11 39  1  0
 13 12  1  1
 12 40  1  0
 13 20  1  0
 13 14  1  0
 14 15  1  0
 14 16  1  0
 14 41  1  1
 15 42  1  0
 15 43  1  0
 16 17  2  0
 16 18  1  0
 18 19  1  0
 18 44  1  0
 18 45  1  0
 19 20  1  0
 19 46  1  0
 19 47  1  0
 20 21  1  6
 20 23  1  0
 21 22  1  0
 22 48  1  0
 22 49  1  0
 22 50  1  0
 23 51  1  1
M  END
>  <i_m_ct_stereo_status>  (97) 
1

>  <s_m_source_file>  (97) 
/var/tmp/pbs.5076255.sched01/tmp9d3cgwpa/0mc_8ktg4.sdf

>  <i_m_source_file_index>  (97) 
40

>  <i_lp_mmshare_version>  (97) 
48012

>  <i_f3d_flags>  (97) 
2

>  <s_epik_input>  (97) 
W0NIM11bQ0BAXTEoQzIzNClbQ0gyXVtDSDJdW0NAQEhdKE9bQ0gzXSlbQ0BIXTVbQ0BASF0oW0NIMl0xKVtDQEBIXShbQ0hdPVtDSF0yKVtDSDJdW0NAQEhdM0MoPU8pW0NIMl1bQ0gyXVtDQEBdNDVPW0NIM10=

>  <s_epik_cmdline>  (97) 
J2VwaWtfcHl0aG9uJywgJy1waHQnLCAnMi4wJywgJy1waCcsICc3LjAnLCAnLXRuJywgJzgnLCAnLW1hJywgJzIwMCcsICctaW1hZScsICc8aW5maWxlLm1hZT4nLCAnLW9tYWUnLCAnPG91dGZpbGUubWFlPic=

>  <r_lp_tautomer_probability>  (97) 
1

>  <r_epik_Ionization_Penalty>  (97) 
6.09323e-11

>  <r_epik_Ionization_Penalty_Charging>  (97) 
0

>  <r_epik_Ionization_Penalty_Neutral>  (97) 
6.09323e-11

>  <r_epik_State_Penalty>  (97) 
-0

>  <r_epik_Charging_Adjusted_Penalty>  (97) 
0

>  <i_epik_Tot_Q>  (97) 
0

>  <i_epik_Tot_abs_Q>  (97) 
0

>  <s_lp_Force_Field>  (97) 
OPLS3e

>  <r_lp_Energy>  (97) 
282.07

>  <b_lp_Chiralities_Consistent>  (97) 
0

>  <s_lp_Variant>  (97) 
21:0-1

>  <s_i_glide_gridfile>  (97) 
pfpi4k_grid

>  <i_i_glide_lignum>  (97) 
40

>  <i_i_glide_rotatable_bonds>  (97) 
2

>  <r_i_docking_score>  (97) 
-1.92407

>  <r_i_glide_ligand_efficiency>  (97) 
-0.083655

>  <r_i_glide_ligand_efficiency_sa>  (97) 
-0.237904

>  <r_i_glide_ligand_efficiency_ln>  (97) 
-0.465256

>  <r_i_glide_gscore>  (97) 
-1.92407

>  <r_i_glide_lipo>  (97) 
0

>  <r_i_glide_hbond>  (97) 
0

>  <r_i_glide_metal>  (97) 
-0

>  <r_i_glide_rewards>  (97) 
-1.25158

>  <r_i_glide_evdw>  (97) 
-16.0094

>  <r_i_glide_ecoul>  (97) 
0.898046

>  <r_i_glide_erotb>  (97) 
0

>  <r_i_glide_esite>  (97) 
-0.00672118

>  <r_i_glide_emodel>  (97) 
-17.1155

>  <r_i_glide_energy>  (97) 
-15.1113

>  <r_i_glide_einternal>  (97) 
0.203609

>  <r_i_glide_intrahb_reward>  (97) 
-0

>  <i_i_glide_confnum>  (97) 
2

>  <i_i_glide_posenum>  (97) 
15

>  <r_i_glide_eff_state_penalty>  (97) 
0

>  <ligand_id>  (97) 
21

>  <original_smiles>  (97) 
COC1CCC2(C)CC3C4C=CC25C(C4)C(=O)CCC5(OC)C13

>  <smiles>  (97) 
[H]C1=C([H])C23C4([H])C(=O)C([H])([H])C([H])([H])C2(OC([H])([H])[H])C2([H])C([H])(OC([H])([H])[H])C([H])([H])C([H])([H])C3(C([H])([H])[H])C([H])([H])C2([H])C1([H])C4([H])[H]

$$$$
22:0:0
     RDKit          3D

 80 85  0  0  1  0  0  0  0  0999 V2000
    3.4353    0.0383   -4.8064 C   0  0  0  0  0  0  0  0  0  0  0  0
    4.1804   -1.1706   -4.7107 O   0  0  0  0  0  0  0  0  0  0  0  0
    4.1392   -1.8712   -3.5256 C   0  0  0  0  0  0  0  0  0  0  0  0
    4.8488   -3.0871   -3.4542 C   0  0  0  0  0  0  0  0  0  0  0  0
    4.8790   -3.8353   -2.2681 C   0  0  0  0  0  0  0  0  0  0  0  0
    4.1715   -3.4054   -1.1322 C   0  0  0  0  0  0  0  0  0  0  0  0
    4.1352   -4.3017    0.0996 C   0  0  0  0  0  0  0  0  0  0  0  0
    3.9823   -3.6676    1.4155 N   0  0  0  0  0  0  0  0  0  0  0  0
    4.6313   -2.5452    1.7602 C   0  0  0  0  0  0  0  0  0  0  0  0
    5.6466   -2.0956    1.2258 O   0  0  0  0  0  0  0  0  0  0  0  0
    3.8947   -1.8134    2.8599 C   0  0  1  0  0  0  0  0  0  0  0  0
    3.7271   -0.3108    2.5699 C   0  0  0  0  0  0  0  0  0  0  0  0
    2.5713   -2.5994    2.9377 C   0  0  2  0  0  0  0  0  0  0  0  0
    1.8789   -2.3991    4.3002 C   0  0  0  0  0  0  0  0  0  0  0  0
    0.7817   -3.3909    4.6669 C   0  0  0  0  0  0  0  0  0  0  0  0
    1.3329   -4.7095    5.2210 C   0  0  1  0  0  0  0  0  0  0  0  0
    0.2557   -5.4325    6.0577 C   0  0  0  0  0  0  0  0  0  0  0  0
    1.8970   -5.6468    4.1278 C   0  0  1  0  0  0  0  0  0  0  0  0
    0.7993   -5.9397    3.2759 O   0  0  0  0  0  0  0  0  0  0  0  0
    0.6959   -7.1970    2.6123 C   0  0  2  0  0  0  0  0  0  0  0  0
   -0.7986   -7.1647    2.2375 C   0  0  0  0  0  0  0  0  0  0  0  0
    0.9276   -8.4667    3.4922 C   0  0  0  0  0  0  0  0  0  0  0  0
    2.2910   -9.2071    3.4817 C   0  0  0  0  0  0  0  0  0  0  0  0
    3.4748   -8.5748    4.2417 C   0  0  0  0  0  0  0  0  0  0  0  0
    4.3481   -7.5871    3.5221 N   0  0  2  0  0  0  0  0  0  0  0  0
    5.3888   -7.0403    4.4328 C   0  0  0  0  0  0  0  0  0  0  0  0
    4.8440   -5.8690    5.2500 C   0  0  0  0  0  0  0  0  0  0  0  0
    4.3288   -4.7724    4.3129 C   0  0  0  0  0  0  0  0  0  0  0  0
    3.1921   -5.2300    3.3385 C   0  0  1  0  0  0  0  0  0  0  0  0
    3.7628   -6.5292    2.6124 C   0  0  2  0  0  0  0  0  0  0  0  0
    3.0422   -7.1840    1.3973 C   0  0  0  0  0  0  0  0  0  0  0  0
    1.5055   -7.1262    1.3071 C   0  0  0  0  0  0  0  0  0  0  0  0
    2.8814   -4.0184    2.3430 C   0  0  2  0  0  0  0  0  0  0  0  0
    3.4222   -2.2160   -1.2064 C   0  0  0  0  0  0  0  0  0  0  0  0
    3.4171   -1.4447   -2.3799 C   0  0  0  0  0  0  0  0  0  0  0  0
    3.5712    0.4626   -5.8005 H   0  0  0  0  0  0  0  0  0  0  0  0
    3.7771    0.7784   -4.0813 H   0  0  0  0  0  0  0  0  0  0  0  0
    2.3684   -0.1399   -4.6687 H   0  0  0  0  0  0  0  0  0  0  0  0
    5.3806   -3.4759   -4.3109 H   0  0  0  0  0  0  0  0  0  0  0  0
    5.4123   -4.7700   -2.2564 H   0  0  0  0  0  0  0  0  0  0  0  0
    3.2481   -4.8898   -0.1032 H   0  0  0  0  0  0  0  0  0  0  0  0
    5.0113   -4.9552    0.1082 H   0  0  0  0  0  0  0  0  0  0  0  0
    4.4856   -1.9359    3.7670 H   0  0  0  0  0  0  0  0  0  0  0  0
    4.6964    0.1830    2.4926 H   0  0  0  0  0  0  0  0  0  0  0  0
    3.1763    0.1860    3.3675 H   0  0  0  0  0  0  0  0  0  0  0  0
    3.1939   -0.1283    1.6363 H   0  0  0  0  0  0  0  0  0  0  0  0
    1.8954   -2.1440    2.2075 H   0  0  0  0  0  0  0  0  0  0  0  0
    2.6048   -2.3391    5.1091 H   0  0  0  0  0  0  0  0  0  0  0  0
    1.4293   -1.4062    4.2798 H   0  0  0  0  0  0  0  0  0  0  0  0
    0.1838   -2.9228    5.4469 H   0  0  0  0  0  0  0  0  0  0  0  0
    0.1098   -3.5509    3.8282 H   0  0  0  0  0  0  0  0  0  0  0  0
    2.1262   -4.4823    5.9317 H   0  0  0  0  0  0  0  0  0  0  0  0
   -0.6201   -5.6885    5.4608 H   0  0  0  0  0  0  0  0  0  0  0  0
   -0.0829   -4.8115    6.8873 H   0  0  0  0  0  0  0  0  0  0  0  0
    0.6366   -6.3575    6.4930 H   0  0  0  0  0  0  0  0  0  0  0  0
    2.1224   -6.5265    4.7008 H   0  0  0  0  0  0  0  0  0  0  0  0
   -1.0920   -8.0260    1.6356 H   0  0  0  0  0  0  0  0  0  0  0  0
   -1.0213   -6.2754    1.6538 H   0  0  0  0  0  0  0  0  0  0  0  0
   -1.4313   -7.1547    3.1275 H   0  0  0  0  0  0  0  0  0  0  0  0
    0.6168   -8.2676    4.5187 H   0  0  0  0  0  0  0  0  0  0  0  0
    0.2198   -9.2276    3.1512 H   0  0  0  0  0  0  0  0  0  0  0  0
    2.0979  -10.1358    4.0156 H   0  0  0  0  0  0  0  0  0  0  0  0
    2.5576   -9.5769    2.4938 H   0  0  0  0  0  0  0  0  0  0  0  0
    3.1647   -8.2257    5.2234 H   0  0  0  0  0  0  0  0  0  0  0  0
    4.1472   -9.4001    4.4712 H   0  0  0  0  0  0  0  0  0  0  0  0
    5.7576   -7.8178    5.1025 H   0  0  0  0  0  0  0  0  0  0  0  0
    6.2489   -6.7120    3.8491 H   0  0  0  0  0  0  0  0  0  0  0  0
    4.0560   -6.1924    5.9359 H   0  0  0  0  0  0  0  0  0  0  0  0
    5.6393   -5.4664    5.8780 H   0  0  0  0  0  0  0  0  0  0  0  0
    4.0347   -3.9263    4.9269 H   0  0  0  0  0  0  0  0  0  0  0  0
    5.1911   -4.4225    3.7445 H   0  0  0  0  0  0  0  0  0  0  0  0
    4.6775   -6.1691    2.1448 H   0  0  0  0  0  0  0  0  0  0  0  0
    3.4373   -6.7872    0.4767 H   0  0  0  0  0  0  0  0  0  0  0  0
    3.3867   -8.2087    1.2701 H   0  0  0  0  0  0  0  0  0  0  0  0
    1.1733   -7.9368    0.6579 H   0  0  0  0  0  0  0  0  0  0  0  0
    1.2171   -6.2214    0.7698 H   0  0  0  0  0  0  0  0  0  0  0  0
    2.0231   -4.3031    1.7353 H   0  0  0  0  0  0  0  0  0  0  0  0
    2.8285   -1.8868   -0.3671 H   0  0  0  0  0  0  0  0  0  0  0  0
    2.8277   -0.5402   -2.3790 H   0  0  0  0  0  0  0  0  0  0  0  0
    4.8642   -8.1775    2.8826 H   0  0  0  0  0  0  0  0  0  0  0  0
  1  2  1  0
  1 36  1  0
  1 37  1  0
  1 38  1  0
  2  3  1  0
  3 35  2  0
  3  4  1  0
  4  5  2  0
  4 39  1  0
  5  6  1  0
  5 40  1  0
  6  7  1  0
  6 34  2  0
  7  8  1  0
  7 41  1  0
  7 42  1  0
  8 33  1  0
  8  9  1  0
  9 10  2  0
  9 11  1  0
 11 12  1  0
 11 13  1  0
 11 43  1  1
 12 44  1  0
 12 45  1  0
 12 46  1  0
 13 33  1  0
 13 14  1  0
 13 47  1  6
 14 15  1  0
 14 48  1  0
 14 49  1  0
 15 16  1  0
 15 50  1  0
 15 51  1  0
 16 17  1  0
 16 18  1  0
 16 52  1  1
 17 53  1  0
 17 54  1  0
 17 55  1  0
 18 29  1  0
 18 19  1  0
 18 56  1  1
 19 20  1  0
 20 32  1  0
 20 21  1  6
 20 22  1  0
 21 57  1  0
 21 58  1  0
 21 59  1  0
 22 23  1  0
 22 60  1  0
 22 61  1  0
 23 24  1  0
 23 62  1  0
 23 63  1  0
 24 25  1  0
 24 64  1  0
 24 65  1  0
 25 30  1  0
 25 26  1  0
 25 80  1  6
 26 27  1  0
 26 66  1  0
 26 67  1  0
 27 28  1  0
 27 68  1  0
 27 69  1  0
 29 28  1  1
 28 70  1  0
 28 71  1  0
 29 30  1  0
 29 33  1  0
 30 31  1  0
 30 72  1  6
 31 32  1  0
 31 73  1  0
 31 74  1  0
 32 75  1  0
 32 76  1  0
 33 77  1  6
 34 35  1  0
 34 78  1  0
 35 79  1  0
M  CHG  1  25   1
M  END
>  <i_m_ct_stereo_status>  (98) 
1

>  <s_m_source_file>  (98) 
/var/tmp/pbs.5076255.sched01/tmp9d3cgwpa/0mc_8ktg4.sdf

>  <i_m_source_file_index>  (98) 
41

>  <i_lp_mmshare_version>  (98) 
48012

>  <i_f3d_flags>  (98) 
0

>  <s_epik_input>  (98) 
W0NIM11PYzFbY0hdW2NIXWMoW2NIXVtjSF0xKVtDSDJdTihDKD1PKVtDQEhdMltDSDNdKVtDQEBIXTNbQ0BIXTJbQ0gyXVtDSDJdW0NAQEhdKFtDSDNdKVtDQEhdKFtDQEBdMzQ1KU9bQ0BdNihbQ0gzXSlbQ0gyXVtDSDJdW0NIMl1OKFtDSDJdW0NIMl1bQ0gyXTQpW0NIXTVbQ0gyXVtDSDJdNg==

>  <s_epik_cmdline>  (98) 
J2VwaWtfcHl0aG9uJywgJy1waHQnLCAnMi4wJywgJy1waCcsICc3LjAnLCAnLXRuJywgJzgnLCAnLW1hJywgJzIwMCcsICctaW1hZScsICc8aW5maWxlLm1hZT4nLCAnLW9tYWUnLCAnPG91dGZpbGUubWFlPic=

>  <r_lp_tautomer_probability>  (98) 
1

>  <r_epik_Ionization_Penalty>  (98) 
0.000227562

>  <r_epik_Ionization_Penalty_Charging>  (98) 
0.000227557

>  <r_epik_Ionization_Penalty_Neutral>  (98) 
4.35863e-09

>  <r_epik_State_Penalty>  (98) 
-0

>  <r_epik_Charging_Adjusted_Penalty>  (98) 
0.000227557

>  <i_epik_Tot_Q>  (98) 
1

>  <i_epik_Tot_abs_Q>  (98) 
1

>  <s_lp_Force_Field>  (98) 
OPLS3e

>  <r_lp_Energy>  (98) 
87.9258

>  <b_lp_Chiralities_Consistent>  (98) 
1

>  <s_lp_Variant>  (98) 
22:0-1

>  <s_i_glide_gridfile>  (98) 
pfpi4k_grid

>  <i_i_glide_lignum>  (98) 
41

>  <i_i_glide_rotatable_bonds>  (98) 
3

>  <r_i_docking_score>  (98) 
-3.11671

>  <r_i_glide_ligand_efficiency>  (98) 
-0.0890489

>  <r_i_glide_ligand_efficiency_sa>  (98) 
-0.291285

>  <r_i_glide_ligand_efficiency_ln>  (98) 
-0.684187

>  <r_i_glide_gscore>  (98) 
-3.11671

>  <r_i_glide_lipo>  (98) 
-0.658799

>  <r_i_glide_hbond>  (98) 
-0.32

>  <r_i_glide_metal>  (98) 
-0

>  <r_i_glide_rewards>  (98) 
-0.17268

>  <r_i_glide_evdw>  (98) 
-30.8024

>  <r_i_glide_ecoul>  (98) 
-3.99995

>  <r_i_glide_erotb>  (98) 
0.174879

>  <r_i_glide_esite>  (98) 
0

>  <r_i_glide_emodel>  (98) 
-43.3453

>  <r_i_glide_energy>  (98) 
-34.8023

>  <r_i_glide_einternal>  (98) 
1.03238

>  <r_i_glide_intrahb_reward>  (98) 
-0

>  <i_i_glide_confnum>  (98) 
1

>  <i_i_glide_posenum>  (98) 
2

>  <r_i_glide_eff_state_penalty>  (98) 
0

>  <ligand_id>  (98) 
22

>  <original_smiles>  (98) 
COc1ccc(CN2C(=O)C(C)C3CCC(C)C4OC5(C)CCCN6CCCC4(C6CC5)C32)cc1

>  <smiles>  (98) 
[H]c1c([H])c(C([H])([H])N2C(=O)C([H])(C([H])([H])[H])C3([H])C([H])([H])C([H])([H])C([H])(C([H])([H])[H])C4([H])OC5(C([H])([H])[H])C([H])([H])C([H])([H])C([H])([H])[N+]6([H])C([H])([H])C([H])([H])C([H])([H])C4(C23[H])C6([H])C([H])([H])C5([H])[H])c([H])c([H])c1OC([H])([H])[H]

$$$$
22:0:1
     RDKit          3D

 80 85  0  0  1  0  0  0  0  0999 V2000
   -0.6470   -0.5069    5.0999 C   0  0  0  0  0  0  0  0  0  0  0  0
   -1.0579   -1.5746    5.9415 O   0  0  0  0  0  0  0  0  0  0  0  0
   -0.4794   -2.8076    5.7390 C   0  0  0  0  0  0  0  0  0  0  0  0
   -0.9397   -3.8706    6.5480 C   0  0  0  0  0  0  0  0  0  0  0  0
   -0.4383   -5.1762    6.3779 C   0  0  0  0  0  0  0  0  0  0  0  0
    0.5301   -5.4441    5.3888 C   0  0  0  0  0  0  0  0  0  0  0  0
    1.1253   -6.8438    5.2912 C   0  0  0  0  0  0  0  0  0  0  0  0
    1.5463   -7.3435    3.9786 N   0  0  0  0  0  0  0  0  0  0  0  0
    0.7840   -7.2080    2.8752 C   0  0  0  0  0  0  0  0  0  0  0  0
   -0.4161   -6.9585    2.8565 O   0  0  0  0  0  0  0  0  0  0  0  0
    1.6240   -7.2678    1.6226 C   0  0  1  0  0  0  0  0  0  0  0  0
    1.2780   -6.1440    0.6341 C   0  0  0  0  0  0  0  0  0  0  0  0
    3.0531   -7.1847    2.1966 C   0  0  2  0  0  0  0  0  0  0  0  0
    4.0947   -7.7138    1.1929 C   0  0  0  0  0  0  0  0  0  0  0  0
    5.4756   -8.0452    1.7501 C   0  0  0  0  0  0  0  0  0  0  0  0
    5.5177   -9.4248    2.4180 C   0  0  1  0  0  0  0  0  0  0  0  0
    6.9663   -9.9457    2.4639 C   0  0  0  0  0  0  0  0  0  0  0  0
    4.8914   -9.4398    3.8285 C   0  0  1  0  0  0  0  0  0  0  0  0
    5.6661   -8.5336    4.5966 O   0  0  0  0  0  0  0  0  0  0  0  0
    5.8758   -8.7318    5.9921 C   0  0  2  0  0  0  0  0  0  0  0  0
    7.0828   -7.7935    6.2052 C   0  0  0  0  0  0  0  0  0  0  0  0
    6.3152  -10.1671    6.4242 C   0  0  0  0  0  0  0  0  0  0  0  0
    5.2872  -11.1772    6.9981 C   0  0  0  0  0  0  0  0  0  0  0  0
    4.3040  -11.8591    6.0252 C   0  0  0  0  0  0  0  0  0  0  0  0
    3.0177  -11.1859    5.6931 N   0  0  2  0  0  0  0  0  0  0  0  0
    2.2443  -11.9476    4.6999 C   0  0  0  0  0  0  0  0  0  0  0  0
    2.6994  -11.6331    3.2825 C   0  0  0  0  0  0  0  0  0  0  0  0
    2.5377  -10.1365    3.0122 C   0  0  0  0  0  0  0  0  0  0  0  0
    3.3443   -9.2182    3.9908 C   0  0  1  0  0  0  0  0  0  0  0  0
    2.9360   -9.7004    5.4558 C   0  0  2  0  0  0  0  0  0  0  0  0
    3.3533   -8.9237    6.7419 C   0  0  0  0  0  0  0  0  0  0  0  0
    4.6808   -8.1403    6.7552 C   0  0  0  0  0  0  0  0  0  0  0  0
    2.9529   -7.7025    3.6752 C   0  0  2  0  0  0  0  0  0  0  0  0
    1.0265   -4.3856    4.6030 C   0  0  0  0  0  0  0  0  0  0  0  0
    0.5237   -3.0768    4.7650 C   0  0  0  0  0  0  0  0  0  0  0  0
   -1.1749    0.3985    5.3937 H   0  0  0  0  0  0  0  0  0  0  0  0
   -0.8884   -0.7102    4.0563 H   0  0  0  0  0  0  0  0  0  0  0  0
    0.4216   -0.3110    5.1932 H   0  0  0  0  0  0  0  0  0  0  0  0
   -1.7027   -3.6928    7.2906 H   0  0  0  0  0  0  0  0  0  0  0  0
   -0.7940   -5.9619    7.0236 H   0  0  0  0  0  0  0  0  0  0  0  0
    2.0175   -6.6886    5.8888 H   0  0  0  0  0  0  0  0  0  0  0  0
    0.4700   -7.5824    5.7715 H   0  0  0  0  0  0  0  0  0  0  0  0
    1.4308   -8.2312    1.1511 H   0  0  0  0  0  0  0  0  0  0  0  0
    0.2438   -6.2374    0.2964 H   0  0  0  0  0  0  0  0  0  0  0  0
    1.9107   -6.1778   -0.2520 H   0  0  0  0  0  0  0  0  0  0  0  0
    1.4217   -5.1646    1.0926 H   0  0  0  0  0  0  0  0  0  0  0  0
    3.2861   -6.1207    2.3007 H   0  0  0  0  0  0  0  0  0  0  0  0
    3.7147   -8.5698    0.6378 H   0  0  0  0  0  0  0  0  0  0  0  0
    4.2215   -6.9456    0.4286 H   0  0  0  0  0  0  0  0  0  0  0  0
    6.1551   -8.0681    0.8948 H   0  0  0  0  0  0  0  0  0  0  0  0
    5.8449   -7.2577    2.4077 H   0  0  0  0  0  0  0  0  0  0  0  0
    4.9933  -10.1398    1.7838 H   0  0  0  0  0  0  0  0  0  0  0  0
    7.6260   -9.2866    3.0302 H   0  0  0  0  0  0  0  0  0  0  0  0
    7.3589  -10.0222    1.4529 H   0  0  0  0  0  0  0  0  0  0  0  0
    7.0333  -10.9417    2.9036 H   0  0  0  0  0  0  0  0  0  0  0  0
    5.1282  -10.4376    4.1473 H   0  0  0  0  0  0  0  0  0  0  0  0
    7.3744   -7.7268    7.2533 H   0  0  0  0  0  0  0  0  0  0  0  0
    6.8621   -6.7818    5.8667 H   0  0  0  0  0  0  0  0  0  0  0  0
    7.9525   -8.1367    5.6426 H   0  0  0  0  0  0  0  0  0  0  0  0
    6.8937  -10.6320    5.6234 H   0  0  0  0  0  0  0  0  0  0  0  0
    7.0421  -10.0460    7.2330 H   0  0  0  0  0  0  0  0  0  0  0  0
    5.8934  -11.9906    7.3819 H   0  0  0  0  0  0  0  0  0  0  0  0
    4.8137  -10.8183    7.9076 H   0  0  0  0  0  0  0  0  0  0  0  0
    4.8314  -12.2203    5.1453 H   0  0  0  0  0  0  0  0  0  0  0  0
    4.0030  -12.7812    6.5174 H   0  0  0  0  0  0  0  0  0  0  0  0
    2.3682  -13.0090    4.8818 H   0  0  0  0  0  0  0  0  0  0  0  0
    1.1799  -11.7452    4.8104 H   0  0  0  0  0  0  0  0  0  0  0  0
    3.7286  -11.9512    3.1035 H   0  0  0  0  0  0  0  0  0  0  0  0
    2.0959  -12.2050    2.5832 H   0  0  0  0  0  0  0  0  0  0  0  0
    2.7864   -9.9637    1.9669 H   0  0  0  0  0  0  0  0  0  0  0  0
    1.4711   -9.9229    3.0923 H   0  0  0  0  0  0  0  0  0  0  0  0
    1.8569   -9.5654    5.4680 H   0  0  0  0  0  0  0  0  0  0  0  0
    2.5730   -8.2460    7.0482 H   0  0  0  0  0  0  0  0  0  0  0  0
    3.2841   -9.5783    7.6096 H   0  0  0  0  0  0  0  0  0  0  0  0
    4.9650   -7.9963    7.7997 H   0  0  0  0  0  0  0  0  0  0  0  0
    4.5100   -7.1281    6.3822 H   0  0  0  0  0  0  0  0  0  0  0  0
    3.5954   -7.0629    4.2822 H   0  0  0  0  0  0  0  0  0  0  0  0
    1.8106   -4.5608    3.8848 H   0  0  0  0  0  0  0  0  0  0  0  0
    0.9172   -2.3018    4.1260 H   0  0  0  0  0  0  0  0  0  0  0  0
    2.4668  -11.3482    6.5462 H   0  0  0  0  0  0  0  0  0  0  0  0
  1  2  1  0
  1 36  1  0
  1 37  1  0
  1 38  1  0
  2  3  1  0
  3 35  2  0
  3  4  1  0
  4  5  2  0
  4 39  1  0
  5  6  1  0
  5 40  1  0
  6  7  1  0
  6 34  2  0
  7  8  1  0
  7 41  1  0
  7 42  1  0
  8 33  1  0
  8  9  1  0
  9 10  2  0
  9 11  1  0
 11 12  1  0
 11 13  1  0
 11 43  1  6
 12 44  1  0
 12 45  1  0
 12 46  1  0
 13 33  1  0
 13 14  1  0
 13 47  1  1
 14 15  1  0
 14 48  1  0
 14 49  1  0
 15 16  1  0
 15 50  1  0
 15 51  1  0
 16 17  1  0
 16 18  1  0
 16 52  1  6
 17 53  1  0
 17 54  1  0
 17 55  1  0
 18 29  1  0
 18 19  1  0
 18 56  1  1
 19 20  1  0
 20 32  1  0
 20 21  1  1
 20 22  1  0
 21 57  1  0
 21 58  1  0
 21 59  1  0
 22 23  1  0
 22 60  1  0
 22 61  1  0
 23 24  1  0
 23 62  1  0
 23 63  1  0
 24 25  1  0
 24 64  1  0
 24 65  1  0
 25 30  1  0
 25 26  1  0
 25 80  1  1
 26 27  1  0
 26 66  1  0
 26 67  1  0
 27 28  1  0
 27 68  1  0
 27 69  1  0
 29 28  1  6
 28 70  1  0
 28 71  1  0
 29 30  1  0
 29 33  1  0
 30 31  1  0
 30 72  1  6
 31 32  1  0
 31 73  1  0
 31 74  1  0
 32 75  1  0
 32 76  1  0
 33 77  1  1
 34 35  1  0
 34 78  1  0
 35 79  1  0
M  CHG  1  25   1
M  END
>  <i_m_ct_stereo_status>  (99) 
1

>  <s_m_source_file>  (99) 
/var/tmp/pbs.5076255.sched01/tmp9d3cgwpa/0mc_8ktg4.sdf

>  <i_m_source_file_index>  (99) 
41

>  <i_lp_mmshare_version>  (99) 
48012

>  <i_f3d_flags>  (99) 
0

>  <s_epik_input>  (99) 
W0NIM11PYzFbY0hdW2NIXWMoW2NIXVtjSF0xKVtDSDJdTihDKD1PKVtDQEhdMltDSDNdKVtDQEBIXTNbQ0BIXTJbQ0gyXVtDSDJdW0NAQEhdKFtDSDNdKVtDQEhdKFtDQEBdMzQ1KU9bQ0BdNihbQ0gzXSlbQ0gyXVtDSDJdW0NIMl1OKFtDSDJdW0NIMl1bQ0gyXTQpW0NIXTVbQ0gyXVtDSDJdNg==

>  <s_epik_cmdline>  (99) 
J2VwaWtfcHl0aG9uJywgJy1waHQnLCAnMi4wJywgJy1waCcsICc3LjAnLCAnLXRuJywgJzgnLCAnLW1hJywgJzIwMCcsICctaW1hZScsICc8aW5maWxlLm1hZT4nLCAnLW9tYWUnLCAnPG91dGZpbGUubWFlPic=

>  <r_lp_tautomer_probability>  (99) 
1

>  <r_epik_Ionization_Penalty>  (99) 
0.000227562

>  <r_epik_Ionization_Penalty_Charging>  (99) 
0.000227557

>  <r_epik_Ionization_Penalty_Neutral>  (99) 
4.35863e-09

>  <r_epik_State_Penalty>  (99) 
-0

>  <r_epik_Charging_Adjusted_Penalty>  (99) 
0.000227557

>  <i_epik_Tot_Q>  (99) 
1

>  <i_epik_Tot_abs_Q>  (99) 
1

>  <s_lp_Force_Field>  (99) 
OPLS3e

>  <r_lp_Energy>  (99) 
87.9258

>  <b_lp_Chiralities_Consistent>  (99) 
1

>  <s_lp_Variant>  (99) 
22:0-1

>  <s_i_glide_gridfile>  (99) 
pfpi4k_grid

>  <i_i_glide_lignum>  (99) 
41

>  <i_i_glide_rotatable_bonds>  (99) 
3

>  <r_i_docking_score>  (99) 
-2.98941

>  <r_i_glide_ligand_efficiency>  (99) 
-0.0854118

>  <r_i_glide_ligand_efficiency_sa>  (99) 
-0.279388

>  <r_i_glide_ligand_efficiency_ln>  (99) 
-0.656243

>  <r_i_glide_gscore>  (99) 
-2.98941

>  <r_i_glide_lipo>  (99) 
-0.187419

>  <r_i_glide_hbond>  (99) 
-0.32943

>  <r_i_glide_metal>  (99) 
-0

>  <r_i_glide_rewards>  (99) 
-0.124842

>  <r_i_glide_evdw>  (99) 
-23.2194

>  <r_i_glide_ecoul>  (99) 
-8.20947

>  <r_i_glide_erotb>  (99) 
0.174879

>  <r_i_glide_esite>  (99) 
-0.130212

>  <r_i_glide_emodel>  (99) 
-39.7125

>  <r_i_glide_energy>  (99) 
-31.4289

>  <r_i_glide_einternal>  (99) 
0.557845

>  <r_i_glide_intrahb_reward>  (99) 
-0

>  <i_i_glide_confnum>  (99) 
1

>  <i_i_glide_posenum>  (99) 
24

>  <r_i_glide_eff_state_penalty>  (99) 
0

>  <ligand_id>  (99) 
22

>  <original_smiles>  (99) 
COc1ccc(CN2C(=O)C(C)C3CCC(C)C4OC5(C)CCCN6CCCC4(C6CC5)C32)cc1

>  <smiles>  (99) 
[H]c1c([H])c(C([H])([H])N2C(=O)C([H])(C([H])([H])[H])C3([H])C([H])([H])C([H])([H])C([H])(C([H])([H])[H])C4([H])OC5(C([H])([H])[H])C([H])([H])C([H])([H])C([H])([H])[N+]6([H])C([H])([H])C([H])([H])C([H])([H])C4(C23[H])C6([H])C([H])([H])C5([H])[H])c([H])c([H])c1OC([H])([H])[H]

$$$$
22:0:2
     RDKit          3D

 80 85  0  0  1  0  0  0  0  0999 V2000
    3.5443   -0.6912   -4.0973 C   0  0  0  0  0  0  0  0  0  0  0  0
    4.5900   -1.5448   -3.6585 O   0  0  0  0  0  0  0  0  0  0  0  0
    4.3439   -2.3862   -2.5928 C   0  0  0  0  0  0  0  0  0  0  0  0
    5.4336   -3.1265   -2.0968 C   0  0  0  0  0  0  0  0  0  0  0  0
    5.2675   -4.0036   -1.0043 C   0  0  0  0  0  0  0  0  0  0  0  0
    4.0089   -4.1521   -0.3935 C   0  0  0  0  0  0  0  0  0  0  0  0
    3.8009   -5.1516    0.7389 C   0  0  0  0  0  0  0  0  0  0  0  0
    3.8574   -4.6365    2.1148 N   0  0  0  0  0  0  0  0  0  0  0  0
    4.7192   -3.6861    2.5126 C   0  0  0  0  0  0  0  0  0  0  0  0
    5.7643   -3.3621    1.9510 O   0  0  0  0  0  0  0  0  0  0  0  0
    4.2151   -2.9759    3.7484 C   0  0  1  0  0  0  0  0  0  0  0  0
    4.3069   -1.4438    3.6305 C   0  0  0  0  0  0  0  0  0  0  0  0
    2.7812   -3.5274    3.8681 C   0  0  2  0  0  0  0  0  0  0  0  0
    2.2339   -3.3681    5.2989 C   0  0  0  0  0  0  0  0  0  0  0  0
    1.0027   -4.1905    5.6583 C   0  0  0  0  0  0  0  0  0  0  0  0
    1.3507   -5.6354    6.0318 C   0  0  1  0  0  0  0  0  0  0  0  0
    0.2228   -6.2466    6.8859 C   0  0  0  0  0  0  0  0  0  0  0  0
    1.6564   -6.5280    4.8061 C   0  0  1  0  0  0  0  0  0  0  0  0
    0.4656   -6.5299    4.0330 O   0  0  0  0  0  0  0  0  0  0  0  0
    0.0900   -7.6702    3.2649 C   0  0  2  0  0  0  0  0  0  0  0  0
   -1.4014   -7.3576    3.0318 C   0  0  0  0  0  0  0  0  0  0  0  0
    0.1509   -9.0519    3.9879 C   0  0  0  0  0  0  0  0  0  0  0  0
    1.3511  -10.0094    3.7773 C   0  0  0  0  0  0  0  0  0  0  0  0
    2.6794   -9.6790    4.4885 C   0  0  0  0  0  0  0  0  0  0  0  0
    3.6631   -8.7845    3.7943 N   0  0  2  0  0  0  0  0  0  0  0  0
    4.8452   -8.5316    4.6562 C   0  0  0  0  0  0  0  0  0  0  0  0
    4.5829   -7.3837    5.6313 C   0  0  0  0  0  0  0  0  0  0  0  0
    4.2122   -6.1133    4.8575 C   0  0  0  0  0  0  0  0  0  0  0  0
    2.9456   -6.2530    3.9484 C   0  0  1  0  0  0  0  0  0  0  0  0
    3.2192   -7.5440    3.0532 C   0  0  2  0  0  0  0  0  0  0  0  0
    2.3081   -7.9163    1.8491 C   0  0  0  0  0  0  0  0  0  0  0  0
    0.8058   -7.5887    1.9066 C   0  0  0  0  0  0  0  0  0  0  0  0
    2.7853   -4.9003    3.1059 C   0  0  2  0  0  0  0  0  0  0  0  0
    2.9163   -3.4210   -0.8902 C   0  0  0  0  0  0  0  0  0  0  0  0
    3.0775   -2.5449   -1.9817 C   0  0  0  0  0  0  0  0  0  0  0  0
    3.9044   -0.0942   -4.9356 H   0  0  0  0  0  0  0  0  0  0  0  0
    3.2316   -0.0031   -3.3106 H   0  0  0  0  0  0  0  0  0  0  0  0
    2.6813   -1.2587   -4.4456 H   0  0  0  0  0  0  0  0  0  0  0  0
    6.4055   -3.0255   -2.5591 H   0  0  0  0  0  0  0  0  0  0  0  0
    6.1105   -4.5721   -0.6460 H   0  0  0  0  0  0  0  0  0  0  0  0
    2.7979   -5.5177    0.5589 H   0  0  0  0  0  0  0  0  0  0  0  0
    4.4988   -5.9801    0.6225 H   0  0  0  0  0  0  0  0  0  0  0  0
    4.8407   -3.3048    4.5768 H   0  0  0  0  0  0  0  0  0  0  0  0
    5.3409   -1.1168    3.5157 H   0  0  0  0  0  0  0  0  0  0  0  0
    3.9128   -0.9541    4.5192 H   0  0  0  0  0  0  0  0  0  0  0  0
    3.7525   -1.0678    2.7706 H   0  0  0  0  0  0  0  0  0  0  0  0
    2.1506   -2.8813    3.2506 H   0  0  0  0  0  0  0  0  0  0  0  0
    3.0142   -3.5283    6.0421 H   0  0  0  0  0  0  0  0  0  0  0  0
    1.9756   -2.3157    5.4196 H   0  0  0  0  0  0  0  0  0  0  0  0
    0.5606   -3.7179    6.5339 H   0  0  0  0  0  0  0  0  0  0  0  0
    0.2447   -4.1394    4.8770 H   0  0  0  0  0  0  0  0  0  0  0  0
    2.2203   -5.6289    6.6870 H   0  0  0  0  0  0  0  0  0  0  0  0
   -0.7206   -6.2524    6.3408 H   0  0  0  0  0  0  0  0  0  0  0  0
    0.0649   -5.6786    7.8027 H   0  0  0  0  0  0  0  0  0  0  0  0
    0.4499   -7.2714    7.1849 H   0  0  0  0  0  0  0  0  0  0  0  0
    1.7567   -7.4933    5.2670 H   0  0  0  0  0  0  0  0  0  0  0  0
   -1.8857   -8.0809    2.3746 H   0  0  0  0  0  0  0  0  0  0  0  0
   -1.5110   -6.3922    2.5618 H   0  0  0  0  0  0  0  0  0  0  0  0
   -1.9524   -7.3298    3.9732 H   0  0  0  0  0  0  0  0  0  0  0  0
   -0.0478   -8.9201    5.0519 H   0  0  0  0  0  0  0  0  0  0  0  0
   -0.7050   -9.6341    3.6377 H   0  0  0  0  0  0  0  0  0  0  0  0
    1.0290  -10.9438    4.2351 H   0  0  0  0  0  0  0  0  0  0  0  0
    1.4745  -10.3017    2.7366 H   0  0  0  0  0  0  0  0  0  0  0  0
    2.5027   -9.3948    5.5242 H   0  0  0  0  0  0  0  0  0  0  0  0
    3.2030  -10.6317    4.5747 H   0  0  0  0  0  0  0  0  0  0  0  0
    5.1140   -9.4319    5.2112 H   0  0  0  0  0  0  0  0  0  0  0  0
    5.7083   -8.2902    4.0322 H   0  0  0  0  0  0  0  0  0  0  0  0
    3.7994   -7.6403    6.3494 H   0  0  0  0  0  0  0  0  0  0  0  0
    5.4817   -7.1992    6.2207 H   0  0  0  0  0  0  0  0  0  0  0  0
    4.1200   -5.3048    5.5772 H   0  0  0  0  0  0  0  0  0  0  0  0
    5.0805   -5.8538    4.2512 H   0  0  0  0  0  0  0  0  0  0  0  0
    4.1501   -7.2966    2.5438 H   0  0  0  0  0  0  0  0  0  0  0  0
    2.6955   -7.4804    0.9427 H   0  0  0  0  0  0  0  0  0  0  0  0
    2.4542   -8.9599    1.5778 H   0  0  0  0  0  0  0  0  0  0  0  0
    0.2975   -8.2586    1.2239 H   0  0  0  0  0  0  0  0  0  0  0  0
    0.6452   -6.5940    1.4885 H   0  0  0  0  0  0  0  0  0  0  0  0
    1.8458   -4.9635    2.5592 H   0  0  0  0  0  0  0  0  0  0  0  0
    1.9381   -3.5370   -0.4553 H   0  0  0  0  0  0  0  0  0  0  0  0
    2.2115   -2.0038   -2.3270 H   0  0  0  0  0  0  0  0  0  0  0  0
    4.0135   -9.3785    3.0554 H   0  0  0  0  0  0  0  0  0  0  0  0
  1  2  1  0
  1 36  1  0
  1 37  1  0
  1 38  1  0
  2  3  1  0
  3 35  2  0
  3  4  1  0
  4  5  2  0
  4 39  1  0
  5  6  1  0
  5 40  1  0
  6  7  1  0
  6 34  2  0
  7  8  1  0
  7 41  1  0
  7 42  1  0
  8 33  1  0
  8  9  1  0
  9 10  2  0
  9 11  1  0
 11 12  1  0
 11 13  1  0
 11 43  1  1
 12 44  1  0
 12 45  1  0
 12 46  1  0
 13 33  1  0
 13 14  1  0
 13 47  1  6
 14 15  1  0
 14 48  1  0
 14 49  1  0
 15 16  1  0
 15 50  1  0
 15 51  1  0
 16 17  1  0
 16 18  1  0
 16 52  1  1
 17 53  1  0
 17 54  1  0
 17 55  1  0
 18 29  1  0
 18 19  1  0
 18 56  1  1
 19 20  1  0
 20 32  1  0
 20 21  1  6
 20 22  1  0
 21 57  1  0
 21 58  1  0
 21 59  1  0
 22 23  1  0
 22 60  1  0
 22 61  1  0
 23 24  1  0
 23 62  1  0
 23 63  1  0
 24 25  1  0
 24 64  1  0
 24 65  1  0
 25 30  1  0
 25 26  1  0
 25 80  1  6
 26 27  1  0
 26 66  1  0
 26 67  1  0
 27 28  1  0
 27 68  1  0
 27 69  1  0
 29 28  1  1
 28 70  1  0
 28 71  1  0
 29 30  1  0
 29 33  1  0
 30 31  1  0
 30 72  1  6
 31 32  1  0
 31 73  1  0
 31 74  1  0
 32 75  1  0
 32 76  1  0
 33 77  1  6
 34 35  1  0
 34 78  1  0
 35 79  1  0
M  CHG  1  25   1
M  END
>  <i_m_ct_stereo_status>  (100) 
1

>  <s_m_source_file>  (100) 
/var/tmp/pbs.5076255.sched01/tmp9d3cgwpa/0mc_8ktg4.sdf

>  <i_m_source_file_index>  (100) 
41

>  <i_lp_mmshare_version>  (100) 
48012

>  <i_f3d_flags>  (100) 
0

>  <s_epik_input>  (100) 
W0NIM11PYzFbY0hdW2NIXWMoW2NIXVtjSF0xKVtDSDJdTihDKD1PKVtDQEhdMltDSDNdKVtDQEBIXTNbQ0BIXTJbQ0gyXVtDSDJdW0NAQEhdKFtDSDNdKVtDQEhdKFtDQEBdMzQ1KU9bQ0BdNihbQ0gzXSlbQ0gyXVtDSDJdW0NIMl1OKFtDSDJdW0NIMl1bQ0gyXTQpW0NIXTVbQ0gyXVtDSDJdNg==

>  <s_epik_cmdline>  (100) 
J2VwaWtfcHl0aG9uJywgJy1waHQnLCAnMi4wJywgJy1waCcsICc3LjAnLCAnLXRuJywgJzgnLCAnLW1hJywgJzIwMCcsICctaW1hZScsICc8aW5maWxlLm1hZT4nLCAnLW9tYWUnLCAnPG91dGZpbGUubWFlPic=

>  <r_lp_tautomer_probability>  (100) 
1

>  <r_epik_Ionization_Penalty>  (100) 
0.000227562

>  <r_epik_Ionization_Penalty_Charging>  (100) 
0.000227557

>  <r_epik_Ionization_Penalty_Neutral>  (100) 
4.35863e-09

>  <r_epik_State_Penalty>  (100) 
-0

>  <r_epik_Charging_Adjusted_Penalty>  (100) 
0.000227557

>  <i_epik_Tot_Q>  (100) 
1

>  <i_epik_Tot_abs_Q>  (100) 
1

>  <s_lp_Force_Field>  (100) 
OPLS3e

>  <r_lp_Energy>  (100) 
87.9258

>  <b_lp_Chiralities_Consistent>  (100) 
1

>  <s_lp_Variant>  (100) 
22:0-1

>  <s_i_glide_gridfile>  (100) 
pfpi4k_grid

>  <i_i_glide_lignum>  (100) 
41

>  <i_i_glide_rotatable_bonds>  (100) 
3

>  <r_i_docking_score>  (100) 
-2.31799

>  <r_i_glide_ligand_efficiency>  (100) 
-0.0662283

>  <r_i_glide_ligand_efficiency_sa>  (100) 
-0.216637

>  <r_i_glide_ligand_efficiency_ln>  (100) 
-0.508851

>  <r_i_glide_gscore>  (100) 
-2.31799

>  <r_i_glide_lipo>  (100) 
-0.566406

>  <r_i_glide_hbond>  (100) 
0

>  <r_i_glide_metal>  (100) 
-0

>  <r_i_glide_rewards>  (100) 
-0.164786

>  <r_i_glide_evdw>  (100) 
-28.5566

>  <r_i_glide_ecoul>  (100) 
-2.20948

>  <r_i_glide_erotb>  (100) 
0.174879

>  <r_i_glide_esite>  (100) 
-0.00242564

>  <r_i_glide_emodel>  (100) 
-36.9125

>  <r_i_glide_energy>  (100) 
-30.7661

>  <r_i_glide_einternal>  (100) 
1.11762

>  <r_i_glide_intrahb_reward>  (100) 
-0

>  <i_i_glide_confnum>  (100) 
1

>  <i_i_glide_posenum>  (100) 
13

>  <r_i_glide_eff_state_penalty>  (100) 
0

>  <ligand_id>  (100) 
22

>  <original_smiles>  (100) 
COc1ccc(CN2C(=O)C(C)C3CCC(C)C4OC5(C)CCCN6CCCC4(C6CC5)C32)cc1

>  <smiles>  (100) 
[H]c1c([H])c(C([H])([H])N2C(=O)C([H])(C([H])([H])[H])C3([H])C([H])([H])C([H])([H])C([H])(C([H])([H])[H])C4([H])OC5(C([H])([H])[H])C([H])([H])C([H])([H])C([H])([H])[N+]6([H])C([H])([H])C([H])([H])C([H])([H])C4(C23[H])C6([H])C([H])([H])C5([H])[H])c([H])c([H])c1OC([H])([H])[H]

$$$$
23:0:0
     RDKit          3D

 45 49  0  0  1  0  0  0  0  0999 V2000
    5.8043   -1.0483    1.4699 C   0  0  0  0  0  0  0  0  0  0  0  0
    4.3703   -1.5682    1.2300 C   0  0  2  0  0  0  0  0  0  0  0  0
    3.3088   -0.5774    1.6672 C   0  0  0  0  0  0  0  0  0  0  0  0
    3.4139    0.6147    1.4465 O   0  0  0  0  0  0  0  0  0  0  0  0
    2.2997   -1.2189    2.2915 O   0  0  0  0  0  0  0  0  0  0  0  0
    2.4042   -2.6289    2.1873 C   0  0  2  0  0  0  0  0  0  0  0  0
    1.8181   -3.4597    3.3467 C   0  0  0  0  0  0  0  0  0  0  0  0
    2.5215   -4.8472    3.4315 C   0  0  1  0  0  0  0  0  0  0  0  0
    1.4865   -5.9177    3.8385 C   0  0  0  0  0  0  0  0  0  0  0  0
    3.2351   -5.1900    2.1049 C   0  0  2  0  0  0  0  0  0  0  0  0
    2.2693   -5.4891    1.0874 O   0  0  0  0  0  0  0  0  0  0  0  0
    3.3574   -6.4108    1.2530 C   0  0  1  0  0  0  0  0  0  0  0  0
    4.4959   -6.2257    0.2710 C   0  0  0  0  0  0  0  0  0  0  0  0
    4.8388   -4.7045    0.2957 C   0  0  1  0  0  0  0  0  0  0  0  0
    4.2511   -3.9601   -0.9342 C   0  0  0  0  0  0  0  0  0  0  0  0
    2.7900   -3.6730   -1.1023 C   0  0  0  0  0  0  0  0  0  0  0  0
    2.7229   -3.1138   -2.4044 O   0  0  0  0  0  0  0  0  0  0  0  0
    3.9529   -2.8767   -2.9154 C   0  0  0  0  0  0  0  0  0  0  0  0
    4.2075   -2.2574   -3.9456 O   0  0  0  0  0  0  0  0  0  0  0  0
    4.9313   -3.4674   -1.9759 C   0  0  0  0  0  0  0  0  0  0  0  0
    4.3826   -4.2473    1.7428 C   0  0  2  0  0  0  0  0  0  0  0  0
    5.5904   -4.5633    2.6770 C   0  0  0  0  0  0  0  0  0  0  0  0
    3.9374   -2.7781    2.0686 C   0  0  1  0  0  0  0  0  0  0  0  0
    5.9948   -0.1442    0.8863 H   0  0  0  0  0  0  0  0  0  0  0  0
    6.5572   -1.7859    1.1714 H   0  0  0  0  0  0  0  0  0  0  0  0
    5.9697   -0.7885    2.5170 H   0  0  0  0  0  0  0  0  0  0  0  0
    4.2396   -1.7232    0.1639 H   0  0  0  0  0  0  0  0  0  0  0  0
    1.8728   -2.9610    1.2967 H   0  0  0  0  0  0  0  0  0  0  0  0
    1.8341   -2.9211    4.3000 H   0  0  0  0  0  0  0  0  0  0  0  0
    0.7638   -3.5938    3.1056 H   0  0  0  0  0  0  0  0  0  0  0  0
    3.2761   -4.7866    4.2272 H   0  0  0  0  0  0  0  0  0  0  0  0
    0.7075   -6.0389    3.0718 H   0  0  0  0  0  0  0  0  0  0  0  0
    0.9718   -5.6113    4.7577 H   0  0  0  0  0  0  0  0  0  0  0  0
    1.9439   -6.9043    4.0187 H   0  0  0  0  0  0  0  0  0  0  0  0
    3.1127   -7.4158    1.6091 H   0  0  0  0  0  0  0  0  0  0  0  0
    5.3307   -6.8417    0.6119 H   0  0  0  0  0  0  0  0  0  0  0  0
    4.2227   -6.5907   -0.7156 H   0  0  0  0  0  0  0  0  0  0  0  0
    5.9219   -4.6051    0.1859 H   0  0  0  0  0  0  0  0  0  0  0  0
    2.4692   -2.9312   -0.3987 H   0  0  0  0  0  0  0  0  0  0  0  0
    2.1839   -4.5743   -1.0819 H   0  0  0  0  0  0  0  0  0  0  0  0
    5.9995   -3.4885   -2.1413 H   0  0  0  0  0  0  0  0  0  0  0  0
    6.4376   -3.9241    2.4223 H   0  0  0  0  0  0  0  0  0  0  0  0
    5.9488   -5.5895    2.5940 H   0  0  0  0  0  0  0  0  0  0  0  0
    5.3937   -4.3958    3.7357 H   0  0  0  0  0  0  0  0  0  0  0  0
    4.3524   -2.5550    3.0620 H   0  0  0  0  0  0  0  0  0  0  0  0
  1  2  1  0
  1 24  1  0
  1 25  1  0
  1 26  1  0
  2 23  1  0
  2  3  1  0
  2 27  1  6
  3  4  2  0
  3  5  1  0
  5  6  1  0
  6 23  1  0
  6  7  1  0
  6 28  1  6
  7  8  1  0
  7 29  1  0
  7 30  1  0
  8  9  1  0
  8 10  1  0
  8 31  1  1
  9 32  1  0
  9 33  1  0
  9 34  1  0
 10 12  1  0
 10 21  1  0
 10 11  1  6
 11 12  1  0
 12 13  1  0
 12 35  1  1
 13 14  1  0
 13 36  1  0
 13 37  1  0
 14 21  1  0
 14 38  1  1
 14 15  1  0
 15 20  2  0
 15 16  1  0
 16 17  1  0
 16 39  1  0
 16 40  1  0
 17 18  1  0
 18 20  1  0
 18 19  2  0
 20 41  1  0
 21 22  1  1
 21 23  1  0
 22 42  1  0
 22 43  1  0
 22 44  1  0
 23 45  1  1
M  END
>  <i_m_ct_stereo_status>  (101) 
1

>  <s_m_source_file>  (101) 
/var/tmp/pbs.5076255.sched01/tmp9d3cgwpa/0mc_8ktg4.sdf

>  <i_m_source_file_index>  (101) 
42

>  <i_lp_mmshare_version>  (101) 
48012

>  <i_f3d_flags>  (101) 
0

>  <s_epik_input>  (101) 
W0NIM11bQ0BASF0xQyg9TylPW0NASF0oW0NIMl1bQ0BIXTJbQ0gzXSlbQ0BIXTFbQ0BdMyhbQ0gzXSlbQ0BASF0oW0NIMl1bQ0BASF0oW0NAQF0yMzQpTzQpYzVbY0hdb2MoW09IXSlbY0hdNQ==

>  <s_epik_cmdline>  (101) 
J2VwaWtfcHl0aG9uJywgJy1waHQnLCAnMi4wJywgJy1waCcsICc3LjAnLCAnLXRuJywgJzgnLCAnLW1hJywgJzIwMCcsICctaW1hZScsICc8aW5maWxlLm1hZT4nLCAnLW9tYWUnLCAnPG91dGZpbGUubWFlPic=

>  <r_lp_tautomer_probability>  (101) 
1

>  <r_epik_Ionization_Penalty>  (101) 
3.33974e-12

>  <r_epik_Ionization_Penalty_Charging>  (101) 
0

>  <r_epik_Ionization_Penalty_Neutral>  (101) 
3.33974e-12

>  <r_epik_State_Penalty>  (101) 
-0

>  <r_epik_Charging_Adjusted_Penalty>  (101) 
0

>  <i_epik_Tot_Q>  (101) 
0

>  <i_epik_Tot_abs_Q>  (101) 
0

>  <s_epik_Chemistry_Notes>  (101) 
This compound has an ester and may undergo hydrolysis at high or low pH.

>  <s_lp_Force_Field>  (101) 
OPLS3e

>  <r_lp_Energy>  (101) 
27.6197

>  <b_lp_Chiralities_Consistent>  (101) 
1

>  <s_lp_Variant>  (101) 
23:0-1

>  <s_i_glide_gridfile>  (101) 
pfpi4k_grid

>  <i_i_glide_lignum>  (101) 
42

>  <i_i_glide_rotatable_bonds>  (101) 
1

>  <r_i_docking_score>  (101) 
-3.53554

>  <r_i_glide_ligand_efficiency>  (101) 
-0.153719

>  <r_i_glide_ligand_efficiency_sa>  (101) 
-0.437157

>  <r_i_glide_ligand_efficiency_ln>  (101) 
-0.854925

>  <r_i_glide_gscore>  (101) 
-3.53554

>  <r_i_glide_lipo>  (101) 
-0.465469

>  <r_i_glide_hbond>  (101) 
-0.187882

>  <r_i_glide_metal>  (101) 
-0

>  <r_i_glide_rewards>  (101) 
-1.29396

>  <r_i_glide_evdw>  (101) 
-26.8479

>  <r_i_glide_ecoul>  (101) 
-2.73932

>  <r_i_glide_erotb>  (101) 
0.183945

>  <r_i_glide_esite>  (101) 
-0.018877

>  <r_i_glide_emodel>  (101) 
-34.4521

>  <r_i_glide_energy>  (101) 
-29.5872

>  <r_i_glide_einternal>  (101) 
0.334625

>  <r_i_glide_intrahb_reward>  (101) 
-0

>  <i_i_glide_confnum>  (101) 
5

>  <i_i_glide_posenum>  (101) 
5

>  <r_i_glide_eff_state_penalty>  (101) 
0

>  <ligand_id>  (101) 
23

>  <original_smiles>  (101) 
CC1C(=O)OC2CC(C)C34OC3CC(c3coc(O)c3)C4(C)C21

>  <smiles>  (101) 
[H]C1=C(C2([H])C([H])([H])C3([H])OC34C([H])(C([H])([H])[H])C([H])([H])C3([H])OC(=O)C([H])(C([H])([H])[H])C3([H])C24C([H])([H])[H])C([H])([H])OC1=O

$$$$
23:0:1
     RDKit          3D

 45 49  0  0  1  0  0  0  0  0999 V2000
    4.1700   -6.4141    1.9758 C   0  0  0  0  0  0  0  0  0  0  0  0
    3.3016   -5.2539    1.4790 C   0  0  2  0  0  0  0  0  0  0  0  0
    2.0924   -5.7557    0.6916 C   0  0  0  0  0  0  0  0  0  0  0  0
    1.3867   -6.6973    1.0336 O   0  0  0  0  0  0  0  0  0  0  0  0
    1.8912   -4.9491   -0.3681 O   0  0  0  0  0  0  0  0  0  0  0  0
    2.7264   -3.8064   -0.3641 C   0  0  2  0  0  0  0  0  0  0  0  0
    3.1299   -3.1383   -1.6943 C   0  0  0  0  0  0  0  0  0  0  0  0
    4.4640   -2.3432   -1.5750 C   0  0  1  0  0  0  0  0  0  0  0  0
    4.4213   -1.1174   -2.5035 C   0  0  0  0  0  0  0  0  0  0  0  0
    4.7278   -1.9832   -0.0943 C   0  0  2  0  0  0  0  0  0  0  0  0
    3.7953   -0.9698    0.3253 O   0  0  0  0  0  0  0  0  0  0  0  0
    5.1683   -0.7497    0.6266 C   0  0  1  0  0  0  0  0  0  0  0  0
    5.5572   -1.1022    2.0374 C   0  0  0  0  0  0  0  0  0  0  0  0
    5.0045   -2.5469    2.2816 C   0  0  1  0  0  0  0  0  0  0  0  0
    3.7218   -2.4933    3.1165 C   0  0  0  0  0  0  0  0  0  0  0  0
    2.4683   -1.7788    2.6846 C   0  0  0  0  0  0  0  0  0  0  0  0
    1.5729   -1.9881    3.7630 O   0  0  0  0  0  0  0  0  0  0  0  0
    2.1279   -2.7513    4.7213 C   0  0  0  0  0  0  0  0  0  0  0  0
    1.5565   -3.1438    5.7355 O   0  0  0  0  0  0  0  0  0  0  0  0
    3.5146   -3.0397    4.3228 C   0  0  0  0  0  0  0  0  0  0  0  0
    4.9468   -3.1887    0.8357 C   0  0  2  0  0  0  0  0  0  0  0  0
    6.3672   -3.7669    0.5677 C   0  0  0  0  0  0  0  0  0  0  0  0
    3.9321   -4.3181    0.4523 C   0  0  1  0  0  0  0  0  0  0  0  0
    3.6043   -7.0834    2.6379 H   0  0  0  0  0  0  0  0  0  0  0  0
    5.0272   -6.0471    2.5427 H   0  0  0  0  0  0  0  0  0  0  0  0
    4.5363   -7.0315    1.1450 H   0  0  0  0  0  0  0  0  0  0  0  0
    2.8778   -4.7271    2.3159 H   0  0  0  0  0  0  0  0  0  0  0  0
    2.1621   -3.0315    0.1328 H   0  0  0  0  0  0  0  0  0  0  0  0
    3.2040   -3.8593   -2.5163 H   0  0  0  0  0  0  0  0  0  0  0  0
    2.3151   -2.4786   -1.9950 H   0  0  0  0  0  0  0  0  0  0  0  0
    5.2745   -2.9997   -1.9093 H   0  0  0  0  0  0  0  0  0  0  0  0
    3.6212   -0.4349   -2.2325 H   0  0  0  0  0  0  0  0  0  0  0  0
    4.2130   -1.4342   -3.5234 H   0  0  0  0  0  0  0  0  0  0  0  0
    5.3580   -0.5663   -2.4973 H   0  0  0  0  0  0  0  0  0  0  0  0
    5.6508    0.0893    0.1345 H   0  0  0  0  0  0  0  0  0  0  0  0
    6.6501   -1.0648    2.1127 H   0  0  0  0  0  0  0  0  0  0  0  0
    5.1625   -0.3599    2.7432 H   0  0  0  0  0  0  0  0  0  0  0  0
    5.7176   -3.0871    2.8964 H   0  0  0  0  0  0  0  0  0  0  0  0
    2.0288   -2.2528    1.8072 H   0  0  0  0  0  0  0  0  0  0  0  0
    2.6403   -0.7087    2.5076 H   0  0  0  0  0  0  0  0  0  0  0  0
    4.2193   -3.6042    4.9149 H   0  0  0  0  0  0  0  0  0  0  0  0
    6.5714   -4.6122    1.2219 H   0  0  0  0  0  0  0  0  0  0  0  0
    7.1653   -3.0407    0.7373 H   0  0  0  0  0  0  0  0  0  0  0  0
    6.5059   -4.1352   -0.4522 H   0  0  0  0  0  0  0  0  0  0  0  0
    4.4703   -4.9930   -0.2415 H   0  0  0  0  0  0  0  0  0  0  0  0
  1  2  1  0
  1 24  1  0
  1 25  1  0
  1 26  1  0
  2 23  1  0
  2  3  1  0
  2 27  1  1
  3  4  2  0
  3  5  1  0
  5  6  1  0
  6 23  1  0
  6  7  1  0
  6 28  1  1
  7  8  1  0
  7 29  1  0
  7 30  1  0
  8  9  1  0
  8 10  1  0
  8 31  1  6
  9 32  1  0
  9 33  1  0
  9 34  1  0
 10 12  1  0
 10 21  1  0
 10 11  1  1
 11 12  1  0
 12 13  1  0
 12 35  1  6
 13 14  1  0
 13 36  1  0
 13 37  1  0
 14 21  1  0
 14 38  1  1
 14 15  1  0
 15 20  2  0
 15 16  1  0
 16 17  1  0
 16 39  1  0
 16 40  1  0
 17 18  1  0
 18 20  1  0
 18 19  2  0
 20 41  1  0
 21 22  1  6
 21 23  1  0
 22 42  1  0
 22 43  1  0
 22 44  1  0
 23 45  1  6
M  END
>  <i_m_ct_stereo_status>  (102) 
1

>  <s_m_source_file>  (102) 
/var/tmp/pbs.5076255.sched01/tmp9d3cgwpa/0mc_8ktg4.sdf

>  <i_m_source_file_index>  (102) 
42

>  <i_lp_mmshare_version>  (102) 
48012

>  <i_f3d_flags>  (102) 
0

>  <s_epik_input>  (102) 
W0NIM11bQ0BASF0xQyg9TylPW0NASF0oW0NIMl1bQ0BIXTJbQ0gzXSlbQ0BIXTFbQ0BdMyhbQ0gzXSlbQ0BASF0oW0NIMl1bQ0BASF0oW0NAQF0yMzQpTzQpYzVbY0hdb2MoW09IXSlbY0hdNQ==

>  <s_epik_cmdline>  (102) 
J2VwaWtfcHl0aG9uJywgJy1waHQnLCAnMi4wJywgJy1waCcsICc3LjAnLCAnLXRuJywgJzgnLCAnLW1hJywgJzIwMCcsICctaW1hZScsICc8aW5maWxlLm1hZT4nLCAnLW9tYWUnLCAnPG91dGZpbGUubWFlPic=

>  <r_lp_tautomer_probability>  (102) 
1

>  <r_epik_Ionization_Penalty>  (102) 
3.33974e-12

>  <r_epik_Ionization_Penalty_Charging>  (102) 
0

>  <r_epik_Ionization_Penalty_Neutral>  (102) 
3.33974e-12

>  <r_epik_State_Penalty>  (102) 
-0

>  <r_epik_Charging_Adjusted_Penalty>  (102) 
0

>  <i_epik_Tot_Q>  (102) 
0

>  <i_epik_Tot_abs_Q>  (102) 
0

>  <s_epik_Chemistry_Notes>  (102) 
This compound has an ester and may undergo hydrolysis at high or low pH.

>  <s_lp_Force_Field>  (102) 
OPLS3e

>  <r_lp_Energy>  (102) 
27.6197

>  <b_lp_Chiralities_Consistent>  (102) 
1

>  <s_lp_Variant>  (102) 
23:0-1

>  <s_i_glide_gridfile>  (102) 
pfpi4k_grid

>  <i_i_glide_lignum>  (102) 
42

>  <i_i_glide_rotatable_bonds>  (102) 
1

>  <r_i_docking_score>  (102) 
-3.0506

>  <r_i_glide_ligand_efficiency>  (102) 
-0.132635

>  <r_i_glide_ligand_efficiency_sa>  (102) 
-0.377195

>  <r_i_glide_ligand_efficiency_ln>  (102) 
-0.737662

>  <r_i_glide_gscore>  (102) 
-3.0506

>  <r_i_glide_lipo>  (102) 
-0.520749

>  <r_i_glide_hbond>  (102) 
-0.025973

>  <r_i_glide_metal>  (102) 
-0

>  <r_i_glide_rewards>  (102) 
-1.23843

>  <r_i_glide_evdw>  (102) 
-24.1356

>  <r_i_glide_ecoul>  (102) 
-1.28742

>  <r_i_glide_erotb>  (102) 
0.183945

>  <r_i_glide_esite>  (102) 
-0.0494984

>  <r_i_glide_emodel>  (102) 
-29.9378

>  <r_i_glide_energy>  (102) 
-25.423

>  <r_i_glide_einternal>  (102) 
0.00363793

>  <r_i_glide_intrahb_reward>  (102) 
-0

>  <i_i_glide_confnum>  (102) 
5

>  <i_i_glide_posenum>  (102) 
24

>  <r_i_glide_eff_state_penalty>  (102) 
0

>  <ligand_id>  (102) 
23

>  <original_smiles>  (102) 
CC1C(=O)OC2CC(C)C34OC3CC(c3coc(O)c3)C4(C)C21

>  <smiles>  (102) 
[H]C1=C(C2([H])C([H])([H])C3([H])OC34C([H])(C([H])([H])[H])C([H])([H])C3([H])OC(=O)C([H])(C([H])([H])[H])C3([H])C24C([H])([H])[H])C([H])([H])OC1=O

$$$$
23:0:2
     RDKit          3D

 45 49  0  0  1  0  0  0  0  0999 V2000
    5.8157   -0.8296    1.5793 C   0  0  0  0  0  0  0  0  0  0  0  0
    4.4303   -1.3894    1.2218 C   0  0  2  0  0  0  0  0  0  0  0  0
    3.2750   -0.4568    1.6241 C   0  0  0  0  0  0  0  0  0  0  0  0
    3.3101    0.7636    1.4802 O   0  0  0  0  0  0  0  0  0  0  0  0
    2.2493   -1.1720    2.1279 O   0  0  0  0  0  0  0  0  0  0  0  0
    2.4355   -2.5647    2.0072 C   0  0  2  0  0  0  0  0  0  0  0  0
    1.8210   -3.4540    3.1059 C   0  0  0  0  0  0  0  0  0  0  0  0
    2.5475   -4.8316    3.1892 C   0  0  1  0  0  0  0  0  0  0  0  0
    1.5261   -5.9455    3.5183 C   0  0  0  0  0  0  0  0  0  0  0  0
    3.3367   -5.0807    1.8723 C   0  0  2  0  0  0  0  0  0  0  0  0
    2.4329   -5.3623    0.7765 O   0  0  0  0  0  0  0  0  0  0  0  0
    3.5282   -6.2720    0.9953 C   0  0  1  0  0  0  0  0  0  0  0  0
    4.7196   -6.0388    0.1153 C   0  0  0  0  0  0  0  0  0  0  0  0
    4.9973   -4.4947    0.1752 C   0  0  1  0  0  0  0  0  0  0  0  0
    4.4753   -3.7634   -1.0878 C   0  0  0  0  0  0  0  0  0  0  0  0
    5.2601   -3.8856   -2.3751 C   0  0  0  0  0  0  0  0  0  0  0  0
    4.5624   -3.0506   -3.2730 O   0  0  0  0  0  0  0  0  0  0  0  0
    3.4822   -2.4938   -2.6748 C   0  0  0  0  0  0  0  0  0  0  0  0
    2.7155   -1.6940   -3.2112 O   0  0  0  0  0  0  0  0  0  0  0  0
    3.4173   -3.0018   -1.2912 C   0  0  0  0  0  0  0  0  0  0  0  0
    4.4755   -4.0889    1.6089 C   0  0  2  0  0  0  0  0  0  0  0  0
    5.6330   -4.4090    2.6021 C   0  0  0  0  0  0  0  0  0  0  0  0
    3.9810   -2.6528    1.9767 C   0  0  1  0  0  0  0  0  0  0  0  0
    5.9918    0.0837    1.0010 H   0  0  0  0  0  0  0  0  0  0  0  0
    6.5843   -1.5297    1.2705 H   0  0  0  0  0  0  0  0  0  0  0  0
    5.9566   -0.5908    2.6450 H   0  0  0  0  0  0  0  0  0  0  0  0
    4.3952   -1.4643    0.1426 H   0  0  0  0  0  0  0  0  0  0  0  0
    2.0139   -2.9238    1.0718 H   0  0  0  0  0  0  0  0  0  0  0  0
    1.7989   -2.9280    4.0836 H   0  0  0  0  0  0  0  0  0  0  0  0
    0.7760   -3.6174    2.8653 H   0  0  0  0  0  0  0  0  0  0  0  0
    3.2623   -4.7698    4.0102 H   0  0  0  0  0  0  0  0  0  0  0  0
    0.8030   -6.0634    2.7206 H   0  0  0  0  0  0  0  0  0  0  0  0
    0.9706   -5.6717    4.4201 H   0  0  0  0  0  0  0  0  0  0  0  0
    2.0098   -6.9028    3.6978 H   0  0  0  0  0  0  0  0  0  0  0  0
    3.2942   -7.2833    1.3254 H   0  0  0  0  0  0  0  0  0  0  0  0
    5.5679   -6.6282    0.4975 H   0  0  0  0  0  0  0  0  0  0  0  0
    4.5342   -6.3970   -0.8959 H   0  0  0  0  0  0  0  0  0  0  0  0
    6.0709   -4.3370    0.1550 H   0  0  0  0  0  0  0  0  0  0  0  0
    5.2319   -4.9134   -2.7655 H   0  0  0  0  0  0  0  0  0  0  0  0
    6.2956   -3.5530   -2.2550 H   0  0  0  0  0  0  0  0  0  0  0  0
    2.6131   -2.7377   -0.6094 H   0  0  0  0  0  0  0  0  0  0  0  0
    6.4594   -3.7362    2.4123 H   0  0  0  0  0  0  0  0  0  0  0  0
    6.0321   -5.4204    2.5100 H   0  0  0  0  0  0  0  0  0  0  0  0
    5.3823   -4.2808    3.6622 H   0  0  0  0  0  0  0  0  0  0  0  0
    4.2887   -2.4728    3.0196 H   0  0  0  0  0  0  0  0  0  0  0  0
  1  2  1  0
  1 24  1  0
  1 25  1  0
  1 26  1  0
  2 23  1  0
  2  3  1  0
  2 27  1  6
  3  4  2  0
  3  5  1  0
  5  6  1  0
  6 23  1  0
  6  7  1  0
  6 28  1  6
  7  8  1  0
  7 29  1  0
  7 30  1  0
  8  9  1  0
  8 10  1  0
  8 31  1  1
  9 32  1  0
  9 33  1  0
  9 34  1  0
 10 12  1  0
 10 21  1  0
 10 11  1  6
 11 12  1  0
 12 13  1  0
 12 35  1  1
 13 14  1  0
 13 36  1  0
 13 37  1  0
 14 21  1  0
 14 38  1  1
 14 15  1  0
 15 20  2  0
 15 16  1  0
 16 17  1  0
 16 39  1  0
 16 40  1  0
 17 18  1  0
 18 20  1  0
 18 19  2  0
 20 41  1  0
 21 22  1  1
 21 23  1  0
 22 42  1  0
 22 43  1  0
 22 44  1  0
 23 45  1  1
M  END
>  <i_m_ct_stereo_status>  (103) 
1

>  <s_m_source_file>  (103) 
/var/tmp/pbs.5076255.sched01/tmp9d3cgwpa/0mc_8ktg4.sdf

>  <i_m_source_file_index>  (103) 
42

>  <i_lp_mmshare_version>  (103) 
48012

>  <i_f3d_flags>  (103) 
0

>  <s_epik_input>  (103) 
W0NIM11bQ0BASF0xQyg9TylPW0NASF0oW0NIMl1bQ0BIXTJbQ0gzXSlbQ0BIXTFbQ0BdMyhbQ0gzXSlbQ0BASF0oW0NIMl1bQ0BASF0oW0NAQF0yMzQpTzQpYzVbY0hdb2MoW09IXSlbY0hdNQ==

>  <s_epik_cmdline>  (103) 
J2VwaWtfcHl0aG9uJywgJy1waHQnLCAnMi4wJywgJy1waCcsICc3LjAnLCAnLXRuJywgJzgnLCAnLW1hJywgJzIwMCcsICctaW1hZScsICc8aW5maWxlLm1hZT4nLCAnLW9tYWUnLCAnPG91dGZpbGUubWFlPic=

>  <r_lp_tautomer_probability>  (103) 
1

>  <r_epik_Ionization_Penalty>  (103) 
3.33974e-12

>  <r_epik_Ionization_Penalty_Charging>  (103) 
0

>  <r_epik_Ionization_Penalty_Neutral>  (103) 
3.33974e-12

>  <r_epik_State_Penalty>  (103) 
-0

>  <r_epik_Charging_Adjusted_Penalty>  (103) 
0

>  <i_epik_Tot_Q>  (103) 
0

>  <i_epik_Tot_abs_Q>  (103) 
0

>  <s_epik_Chemistry_Notes>  (103) 
This compound has an ester and may undergo hydrolysis at high or low pH.

>  <s_lp_Force_Field>  (103) 
OPLS3e

>  <r_lp_Energy>  (103) 
27.6197

>  <b_lp_Chiralities_Consistent>  (103) 
1

>  <s_lp_Variant>  (103) 
23:0-1

>  <s_i_glide_gridfile>  (103) 
pfpi4k_grid

>  <i_i_glide_lignum>  (103) 
42

>  <i_i_glide_rotatable_bonds>  (103) 
1

>  <r_i_docking_score>  (103) 
-2.89462

>  <r_i_glide_ligand_efficiency>  (103) 
-0.125853

>  <r_i_glide_ligand_efficiency_sa>  (103) 
-0.357909

>  <r_i_glide_ligand_efficiency_ln>  (103) 
-0.699945

>  <r_i_glide_gscore>  (103) 
-2.89462

>  <r_i_glide_lipo>  (103) 
-0.340509

>  <r_i_glide_hbond>  (103) 
0

>  <r_i_glide_metal>  (103) 
-0

>  <r_i_glide_rewards>  (103) 
-1.23843

>  <r_i_glide_evdw>  (103) 
-25.5127

>  <r_i_glide_ecoul>  (103) 
-1.27342

>  <r_i_glide_erotb>  (103) 
0.183945

>  <r_i_glide_esite>  (103) 
-0.032979

>  <r_i_glide_emodel>  (103) 
-30.5349

>  <r_i_glide_energy>  (103) 
-26.7861

>  <r_i_glide_einternal>  (103) 
0.600032

>  <r_i_glide_intrahb_reward>  (103) 
-0

>  <i_i_glide_confnum>  (103) 
3

>  <i_i_glide_posenum>  (103) 
10

>  <r_i_glide_eff_state_penalty>  (103) 
0

>  <ligand_id>  (103) 
23

>  <original_smiles>  (103) 
CC1C(=O)OC2CC(C)C34OC3CC(c3coc(O)c3)C4(C)C21

>  <smiles>  (103) 
[H]C1=C(C2([H])C([H])([H])C3([H])OC34C([H])(C([H])([H])[H])C([H])([H])C3([H])OC(=O)C([H])(C([H])([H])[H])C3([H])C24C([H])([H])[H])C([H])([H])OC1=O

$$$$
24:0:0
     RDKit          3D

 91100  0  0  1  0  0  0  0  0999 V2000
    1.7609   -4.3459    6.9626 C   0  0  0  0  0  0  0  0  0  0  0  0
    3.1249   -3.5986    7.0264 C   0  0  2  0  0  0  0  0  0  0  0  0
    3.4901   -3.0184    5.6590 C   0  0  0  0  0  0  0  0  0  0  0  0
    3.7707   -4.1219    4.6628 N   0  0  0  0  0  0  0  0  0  0  0  0
    3.2236   -4.2297    3.4847 C   0  0  0  0  0  0  0  0  0  0  0  0
    2.4440   -2.9656    2.9807 C   0  0  0  0  0  0  0  0  0  0  0  0
    3.3397   -1.7026    2.6535 C   0  0  0  0  0  0  0  0  0  0  0  0
    4.4180   -2.2145    1.7235 C   0  0  1  0  0  0  0  0  0  0  0  0
    5.6880   -2.6063    2.5604 C   0  0  0  0  0  0  0  0  0  0  0  0
    6.2642   -3.1246    1.3221 C   0  0  1  0  0  0  0  0  0  0  0  0
    5.7803   -4.6166    1.0887 C   0  0  1  0  0  0  0  0  0  0  0  0
    6.5514   -5.4367    1.9403 O   0  0  0  0  0  0  0  0  0  0  0  0
    4.2188   -5.0358    1.1302 C   0  0  2  0  0  0  0  0  0  0  0  0
    3.5712   -4.1040    0.0529 C   0  0  1  0  0  0  0  0  0  0  0  0
    2.2167   -4.2797   -0.3020 O   0  0  0  0  0  0  0  0  0  0  0  0
    3.7942   -2.6434    0.3488 C   0  0  2  0  0  0  0  0  0  0  0  0
    4.8099   -1.8803   -0.4825 C   0  0  0  0  0  0  0  0  0  0  0  0
    5.5890   -1.8071    0.7928 C   0  0  1  0  0  0  0  0  0  0  0  0
    3.3372   -5.4842    2.4645 C   0  0  2  0  0  0  0  0  0  0  0  0
    1.7920   -5.9097    2.0872 C   0  0  1  0  0  0  0  0  0  0  0  0
    1.7766   -6.8522    0.8870 C   0  0  0  0  0  0  0  0  0  0  0  0
    2.0656   -8.1698    1.5553 C   0  0  2  0  0  0  0  0  0  0  0  0
    0.9270   -8.3998    2.4822 C   0  0  1  0  0  0  0  0  0  0  0  0
    1.1885   -9.7691    3.3485 C   0  0  0  0  0  0  0  0  0  0  0  0
    1.9676   -9.9300    4.7058 N   0  0  0  0  0  0  0  0  0  0  0  0
    0.9855   -9.5680    5.8020 C   0  0  0  0  0  0  0  0  0  0  0  0
    2.1570  -11.4131    4.8732 C   0  0  0  0  0  0  0  0  0  0  0  0
    3.3882   -9.2235    4.9574 C   0  0  0  0  0  0  0  0  0  0  0  0
    3.6341   -9.1510    6.5010 C   0  0  0  0  0  0  0  0  0  0  0  0
    4.6126  -10.0851    4.5069 C   0  0  0  0  0  0  0  0  0  0  0  0
    3.5158   -7.6712    4.4550 C   0  0  2  0  0  0  0  0  0  0  0  0
    2.1329   -7.3776    4.0531 C   0  0  1  0  0  0  0  0  0  0  0  0
    1.1168   -6.9662    3.0896 C   0  0  1  0  0  0  0  0  0  0  0  0
    2.9929   -7.9987    2.7221 C   0  0  2  0  0  0  0  0  0  0  0  0
    3.9115   -6.9055    3.0641 C   0  0  1  0  0  0  0  0  0  0  0  0
    4.9060   -4.9254    5.2469 C   0  0  0  0  0  0  0  0  0  0  0  0
    4.5699   -5.4384    6.6921 C   0  0  1  0  0  0  0  0  0  0  0  0
    5.7056   -6.3332    7.2049 C   0  0  0  0  0  0  0  0  0  0  0  0
    4.2485   -4.3382    7.5544 O   0  0  0  0  0  0  0  0  0  0  0  0
    0.9844   -3.6822    6.5649 H   0  0  0  0  0  0  0  0  0  0  0  0
    1.4491   -4.7159    7.9449 H   0  0  0  0  0  0  0  0  0  0  0  0
    1.7685   -5.1893    6.2729 H   0  0  0  0  0  0  0  0  0  0  0  0
    3.0181   -2.7836    7.7262 H   0  0  0  0  0  0  0  0  0  0  0  0
    2.6692   -2.3655    5.3785 H   0  0  0  0  0  0  0  0  0  0  0  0
    4.3968   -2.4103    5.7219 H   0  0  0  0  0  0  0  0  0  0  0  0
    1.9010   -3.1844    2.0709 H   0  0  0  0  0  0  0  0  0  0  0  0
    2.7245   -0.9303    2.1901 H   0  0  0  0  0  0  0  0  0  0  0  0
    3.7642   -1.2487    3.5469 H   0  0  0  0  0  0  0  0  0  0  0  0
    6.1818   -1.7284    3.0049 H   0  0  0  0  0  0  0  0  0  0  0  0
    5.6540   -3.4008    3.2854 H   0  0  0  0  0  0  0  0  0  0  0  0
    7.3441   -3.0021    1.3096 H   0  0  0  0  0  0  0  0  0  0  0  0
    6.1287   -4.8615    0.0845 H   0  0  0  0  0  0  0  0  0  0  0  0
    6.4142   -6.3345    1.6935 H   0  0  0  0  0  0  0  0  0  0  0  0
    4.3252   -5.9905    0.6218 H   0  0  0  0  0  0  0  0  0  0  0  0
    4.0797   -4.3290   -0.8854 H   0  0  0  0  0  0  0  0  0  0  0  0
    2.2090   -4.8436   -1.0627 H   0  0  0  0  0  0  0  0  0  0  0  0
    2.8835   -2.0725    0.1954 H   0  0  0  0  0  0  0  0  0  0  0  0
    5.3247   -2.4759   -1.2352 H   0  0  0  0  0  0  0  0  0  0  0  0
    4.4768   -0.9090   -0.8624 H   0  0  0  0  0  0  0  0  0  0  0  0
    6.0904   -0.8672    1.0053 H   0  0  0  0  0  0  0  0  0  0  0  0
    1.1210   -5.0739    1.9375 H   0  0  0  0  0  0  0  0  0  0  0  0
    0.7947   -6.8580    0.4275 H   0  0  0  0  0  0  0  0  0  0  0  0
    2.4957   -6.6441    0.1140 H   0  0  0  0  0  0  0  0  0  0  0  0
    2.3162   -9.0063    0.8905 H   0  0  0  0  0  0  0  0  0  0  0  0
    0.0041   -8.4883    1.9206 H   0  0  0  0  0  0  0  0  0  0  0  0
    0.2022  -10.1911    3.5194 H   0  0  0  0  0  0  0  0  0  0  0  0
    1.6468  -10.4797    2.6613 H   0  0  0  0  0  0  0  0  0  0  0  0
    1.2781   -9.9319    6.7913 H   0  0  0  0  0  0  0  0  0  0  0  0
    0.0166  -10.0459    5.6450 H   0  0  0  0  0  0  0  0  0  0  0  0
    0.7970   -8.4988    5.8832 H   0  0  0  0  0  0  0  0  0  0  0  0
    2.6290  -11.6712    5.8218 H   0  0  0  0  0  0  0  0  0  0  0  0
    2.7657  -11.8419    4.0791 H   0  0  0  0  0  0  0  0  0  0  0  0
    1.1962  -11.9354    4.8478 H   0  0  0  0  0  0  0  0  0  0  0  0
    4.6423   -8.8245    6.7023 H   0  0  0  0  0  0  0  0  0  0  0  0
    3.5785  -10.1033    7.0270 H   0  0  0  0  0  0  0  0  0  0  0  0
    2.9898   -8.4556    7.0302 H   0  0  0  0  0  0  0  0  0  0  0  0
    5.5042   -9.4558    4.5446 H   0  0  0  0  0  0  0  0  0  0  0  0
    4.5508  -10.4998    3.4956 H   0  0  0  0  0  0  0  0  0  0  0  0
    4.8259  -10.9263    5.1840 H   0  0  0  0  0  0  0  0  0  0  0  0
    3.9623   -7.1594    5.2049 H   0  0  0  0  0  0  0  0  0  0  0  0
    2.2733   -6.4205    4.5572 H   0  0  0  0  0  0  0  0  0  0  0  0
    0.2108   -6.5923    3.5825 H   0  0  0  0  0  0  0  0  0  0  0  0
    3.5675   -8.9353    2.5976 H   0  0  0  0  0  0  0  0  0  0  0  0
    4.9217   -7.1653    2.7793 H   0  0  0  0  0  0  0  0  0  0  0  0
    5.2349   -5.7115    4.5646 H   0  0  0  0  0  0  0  0  0  0  0  0
    5.7718   -4.2614    5.3002 H   0  0  0  0  0  0  0  0  0  0  0  0
    3.6877   -6.0738    6.7243 H   0  0  0  0  0  0  0  0  0  0  0  0
    6.0603   -6.9643    6.3920 H   0  0  0  0  0  0  0  0  0  0  0  0
    5.3573   -7.0249    7.9772 H   0  0  0  0  0  0  0  0  0  0  0  0
    6.5697   -5.7770    7.5624 H   0  0  0  0  0  0  0  0  0  0  0  0
    1.6339   -2.7279    3.6670 H   0  0  0  0  0  0  0  0  0  0  0  0
  1  2  1  0
  1 40  1  0
  1 41  1  0
  1 42  1  0
  2 39  1  0
  2  3  1  0
  2 43  1  1
  3  4  1  0
  3 44  1  0
  3 45  1  0
  4  5  2  0
  4 36  1  0
 19  5  1  1
  5  6  1  0
  6  7  1  0
  6 46  1  0
  6 91  1  0
  8  7  1  1
  7 47  1  0
  7 48  1  0
  8 16  1  0
  8 18  1  0
  8  9  1  0
  9 10  1  0
  9 49  1  0
  9 50  1  0
 10 18  1  0
 10 11  1  0
 10 51  1  1
 11 12  1  0
 11 13  1  0
 11 52  1  6
 12 53  1  0
 13 14  1  0
 13 19  1  0
 13 54  1  6
 14 15  1  0
 14 16  1  0
 14 55  1  6
 15 56  1  0
 16 17  1  0
 16 57  1  1
 17 18  1  0
 17 58  1  0
 17 59  1  0
 18 60  1  1
 19 35  1  0
 19 20  1  0
 20 33  1  0
 20 21  1  0
 20 61  1  6
 21 22  1  0
 21 62  1  0
 21 63  1  0
 22 34  1  0
 22 23  1  0
 22 64  1  6
 23 33  1  0
 23 24  1  0
 23 65  1  6
 24 25  1  0
 24 66  1  0
 24 67  1  0
 25 26  1  0
 25 27  1  0
 25 28  1  0
 26 68  1  0
 26 69  1  0
 26 70  1  0
 27 71  1  0
 27 72  1  0
 27 73  1  0
 28 29  1  0
 28 30  1  0
 28 31  1  0
 29 74  1  0
 29 75  1  0
 29 76  1  0
 30 77  1  0
 30 78  1  0
 30 79  1  0
 31 35  1  0
 31 32  1  0
 31 80  1  1
 32 33  1  0
 32 34  1  0
 32 81  1  1
 33 82  1  1
 34 35  1  0
 34 83  1  1
 35 84  1  6
 36 37  1  0
 36 85  1  0
 36 86  1  0
 37 38  1  0
 37 39  1  0
 37 87  1  6
 38 88  1  0
 38 89  1  0
 38 90  1  0
M  CHG  2   4   1  25   1
M  END
>  <i_m_ct_stereo_status>  (104) 
1

>  <s_m_source_file>  (104) 
/var/tmp/pbs.5076255.sched01/tmp9d3cgwpa/0mc_8ktg4.sdf

>  <i_m_source_file_index>  (104) 
43

>  <i_lp_mmshare_version>  (104) 
48012

>  <i_f3d_flags>  (104) 
0

>  <s_epik_input>  (104) 
W0NIM11bQ0BASF0xW0NIMl1OKFtDSDJdW0NASF0oTzEpW0NIM10pL0MoPVtDSF0vW0NIMl0yKVtDQF0zKFtDQEBIXShbQ0BASF0oW09IXSlbQ0BIXTRDMjU2KVtDQEhdKFtPSF0pW0NASF0oW0NIMl01KVtDQEhdNltDSDJdNClbQ0BASF03W0NASF04W0NASF05W0NAQEhdKFtDSDJdNylbQ0BASF0xW0NIXThbQ0BIXShbQ0BASF0xMylDKFtDSDNdKShbQ0gzXSlbTitdKFtDSDJdOSkoW0NIM10pW0NIM10=

>  <s_epik_cmdline>  (104) 
J2VwaWtfcHl0aG9uJywgJy1waHQnLCAnMi4wJywgJy1waCcsICc3LjAnLCAnLXRuJywgJzgnLCAnLW1hJywgJzIwMCcsICctaW1hZScsICc8aW5maWxlLm1hZT4nLCAnLW9tYWUnLCAnPG91dGZpbGUubWFlPic=

>  <r_lp_tautomer_probability>  (104) 
1

>  <r_epik_Ionization_Penalty>  (104) 
0.0018165

>  <r_epik_Ionization_Penalty_Charging>  (104) 
0

>  <r_epik_Ionization_Penalty_Neutral>  (104) 
0.0018165

>  <r_epik_State_Penalty>  (104) 
-0

>  <r_epik_Charging_Adjusted_Penalty>  (104) 
0

>  <i_epik_Tot_Q>  (104) 
2

>  <i_epik_Tot_abs_Q>  (104) 
2

>  <s_epik_Chemistry_Notes>  (104) 
This compound has an imine and may undergo hydrolysis.

>  <s_lp_Force_Field>  (104) 
OPLS3e

>  <r_lp_Energy>  (104) 
460.543

>  <b_lp_Chiralities_Consistent>  (104) 
1

>  <s_lp_Variant>  (104) 
24:0-1

>  <s_i_glide_gridfile>  (104) 
pfpi4k_grid

>  <i_i_glide_lignum>  (104) 
43

>  <i_i_glide_rotatable_bonds>  (104) 
2

>  <r_i_docking_score>  (104) 
-2.86426

>  <r_i_glide_ligand_efficiency>  (104) 
-0.0734425

>  <r_i_glide_ligand_efficiency_sa>  (104) 
-0.249059

>  <r_i_glide_ligand_efficiency_ln>  (104) 
-0.614178

>  <r_i_glide_gscore>  (104) 
-2.86426

>  <r_i_glide_lipo>  (104) 
-0.353498

>  <r_i_glide_hbond>  (104) 
-0.249721

>  <r_i_glide_metal>  (104) 
-0

>  <r_i_glide_rewards>  (104) 
0

>  <r_i_glide_evdw>  (104) 
-20.5342

>  <r_i_glide_ecoul>  (104) 
-8.04072

>  <r_i_glide_erotb>  (104) 
0

>  <r_i_glide_esite>  (104) 
-0.0282181

>  <r_i_glide_emodel>  (104) 
-31.1751

>  <r_i_glide_energy>  (104) 
-28.575

>  <r_i_glide_einternal>  (104) 
1.42491

>  <r_i_glide_intrahb_reward>  (104) 
-0

>  <i_i_glide_confnum>  (104) 
4

>  <i_i_glide_posenum>  (104) 
33

>  <r_i_glide_eff_state_penalty>  (104) 
0

>  <ligand_id>  (104) 
24

>  <original_smiles>  (104) 
CC1CN(C2=CCC34CC5C(O)C(C(O)C3CC54)C23C2CC4C5C[N+](C)(C)C(C)(C)C6C(C52)C4C63)CC(C)O1

>  <smiles>  (104) 
[H]OC1([H])C2([H])C([H])([H])C34C([H])([H])C([H])([H])C(=[N+]5C([H])([H])C([H])(C([H])([H])[H])OC([H])(C([H])([H])[H])C5([H])[H])C5(C1([H])C([H])(O[H])C3([H])C([H])([H])C24[H])C1([H])C([H])([H])C2([H])C3([H])C4([H])C1([H])C2([H])C([H])([H])[N+](C([H])([H])[H])(C([H])([H])[H])C(C([H])([H])[H])(C([H])([H])[H])C4([H])C35[H]

$$$$
24:0:1
     RDKit          3D

 91100  0  0  1  0  0  0  0  0999 V2000
    1.7577   -4.3575    6.9667 C   0  0  0  0  0  0  0  0  0  0  0  0
    3.1239   -3.6151    7.0329 C   0  0  2  0  0  0  0  0  0  0  0  0
    3.4896   -3.0321    5.6679 C   0  0  0  0  0  0  0  0  0  0  0  0
    3.7654   -4.1336    4.6607 N   0  0  0  0  0  0  0  0  0  0  0  0
    3.2254   -4.2360    3.4920 C   0  0  0  0  0  0  0  0  0  0  0  0
    2.4444   -2.9693    2.9872 C   0  0  0  0  0  0  0  0  0  0  0  0
    3.3420   -1.7076    2.6598 C   0  0  0  0  0  0  0  0  0  0  0  0
    4.4174   -2.2205    1.7268 C   0  0  1  0  0  0  0  0  0  0  0  0
    5.6787   -2.6169    2.5678 C   0  0  0  0  0  0  0  0  0  0  0  0
    6.2639   -3.1302    1.3275 C   0  0  1  0  0  0  0  0  0  0  0  0
    5.7828   -4.6223    1.0918 C   0  0  1  0  0  0  0  0  0  0  0  0
    6.5499   -5.4468    1.9385 O   0  0  0  0  0  0  0  0  0  0  0  0
    4.2227   -5.0367    1.1355 C   0  0  2  0  0  0  0  0  0  0  0  0
    3.5888   -4.1031    0.0539 C   0  0  1  0  0  0  0  0  0  0  0  0
    2.2467   -4.2593   -0.2824 O   0  0  0  0  0  0  0  0  0  0  0  0
    3.8004   -2.6414    0.3505 C   0  0  2  0  0  0  0  0  0  0  0  0
    4.8158   -1.8752   -0.4733 C   0  0  0  0  0  0  0  0  0  0  0  0
    5.5924   -1.8113    0.8009 C   0  0  1  0  0  0  0  0  0  0  0  0
    3.3329   -5.4889    2.4635 C   0  0  2  0  0  0  0  0  0  0  0  0
    1.7868   -5.9107    2.0872 C   0  0  1  0  0  0  0  0  0  0  0  0
    1.7710   -6.8478    0.8826 C   0  0  0  0  0  0  0  0  0  0  0  0
    2.0590   -8.1699    1.5476 C   0  0  2  0  0  0  0  0  0  0  0  0
    0.9182   -8.3982    2.4763 C   0  0  1  0  0  0  0  0  0  0  0  0
    1.1796   -9.7724    3.3415 C   0  0  0  0  0  0  0  0  0  0  0  0
    1.9581   -9.9352    4.6971 N   0  0  0  0  0  0  0  0  0  0  0  0
    0.9762   -9.5771    5.7912 C   0  0  0  0  0  0  0  0  0  0  0  0
    2.1410  -11.4190    4.8616 C   0  0  0  0  0  0  0  0  0  0  0  0
    3.3758   -9.2371    4.9475 C   0  0  0  0  0  0  0  0  0  0  0  0
    3.6227   -9.1653    6.4923 C   0  0  0  0  0  0  0  0  0  0  0  0
    4.6015  -10.0973    4.4977 C   0  0  0  0  0  0  0  0  0  0  0  0
    3.5044   -7.6912    4.4378 C   0  0  2  0  0  0  0  0  0  0  0  0
    2.1253   -7.3813    4.0472 C   0  0  1  0  0  0  0  0  0  0  0  0
    1.1102   -6.9668    3.0879 C   0  0  1  0  0  0  0  0  0  0  0  0
    2.9850   -8.0040    2.7141 C   0  0  2  0  0  0  0  0  0  0  0  0
    3.9027   -6.9142    3.0571 C   0  0  1  0  0  0  0  0  0  0  0  0
    4.9026   -4.9369    5.2521 C   0  0  0  0  0  0  0  0  0  0  0  0
    4.5670   -5.4493    6.6965 C   0  0  1  0  0  0  0  0  0  0  0  0
    5.6985   -6.3538    7.2029 C   0  0  0  0  0  0  0  0  0  0  0  0
    4.2454   -4.3537    7.5541 O   0  0  0  0  0  0  0  0  0  0  0  0
    0.9817   -3.6916    6.5716 H   0  0  0  0  0  0  0  0  0  0  0  0
    1.4466   -4.7320    7.9474 H   0  0  0  0  0  0  0  0  0  0  0  0
    1.7639   -5.2001    6.2750 H   0  0  0  0  0  0  0  0  0  0  0  0
    3.0181   -2.8015    7.7337 H   0  0  0  0  0  0  0  0  0  0  0  0
    2.6708   -2.3758    5.3898 H   0  0  0  0  0  0  0  0  0  0  0  0
    4.3959   -2.4243    5.7318 H   0  0  0  0  0  0  0  0  0  0  0  0
    1.9021   -3.1856    2.0782 H   0  0  0  0  0  0  0  0  0  0  0  0
    2.7270   -0.9327    2.2000 H   0  0  0  0  0  0  0  0  0  0  0  0
    3.7663   -1.2568    3.5558 H   0  0  0  0  0  0  0  0  0  0  0  0
    6.1247   -1.7282    3.0260 H   0  0  0  0  0  0  0  0  0  0  0  0
    5.6518   -3.4154    3.2906 H   0  0  0  0  0  0  0  0  0  0  0  0
    7.3457   -3.0114    1.3179 H   0  0  0  0  0  0  0  0  0  0  0  0
    6.1256   -4.8659    0.0840 H   0  0  0  0  0  0  0  0  0  0  0  0
    6.4484   -6.3401    1.6588 H   0  0  0  0  0  0  0  0  0  0  0  0
    4.3183   -5.9891    0.6208 H   0  0  0  0  0  0  0  0  0  0  0  0
    4.0886   -4.3364   -0.8898 H   0  0  0  0  0  0  0  0  0  0  0  0
    2.0910   -3.8102   -1.1033 H   0  0  0  0  0  0  0  0  0  0  0  0
    2.8900   -2.0668    0.2061 H   0  0  0  0  0  0  0  0  0  0  0  0
    5.3265   -2.4737   -1.2272 H   0  0  0  0  0  0  0  0  0  0  0  0
    4.4830   -0.9047   -0.8518 H   0  0  0  0  0  0  0  0  0  0  0  0
    6.0949   -0.8727    1.0170 H   0  0  0  0  0  0  0  0  0  0  0  0
    1.1190   -5.0714    1.9374 H   0  0  0  0  0  0  0  0  0  0  0  0
    0.7899   -6.8516    0.4231 H   0  0  0  0  0  0  0  0  0  0  0  0
    2.4864   -6.6326    0.1074 H   0  0  0  0  0  0  0  0  0  0  0  0
    2.3064   -9.0056    0.8818 H   0  0  0  0  0  0  0  0  0  0  0  0
   -0.0074   -8.4873    1.9133 H   0  0  0  0  0  0  0  0  0  0  0  0
    0.1896  -10.1930    3.5059 H   0  0  0  0  0  0  0  0  0  0  0  0
    1.6335  -10.4822    2.6482 H   0  0  0  0  0  0  0  0  0  0  0  0
    1.2652   -9.9427    6.7815 H   0  0  0  0  0  0  0  0  0  0  0  0
    0.0047  -10.0509    5.6323 H   0  0  0  0  0  0  0  0  0  0  0  0
    0.7876   -8.5079    5.8752 H   0  0  0  0  0  0  0  0  0  0  0  0
    2.6189  -11.6834    5.8071 H   0  0  0  0  0  0  0  0  0  0  0  0
    2.7498  -11.8486    4.0676 H   0  0  0  0  0  0  0  0  0  0  0  0
    1.1795  -11.9439    4.8368 H   0  0  0  0  0  0  0  0  0  0  0  0
    4.6324   -8.8443    6.6942 H   0  0  0  0  0  0  0  0  0  0  0  0
    3.5630  -10.1185    7.0170 H   0  0  0  0  0  0  0  0  0  0  0  0
    2.9772   -8.4694    7.0231 H   0  0  0  0  0  0  0  0  0  0  0  0
    5.4921   -9.4688    4.5355 H   0  0  0  0  0  0  0  0  0  0  0  0
    4.5411  -10.5083    3.4863 H   0  0  0  0  0  0  0  0  0  0  0  0
    4.8114  -10.9405    5.1716 H   0  0  0  0  0  0  0  0  0  0  0  0
    3.9642   -7.1773    5.1920 H   0  0  0  0  0  0  0  0  0  0  0  0
    2.2698   -6.4289    4.5562 H   0  0  0  0  0  0  0  0  0  0  0  0
    0.2056   -6.5940    3.5813 H   0  0  0  0  0  0  0  0  0  0  0  0
    3.5593   -8.9400    2.5899 H   0  0  0  0  0  0  0  0  0  0  0  0
    4.9143   -7.1718    2.7747 H   0  0  0  0  0  0  0  0  0  0  0  0
    5.2356   -5.7184    4.5680 H   0  0  0  0  0  0  0  0  0  0  0  0
    5.7680   -4.2737    5.3033 H   0  0  0  0  0  0  0  0  0  0  0  0
    3.6771   -6.0775    6.7386 H   0  0  0  0  0  0  0  0  0  0  0  0
    6.0520   -6.9839    6.3875 H   0  0  0  0  0  0  0  0  0  0  0  0
    5.3503   -7.0425    7.9763 H   0  0  0  0  0  0  0  0  0  0  0  0
    6.5640   -5.8024    7.5614 H   0  0  0  0  0  0  0  0  0  0  0  0
    1.6313   -2.7314    3.6727 H   0  0  0  0  0  0  0  0  0  0  0  0
  1  2  1  0
  1 40  1  0
  1 41  1  0
  1 42  1  0
  2 39  1  0
  2  3  1  0
  2 43  1  1
  3  4  1  0
  3 44  1  0
  3 45  1  0
  4  5  2  0
  4 36  1  0
 19  5  1  1
  5  6  1  0
  6  7  1  0
  6 46  1  0
  6 91  1  0
  8  7  1  1
  7 47  1  0
  7 48  1  0
  8 16  1  0
  8 18  1  0
  8  9  1  0
  9 10  1  0
  9 49  1  0
  9 50  1  0
 10 18  1  0
 10 11  1  0
 10 51  1  1
 11 12  1  0
 11 13  1  0
 11 52  1  6
 12 53  1  0
 13 14  1  0
 13 19  1  0
 13 54  1  6
 14 15  1  0
 14 16  1  0
 14 55  1  6
 15 56  1  0
 16 17  1  0
 16 57  1  1
 17 18  1  0
 17 58  1  0
 17 59  1  0
 18 60  1  1
 19 35  1  0
 19 20  1  0
 20 33  1  0
 20 21  1  0
 20 61  1  6
 21 22  1  0
 21 62  1  0
 21 63  1  0
 22 34  1  0
 22 23  1  0
 22 64  1  6
 23 33  1  0
 23 24  1  0
 23 65  1  6
 24 25  1  0
 24 66  1  0
 24 67  1  0
 25 26  1  0
 25 27  1  0
 25 28  1  0
 26 68  1  0
 26 69  1  0
 26 70  1  0
 27 71  1  0
 27 72  1  0
 27 73  1  0
 28 29  1  0
 28 30  1  0
 28 31  1  0
 29 74  1  0
 29 75  1  0
 29 76  1  0
 30 77  1  0
 30 78  1  0
 30 79  1  0
 31 35  1  0
 31 32  1  0
 31 80  1  1
 32 33  1  0
 32 34  1  0
 32 81  1  1
 33 82  1  1
 34 35  1  0
 34 83  1  1
 35 84  1  6
 36 37  1  0
 36 85  1  0
 36 86  1  0
 37 38  1  0
 37 39  1  0
 37 87  1  6
 38 88  1  0
 38 89  1  0
 38 90  1  0
M  CHG  2   4   1  25   1
M  END
>  <i_m_ct_stereo_status>  (105) 
1

>  <s_m_source_file>  (105) 
/var/tmp/pbs.5076255.sched01/tmp9d3cgwpa/0mc_8ktg4.sdf

>  <i_m_source_file_index>  (105) 
43

>  <i_lp_mmshare_version>  (105) 
48012

>  <i_f3d_flags>  (105) 
0

>  <s_epik_input>  (105) 
W0NIM11bQ0BASF0xW0NIMl1OKFtDSDJdW0NASF0oTzEpW0NIM10pL0MoPVtDSF0vW0NIMl0yKVtDQF0zKFtDQEBIXShbQ0BASF0oW09IXSlbQ0BIXTRDMjU2KVtDQEhdKFtPSF0pW0NASF0oW0NIMl01KVtDQEhdNltDSDJdNClbQ0BASF03W0NASF04W0NASF05W0NAQEhdKFtDSDJdNylbQ0BASF0xW0NIXThbQ0BIXShbQ0BASF0xMylDKFtDSDNdKShbQ0gzXSlbTitdKFtDSDJdOSkoW0NIM10pW0NIM10=

>  <s_epik_cmdline>  (105) 
J2VwaWtfcHl0aG9uJywgJy1waHQnLCAnMi4wJywgJy1waCcsICc3LjAnLCAnLXRuJywgJzgnLCAnLW1hJywgJzIwMCcsICctaW1hZScsICc8aW5maWxlLm1hZT4nLCAnLW9tYWUnLCAnPG91dGZpbGUubWFlPic=

>  <r_lp_tautomer_probability>  (105) 
1

>  <r_epik_Ionization_Penalty>  (105) 
0.0018165

>  <r_epik_Ionization_Penalty_Charging>  (105) 
0

>  <r_epik_Ionization_Penalty_Neutral>  (105) 
0.0018165

>  <r_epik_State_Penalty>  (105) 
-0

>  <r_epik_Charging_Adjusted_Penalty>  (105) 
0

>  <i_epik_Tot_Q>  (105) 
2

>  <i_epik_Tot_abs_Q>  (105) 
2

>  <s_epik_Chemistry_Notes>  (105) 
This compound has an imine and may undergo hydrolysis.

>  <s_lp_Force_Field>  (105) 
OPLS3e

>  <r_lp_Energy>  (105) 
460.543

>  <b_lp_Chiralities_Consistent>  (105) 
1

>  <s_lp_Variant>  (105) 
24:0-1

>  <s_i_glide_gridfile>  (105) 
pfpi4k_grid

>  <i_i_glide_lignum>  (105) 
43

>  <i_i_glide_rotatable_bonds>  (105) 
2

>  <r_i_docking_score>  (105) 
-2.43963

>  <r_i_glide_ligand_efficiency>  (105) 
-0.0625545

>  <r_i_glide_ligand_efficiency_sa>  (105) 
-0.212136

>  <r_i_glide_ligand_efficiency_ln>  (105) 
-0.523125

>  <r_i_glide_gscore>  (105) 
-2.43963

>  <r_i_glide_lipo>  (105) 
-0.356086

>  <r_i_glide_hbond>  (105) 
0

>  <r_i_glide_metal>  (105) 
-0

>  <r_i_glide_rewards>  (105) 
0

>  <r_i_glide_evdw>  (105) 
-20.5698

>  <r_i_glide_ecoul>  (105) 
-6.84597

>  <r_i_glide_erotb>  (105) 
0

>  <r_i_glide_esite>  (105) 
-0.0281567

>  <r_i_glide_emodel>  (105) 
-29.5612

>  <r_i_glide_energy>  (105) 
-27.4157

>  <r_i_glide_einternal>  (105) 
0.754205

>  <r_i_glide_intrahb_reward>  (105) 
-0

>  <i_i_glide_confnum>  (105) 
2

>  <i_i_glide_posenum>  (105) 
1

>  <r_i_glide_eff_state_penalty>  (105) 
0

>  <ligand_id>  (105) 
24

>  <original_smiles>  (105) 
CC1CN(C2=CCC34CC5C(O)C(C(O)C3CC54)C23C2CC4C5C[N+](C)(C)C(C)(C)C6C(C52)C4C63)CC(C)O1

>  <smiles>  (105) 
[H]OC1([H])C2([H])C([H])([H])C34C([H])([H])C([H])([H])C(=[N+]5C([H])([H])C([H])(C([H])([H])[H])OC([H])(C([H])([H])[H])C5([H])[H])C5(C1([H])C([H])(O[H])C3([H])C([H])([H])C24[H])C1([H])C([H])([H])C2([H])C3([H])C4([H])C1([H])C2([H])C([H])([H])[N+](C([H])([H])[H])(C([H])([H])[H])C(C([H])([H])[H])(C([H])([H])[H])C4([H])C35[H]

$$$$
24:0:2
     RDKit          3D

 91100  0  0  1  0  0  0  0  0999 V2000
    3.0017   -4.3854    6.7325 C   0  0  0  0  0  0  0  0  0  0  0  0
    4.4692   -3.9101    6.5349 C   0  0  2  0  0  0  0  0  0  0  0  0
    4.6679   -3.3218    5.1400 C   0  0  0  0  0  0  0  0  0  0  0  0
    4.5254   -4.3882    4.0737 N   0  0  0  0  0  0  0  0  0  0  0  0
    3.7558   -4.3183    3.0339 C   0  0  0  0  0  0  0  0  0  0  0  0
    3.1512   -2.8988    2.7313 C   0  0  0  0  0  0  0  0  0  0  0  0
    4.1941   -1.8050    2.2604 C   0  0  0  0  0  0  0  0  0  0  0  0
    4.9498   -2.4445    1.1171 C   0  0  1  0  0  0  0  0  0  0  0  0
    6.2598   -3.1205    1.6714 C   0  0  0  0  0  0  0  0  0  0  0  0
    6.4669   -3.6540    0.3265 C   0  0  1  0  0  0  0  0  0  0  0  0
    5.6674   -5.0118    0.1702 C   0  0  1  0  0  0  0  0  0  0  0  0
    6.4042   -6.0007    0.8518 O   0  0  0  0  0  0  0  0  0  0  0  0
    4.0978   -5.1349    0.5065 C   0  0  2  0  0  0  0  0  0  0  0  0
    3.4676   -4.0310   -0.4041 C   0  0  1  0  0  0  0  0  0  0  0  0
    2.0732   -3.9111   -0.4682 O   0  0  0  0  0  0  0  0  0  0  0  0
    4.0040   -2.6559   -0.1149 C   0  0  2  0  0  0  0  0  0  0  0  0
    4.9666   -2.0401   -1.1101 C   0  0  0  0  0  0  0  0  0  0  0  0
    5.9735   -2.2029   -0.0194 C   0  0  1  0  0  0  0  0  0  0  0  0
    3.4194   -5.5029    1.9752 C   0  0  2  0  0  0  0  0  0  0  0  0
    1.7800   -5.6077    1.9158 C   0  0  1  0  0  0  0  0  0  0  0  0
    1.3423   -6.4396    0.7100 C   0  0  0  0  0  0  0  0  0  0  0  0
    1.4992   -7.8311    1.2792 C   0  0  2  0  0  0  0  0  0  0  0  0
    0.5382   -7.9106    2.4137 C   0  0  1  0  0  0  0  0  0  0  0  0
    0.6929   -9.3631    3.1660 C   0  0  0  0  0  0  0  0  0  0  0  0
    1.6761   -9.7524    4.3306 N   0  0  0  0  0  0  0  0  0  0  0  0
    1.0129   -9.2886    5.6133 C   0  0  0  0  0  0  0  0  0  0  0  0
    1.5936  -11.2542    4.4239 C   0  0  0  0  0  0  0  0  0  0  0  0
    3.2245   -9.3437    4.3059 C   0  0  0  0  0  0  0  0  0  0  0  0
    3.7737   -9.4156    5.7669 C   0  0  0  0  0  0  0  0  0  0  0  0
    4.1462  -10.3848    3.5923 C   0  0  0  0  0  0  0  0  0  0  0  0
    3.5477   -7.8138    3.8238 C   0  0  2  0  0  0  0  0  0  0  0  0
    2.2038   -7.2367    3.7292 C   0  0  1  0  0  0  0  0  0  0  0  0
    1.1188   -6.5813    3.0045 C   0  0  1  0  0  0  0  0  0  0  0  0
    2.6495   -7.9200    2.2321 C   0  0  2  0  0  0  0  0  0  0  0  0
    3.8101   -7.0440    2.4089 C   0  0  1  0  0  0  0  0  0  0  0  0
    5.5784   -5.4230    4.3994 C   0  0  0  0  0  0  0  0  0  0  0  0
    5.4372   -5.9578    5.8651 C   0  0  1  0  0  0  0  0  0  0  0  0
    6.4525   -7.0810    6.1111 C   0  0  0  0  0  0  0  0  0  0  0  0
    5.5121   -4.8730    6.8014 O   0  0  0  0  0  0  0  0  0  0  0  0
    2.3064   -3.5645    6.5210 H   0  0  0  0  0  0  0  0  0  0  0  0
    2.8218   -4.7575    7.7467 H   0  0  0  0  0  0  0  0  0  0  0  0
    2.7085   -5.1688    6.0332 H   0  0  0  0  0  0  0  0  0  0  0  0
    4.6645   -3.1406    7.2637 H   0  0  0  0  0  0  0  0  0  0  0  0
    3.9536   -2.5095    5.0539 H   0  0  0  0  0  0  0  0  0  0  0  0
    5.6695   -2.8962    5.0335 H   0  0  0  0  0  0  0  0  0  0  0  0
    2.4098   -2.9529    1.9464 H   0  0  0  0  0  0  0  0  0  0  0  0
    3.6618   -0.9031    1.9551 H   0  0  0  0  0  0  0  0  0  0  0  0
    4.8643   -1.4981    3.0614 H   0  0  0  0  0  0  0  0  0  0  0  0
    7.0064   -2.3976    2.0104 H   0  0  0  0  0  0  0  0  0  0  0  0
    6.2090   -3.9466    2.3648 H   0  0  0  0  0  0  0  0  0  0  0  0
    7.5278   -3.7346    0.1046 H   0  0  0  0  0  0  0  0  0  0  0  0
    5.7410   -5.2451   -0.8903 H   0  0  0  0  0  0  0  0  0  0  0  0
    6.0204   -6.8367    0.6469 H   0  0  0  0  0  0  0  0  0  0  0  0
    3.9064   -6.0540   -0.0438 H   0  0  0  0  0  0  0  0  0  0  0  0
    3.7266   -4.2682   -1.4358 H   0  0  0  0  0  0  0  0  0  0  0  0
    1.8711   -3.2272   -1.0931 H   0  0  0  0  0  0  0  0  0  0  0  0
    3.2104   -1.9179   -0.0562 H   0  0  0  0  0  0  0  0  0  0  0  0
    5.1949   -2.6740   -1.9663 H   0  0  0  0  0  0  0  0  0  0  0  0
    4.7571   -1.0022   -1.3907 H   0  0  0  0  0  0  0  0  0  0  0  0
    6.6773   -1.3886    0.1187 H   0  0  0  0  0  0  0  0  0  0  0  0
    1.2932   -4.6480    1.9519 H   0  0  0  0  0  0  0  0  0  0  0  0
    0.3029   -6.2659    0.4643 H   0  0  0  0  0  0  0  0  0  0  0  0
    1.8978   -6.2598   -0.1978 H   0  0  0  0  0  0  0  0  0  0  0  0
    1.4430   -8.6573    0.5795 H   0  0  0  0  0  0  0  0  0  0  0  0
   -0.4782   -7.7955    2.0435 H   0  0  0  0  0  0  0  0  0  0  0  0
   -0.3039   -9.6054    3.5195 H   0  0  0  0  0  0  0  0  0  0  0  0
    0.8586  -10.0980    2.3783 H   0  0  0  0  0  0  0  0  0  0  0  0
    1.4144   -9.7647    6.5116 H   0  0  0  0  0  0  0  0  0  0  0  0
   -0.0416   -9.5659    5.6405 H   0  0  0  0  0  0  0  0  0  0  0  0
    1.0564   -8.2120    5.7591 H   0  0  0  0  0  0  0  0  0  0  0  0
    2.1625  -11.6579    5.2630 H   0  0  0  0  0  0  0  0  0  0  0  0
    1.9498  -11.7361    3.5158 H   0  0  0  0  0  0  0  0  0  0  0  0
    0.5622  -11.5834    4.5718 H   0  0  0  0  0  0  0  0  0  0  0  0
    4.8467   -9.2984    5.7670 H   0  0  0  0  0  0  0  0  0  0  0  0
    3.6377  -10.3714    6.2702 H   0  0  0  0  0  0  0  0  0  0  0  0
    3.3929   -8.6466    6.4363 H   0  0  0  0  0  0  0  0  0  0  0  0
    5.1310   -9.9328    3.4641 H   0  0  0  0  0  0  0  0  0  0  0  0
    3.8139  -10.7127    2.6042 H   0  0  0  0  0  0  0  0  0  0  0  0
    4.3179  -11.2916    4.1892 H   0  0  0  0  0  0  0  0  0  0  0  0
    4.2341   -7.4405    4.4811 H   0  0  0  0  0  0  0  0  0  0  0  0
    2.6260   -6.3608    4.2173 H   0  0  0  0  0  0  0  0  0  0  0  0
    0.4183   -6.0784    3.6813 H   0  0  0  0  0  0  0  0  0  0  0  0
    2.9949   -8.9352    1.9659 H   0  0  0  0  0  0  0  0  0  0  0  0
    4.6735   -7.4665    1.9168 H   0  0  0  0  0  0  0  0  0  0  0  0
    5.6155   -6.2084    3.6423 H   0  0  0  0  0  0  0  0  0  0  0  0
    6.5488   -4.9365    4.2898 H   0  0  0  0  0  0  0  0  0  0  0  0
    4.4711   -6.4142    6.0696 H   0  0  0  0  0  0  0  0  0  0  0  0
    6.5112   -7.7129    5.2251 H   0  0  0  0  0  0  0  0  0  0  0  0
    6.1361   -7.7426    6.9218 H   0  0  0  0  0  0  0  0  0  0  0  0
    7.4617   -6.7228    6.2977 H   0  0  0  0  0  0  0  0  0  0  0  0
    2.5489   -2.5592    3.5738 H   0  0  0  0  0  0  0  0  0  0  0  0
  1  2  1  0
  1 40  1  0
  1 41  1  0
  1 42  1  0
  2 39  1  0
  2  3  1  0
  2 43  1  1
  3  4  1  0
  3 44  1  0
  3 45  1  0
  4  5  2  0
  4 36  1  0
 19  5  1  1
  5  6  1  0
  6  7  1  0
  6 46  1  0
  6 91  1  0
  8  7  1  1
  7 47  1  0
  7 48  1  0
  8 16  1  0
  8 18  1  0
  8  9  1  0
  9 10  1  0
  9 49  1  0
  9 50  1  0
 10 18  1  0
 10 11  1  0
 10 51  1  1
 11 12  1  0
 11 13  1  0
 11 52  1  6
 12 53  1  0
 13 14  1  0
 13 19  1  0
 13 54  1  6
 14 15  1  0
 14 16  1  0
 14 55  1  6
 15 56  1  0
 16 17  1  0
 16 57  1  1
 17 18  1  0
 17 58  1  0
 17 59  1  0
 18 60  1  1
 19 35  1  0
 19 20  1  0
 20 33  1  0
 20 21  1  0
 20 61  1  6
 21 22  1  0
 21 62  1  0
 21 63  1  0
 22 34  1  0
 22 23  1  0
 22 64  1  6
 23 33  1  0
 23 24  1  0
 23 65  1  6
 24 25  1  0
 24 66  1  0
 24 67  1  0
 25 26  1  0
 25 27  1  0
 25 28  1  0
 26 68  1  0
 26 69  1  0
 26 70  1  0
 27 71  1  0
 27 72  1  0
 27 73  1  0
 28 29  1  0
 28 30  1  0
 28 31  1  0
 29 74  1  0
 29 75  1  0
 29 76  1  0
 30 77  1  0
 30 78  1  0
 30 79  1  0
 31 35  1  0
 31 32  1  0
 31 80  1  1
 32 33  1  0
 32 34  1  0
 32 81  1  1
 33 82  1  1
 34 35  1  0
 34 83  1  1
 35 84  1  6
 36 37  1  0
 36 85  1  0
 36 86  1  0
 37 38  1  0
 37 39  1  0
 37 87  1  6
 38 88  1  0
 38 89  1  0
 38 90  1  0
M  CHG  2   4   1  25   1
M  END
>  <i_m_ct_stereo_status>  (106) 
1

>  <s_m_source_file>  (106) 
/var/tmp/pbs.5076255.sched01/tmp9d3cgwpa/0mc_8ktg4.sdf

>  <i_m_source_file_index>  (106) 
43

>  <i_lp_mmshare_version>  (106) 
48012

>  <i_f3d_flags>  (106) 
0

>  <s_epik_input>  (106) 
W0NIM11bQ0BASF0xW0NIMl1OKFtDSDJdW0NASF0oTzEpW0NIM10pL0MoPVtDSF0vW0NIMl0yKVtDQF0zKFtDQEBIXShbQ0BASF0oW09IXSlbQ0BIXTRDMjU2KVtDQEhdKFtPSF0pW0NASF0oW0NIMl01KVtDQEhdNltDSDJdNClbQ0BASF03W0NASF04W0NASF05W0NAQEhdKFtDSDJdNylbQ0BASF0xW0NIXThbQ0BIXShbQ0BASF0xMylDKFtDSDNdKShbQ0gzXSlbTitdKFtDSDJdOSkoW0NIM10pW0NIM10=

>  <s_epik_cmdline>  (106) 
J2VwaWtfcHl0aG9uJywgJy1waHQnLCAnMi4wJywgJy1waCcsICc3LjAnLCAnLXRuJywgJzgnLCAnLW1hJywgJzIwMCcsICctaW1hZScsICc8aW5maWxlLm1hZT4nLCAnLW9tYWUnLCAnPG91dGZpbGUubWFlPic=

>  <r_lp_tautomer_probability>  (106) 
1

>  <r_epik_Ionization_Penalty>  (106) 
0.0018165

>  <r_epik_Ionization_Penalty_Charging>  (106) 
0

>  <r_epik_Ionization_Penalty_Neutral>  (106) 
0.0018165

>  <r_epik_State_Penalty>  (106) 
-0

>  <r_epik_Charging_Adjusted_Penalty>  (106) 
0

>  <i_epik_Tot_Q>  (106) 
2

>  <i_epik_Tot_abs_Q>  (106) 
2

>  <s_epik_Chemistry_Notes>  (106) 
This compound has an imine and may undergo hydrolysis.

>  <s_lp_Force_Field>  (106) 
OPLS3e

>  <r_lp_Energy>  (106) 
460.543

>  <b_lp_Chiralities_Consistent>  (106) 
1

>  <s_lp_Variant>  (106) 
24:0-1

>  <s_i_glide_gridfile>  (106) 
pfpi4k_grid

>  <i_i_glide_lignum>  (106) 
43

>  <i_i_glide_rotatable_bonds>  (106) 
2

>  <r_i_docking_score>  (106) 
-2.36676

>  <r_i_glide_ligand_efficiency>  (106) 
-0.0606862

>  <r_i_glide_ligand_efficiency_sa>  (106) 
-0.2058

>  <r_i_glide_ligand_efficiency_ln>  (106) 
-0.507501

>  <r_i_glide_gscore>  (106) 
-2.36676

>  <r_i_glide_lipo>  (106) 
-0.339845

>  <r_i_glide_hbond>  (106) 
-0.00273459

>  <r_i_glide_metal>  (106) 
-0

>  <r_i_glide_rewards>  (106) 
-0.00240467

>  <r_i_glide_evdw>  (106) 
-19.2296

>  <r_i_glide_ecoul>  (106) 
-6.93998

>  <r_i_glide_erotb>  (106) 
0

>  <r_i_glide_esite>  (106) 
-0.0193024

>  <r_i_glide_emodel>  (106) 
-28.2595

>  <r_i_glide_energy>  (106) 
-26.1695

>  <r_i_glide_einternal>  (106) 
0.723585

>  <r_i_glide_intrahb_reward>  (106) 
-0

>  <i_i_glide_confnum>  (106) 
2

>  <i_i_glide_posenum>  (106) 
9

>  <r_i_glide_eff_state_penalty>  (106) 
0

>  <ligand_id>  (106) 
24

>  <original_smiles>  (106) 
CC1CN(C2=CCC34CC5C(O)C(C(O)C3CC54)C23C2CC4C5C[N+](C)(C)C(C)(C)C6C(C52)C4C63)CC(C)O1

>  <smiles>  (106) 
[H]OC1([H])C2([H])C([H])([H])C34C([H])([H])C([H])([H])C(=[N+]5C([H])([H])C([H])(C([H])([H])[H])OC([H])(C([H])([H])[H])C5([H])[H])C5(C1([H])C([H])(O[H])C3([H])C([H])([H])C24[H])C1([H])C([H])([H])C2([H])C3([H])C4([H])C1([H])C2([H])C([H])([H])[N+](C([H])([H])[H])(C([H])([H])[H])C(C([H])([H])[H])(C([H])([H])[H])C4([H])C35[H]

$$$$
25:0:0
     RDKit          3D

 24 26  0  0  1  0  0  0  0  0999 V2000
   -5.6954    7.3420    0.1068 C   0  0  0  0  0  0  0  0  0  0  0  0
   -5.6836    6.0933    0.7544 C   0  0  0  0  0  0  0  0  0  0  0  0
   -4.5051    5.6768    1.4001 C   0  0  0  0  0  0  0  0  0  0  0  0
   -3.3837    6.5451    1.3565 C   0  0  0  0  0  0  0  0  0  0  0  0
   -3.4970    7.7753    0.6881 C   0  0  0  0  0  0  0  0  0  0  0  0
   -4.6325    8.1709    0.0731 N   0  0  0  0  0  0  0  0  0  0  0  0
   -2.1292    6.1544    1.9684 N   0  0  0  0  0  0  0  0  0  0  0  0
   -2.0739    4.9747    2.6095 C   0  0  0  0  0  0  0  0  0  0  0  0
   -1.0219    4.5524    3.3142 N   0  0  0  0  0  0  0  0  0  0  0  0
   -1.2767    3.2224    3.8728 C   0  0  0  0  0  0  0  0  0  0  0  0
   -2.7208    2.9356    3.4473 C   0  0  0  0  0  0  0  0  0  0  0  0
   -3.0925    4.1081    2.6703 N   0  0  0  0  0  0  0  0  0  0  0  0
   -4.4201    4.3172    2.0783 C   0  0  0  0  0  0  0  0  0  0  0  0
   -6.5841    7.6911   -0.4006 H   0  0  0  0  0  0  0  0  0  0  0  0
   -6.5612    5.4581    0.7308 H   0  0  0  0  0  0  0  0  0  0  0  0
   -2.6608    8.4611    0.6370 H   0  0  0  0  0  0  0  0  0  0  0  0
   -1.2982    6.7475    1.9383 H   0  0  0  0  0  0  0  0  0  0  0  0
   -0.5927    2.4899    3.4447 H   0  0  0  0  0  0  0  0  0  0  0  0
   -1.1595    3.2111    4.9576 H   0  0  0  0  0  0  0  0  0  0  0  0
   -2.7697    2.0641    2.8077 H   0  0  0  0  0  0  0  0  0  0  0  0
   -3.3771    2.8055    4.3031 H   0  0  0  0  0  0  0  0  0  0  0  0
   -5.1944    4.2278    2.8380 H   0  0  0  0  0  0  0  0  0  0  0  0
   -4.6150    3.5341    1.3462 H   0  0  0  0  0  0  0  0  0  0  0  0
   -0.1022    4.9748    3.2935 H   0  0  0  0  0  0  0  0  0  0  0  0
  1  6  2  0
  1  2  1  0
  1 14  1  0
  2  3  2  0
  2 15  1  0
  3 13  1  0
  3  4  1  0
  4  5  2  0
  4  7  1  0
  5  6  1  0
  5 16  1  0
  7  8  1  0
  7 17  1  0
  8 12  1  0
  8  9  2  0
  9 10  1  0
  9 24  1  0
 10 11  1  0
 10 18  1  0
 10 19  1  0
 11 12  1  0
 11 20  1  0
 11 21  1  0
 12 13  1  0
 13 22  1  0
 13 23  1  0
M  CHG  1   9   1
M  END
>  <i_m_ct_stereo_status>  (107) 
1

>  <s_m_source_file>  (107) 
/var/tmp/pbs.5076255.sched01/tmp9d3cgwpa/0mc_8ktg4.sdf

>  <i_m_source_file_index>  (107) 
44

>  <i_lp_mmshare_version>  (107) 
48012

>  <i_f3d_flags>  (107) 
0

>  <s_epik_input>  (107) 
W2NIXTFbY0hdbltjSF1jKGMxMilbTkhdQz0zTihbQ0gyXTIpW0NIMl1bQ0gyXU4z

>  <s_epik_cmdline>  (107) 
J2VwaWtfcHl0aG9uJywgJy1waHQnLCAnMi4wJywgJy1waCcsICc3LjAnLCAnLXRuJywgJzgnLCAnLW1hJywgJzIwMCcsICctaW1hZScsICc8aW5maWxlLm1hZT4nLCAnLW9tYWUnLCAnPG91dGZpbGUubWFlPic=

>  <r_lp_tautomer_probability>  (107) 
1

>  <r_epik_Ionization_Penalty>  (107) 
0.00132994

>  <r_epik_Ionization_Penalty_Charging>  (107) 
0.00130532

>  <r_epik_Ionization_Penalty_Neutral>  (107) 
2.46264e-05

>  <r_epik_State_Penalty>  (107) 
-0

>  <r_epik_Charging_Adjusted_Penalty>  (107) 
0.00130532

>  <i_epik_Tot_Q>  (107) 
1

>  <i_epik_Tot_abs_Q>  (107) 
1

>  <s_epik_Chemistry_Notes>  (107) 
This compound has an imine and may undergo hydrolysis.

>  <s_lp_Force_Field>  (107) 
OPLS3e

>  <r_lp_Energy>  (107) 
17.8445

>  <b_lp_Chiralities_Consistent>  (107) 
1

>  <s_lp_Variant>  (107) 
25:0-1

>  <s_i_glide_gridfile>  (107) 
pfpi4k_grid

>  <i_i_glide_lignum>  (107) 
44

>  <i_i_glide_rotatable_bonds>  (107) 
0

>  <r_i_docking_score>  (107) 
-4.96118

>  <r_i_glide_ligand_efficiency>  (107) 
-0.381629

>  <r_i_glide_ligand_efficiency_sa>  (107) 
-0.897338

>  <r_i_glide_ligand_efficiency_ln>  (107) 
-1.39165

>  <r_i_glide_gscore>  (107) 
-4.96118

>  <r_i_glide_lipo>  (107) 
-0.780961

>  <r_i_glide_hbond>  (107) 
-0.117835

>  <r_i_glide_metal>  (107) 
-0

>  <r_i_glide_rewards>  (107) 
-2.21447

>  <r_i_glide_evdw>  (107) 
-13.8732

>  <r_i_glide_ecoul>  (107) 
-6.02547

>  <r_i_glide_erotb>  (107) 
0

>  <r_i_glide_esite>  (107) 
-0.250427

>  <r_i_glide_emodel>  (107) 
-28.5418

>  <r_i_glide_energy>  (107) 
-19.8987

>  <r_i_glide_einternal>  (107) 
0

>  <r_i_glide_intrahb_reward>  (107) 
-0

>  <i_i_glide_confnum>  (107) 
2

>  <i_i_glide_posenum>  (107) 
16

>  <r_i_glide_eff_state_penalty>  (107) 
0

>  <ligand_id>  (107) 
25

>  <original_smiles>  (107) 
c1cc2c(cn1)NC1=NCCN1C2

>  <smiles>  (107) 
[H]c1nc([H])c2c(c1[H])C([H])([H])N1C(=[N+]([H])C([H])([H])C1([H])[H])N2[H]

$$$$
25:0:1
     RDKit          3D

 24 26  0  0  1  0  0  0  0  0999 V2000
    3.7750   -0.8818   -3.9181 C   0  0  0  0  0  0  0  0  0  0  0  0
    4.2136   -0.5434   -2.6252 C   0  0  0  0  0  0  0  0  0  0  0  0
    4.4335   -1.5721   -1.6890 C   0  0  0  0  0  0  0  0  0  0  0  0
    4.2064   -2.8999   -2.1073 C   0  0  0  0  0  0  0  0  0  0  0  0
    3.7704   -3.1432   -3.4241 C   0  0  0  0  0  0  0  0  0  0  0  0
    3.5815   -2.1545   -4.3152 N   0  0  0  0  0  0  0  0  0  0  0  0
    4.4219   -3.9960   -1.2019 N   0  0  0  0  0  0  0  0  0  0  0  0
    4.8508   -3.7184    0.0413 C   0  0  0  0  0  0  0  0  0  0  0  0
    5.0979   -4.6398    0.9816 N   0  0  0  0  0  0  0  0  0  0  0  0
    5.5531   -4.0012    2.2196 C   0  0  0  0  0  0  0  0  0  0  0  0
    5.5443   -2.5011    1.8855 C   0  0  0  0  0  0  0  0  0  0  0  0
    5.0860   -2.4791    0.4998 N   0  0  0  0  0  0  0  0  0  0  0  0
    4.9006   -1.2522   -0.2797 C   0  0  0  0  0  0  0  0  0  0  0  0
    3.5981   -0.1152   -4.6561 H   0  0  0  0  0  0  0  0  0  0  0  0
    4.3655    0.4951   -2.3696 H   0  0  0  0  0  0  0  0  0  0  0  0
    3.5891   -4.1462   -3.7773 H   0  0  0  0  0  0  0  0  0  0  0  0
    4.2338   -4.9566   -1.4848 H   0  0  0  0  0  0  0  0  0  0  0  0
    4.8831   -4.2337    3.0494 H   0  0  0  0  0  0  0  0  0  0  0  0
    6.5539   -4.3501    2.4785 H   0  0  0  0  0  0  0  0  0  0  0  0
    4.8624   -1.9439    2.5269 H   0  0  0  0  0  0  0  0  0  0  0  0
    6.5370   -2.0599    1.9666 H   0  0  0  0  0  0  0  0  0  0  0  0
    5.8410   -0.7057   -0.3186 H   0  0  0  0  0  0  0  0  0  0  0  0
    4.1680   -0.6149    0.2125 H   0  0  0  0  0  0  0  0  0  0  0  0
    4.9883   -5.6379    0.8733 H   0  0  0  0  0  0  0  0  0  0  0  0
  1  6  2  0
  1  2  1  0
  1 14  1  0
  2  3  2  0
  2 15  1  0
  3 13  1  0
  3  4  1  0
  4  5  2  0
  4  7  1  0
  5  6  1  0
  5 16  1  0
  7  8  1  0
  7 17  1  0
  8 12  1  0
  8  9  2  0
  9 10  1  0
  9 24  1  0
 10 11  1  0
 10 18  1  0
 10 19  1  0
 11 12  1  0
 11 20  1  0
 11 21  1  0
 12 13  1  0
 13 22  1  0
 13 23  1  0
M  CHG  1   9   1
M  END
>  <i_m_ct_stereo_status>  (108) 
1

>  <s_m_source_file>  (108) 
/var/tmp/pbs.5076255.sched01/tmp9d3cgwpa/0mc_8ktg4.sdf

>  <i_m_source_file_index>  (108) 
44

>  <i_lp_mmshare_version>  (108) 
48012

>  <i_f3d_flags>  (108) 
0

>  <s_epik_input>  (108) 
W2NIXTFbY0hdbltjSF1jKGMxMilbTkhdQz0zTihbQ0gyXTIpW0NIMl1bQ0gyXU4z

>  <s_epik_cmdline>  (108) 
J2VwaWtfcHl0aG9uJywgJy1waHQnLCAnMi4wJywgJy1waCcsICc3LjAnLCAnLXRuJywgJzgnLCAnLW1hJywgJzIwMCcsICctaW1hZScsICc8aW5maWxlLm1hZT4nLCAnLW9tYWUnLCAnPG91dGZpbGUubWFlPic=

>  <r_lp_tautomer_probability>  (108) 
1

>  <r_epik_Ionization_Penalty>  (108) 
0.00132994

>  <r_epik_Ionization_Penalty_Charging>  (108) 
0.00130532

>  <r_epik_Ionization_Penalty_Neutral>  (108) 
2.46264e-05

>  <r_epik_State_Penalty>  (108) 
-0

>  <r_epik_Charging_Adjusted_Penalty>  (108) 
0.00130532

>  <i_epik_Tot_Q>  (108) 
1

>  <i_epik_Tot_abs_Q>  (108) 
1

>  <s_epik_Chemistry_Notes>  (108) 
This compound has an imine and may undergo hydrolysis.

>  <s_lp_Force_Field>  (108) 
OPLS3e

>  <r_lp_Energy>  (108) 
17.8445

>  <b_lp_Chiralities_Consistent>  (108) 
1

>  <s_lp_Variant>  (108) 
25:0-1

>  <s_i_glide_gridfile>  (108) 
pfpi4k_grid

>  <i_i_glide_lignum>  (108) 
44

>  <i_i_glide_rotatable_bonds>  (108) 
0

>  <r_i_docking_score>  (108) 
-4.61311

>  <r_i_glide_ligand_efficiency>  (108) 
-0.354855

>  <r_i_glide_ligand_efficiency_sa>  (108) 
-0.834382

>  <r_i_glide_ligand_efficiency_ln>  (108) 
-1.29402

>  <r_i_glide_gscore>  (108) 
-4.61311

>  <r_i_glide_lipo>  (108) 
-0.595419

>  <r_i_glide_hbond>  (108) 
-0.32

>  <r_i_glide_metal>  (108) 
-0

>  <r_i_glide_rewards>  (108) 
-2.24814

>  <r_i_glide_evdw>  (108) 
-15.4851

>  <r_i_glide_ecoul>  (108) 
-4.33501

>  <r_i_glide_erotb>  (108) 
0

>  <r_i_glide_esite>  (108) 
-0.0250497

>  <r_i_glide_emodel>  (108) 
-27.8943

>  <r_i_glide_energy>  (108) 
-19.8201

>  <r_i_glide_einternal>  (108) 
0

>  <r_i_glide_intrahb_reward>  (108) 
-0

>  <i_i_glide_confnum>  (108) 
1

>  <i_i_glide_posenum>  (108) 
31

>  <r_i_glide_eff_state_penalty>  (108) 
0

>  <ligand_id>  (108) 
25

>  <original_smiles>  (108) 
c1cc2c(cn1)NC1=NCCN1C2

>  <smiles>  (108) 
[H]c1nc([H])c2c(c1[H])C([H])([H])N1C(=[N+]([H])C([H])([H])C1([H])[H])N2[H]

$$$$
25:0:2
     RDKit          3D

 24 26  0  0  1  0  0  0  0  0999 V2000
    4.0929   -1.0175   -3.9217 C   0  0  0  0  0  0  0  0  0  0  0  0
    4.1374   -0.6210   -2.5729 C   0  0  0  0  0  0  0  0  0  0  0  0
    3.8232   -1.5576   -1.5736 C   0  0  0  0  0  0  0  0  0  0  0  0
    3.5119   -2.8633   -1.9954 C   0  0  0  0  0  0  0  0  0  0  0  0
    3.5223   -3.1825   -3.3694 C   0  0  0  0  0  0  0  0  0  0  0  0
    3.8177   -2.2757   -4.3142 N   0  0  0  0  0  0  0  0  0  0  0  0
    3.1920   -3.8674   -1.0292 N   0  0  0  0  0  0  0  0  0  0  0  0
    3.2157   -3.5466    0.2768 C   0  0  0  0  0  0  0  0  0  0  0  0
    2.9611   -4.4020    1.2774 N   0  0  0  0  0  0  0  0  0  0  0  0
    3.0768   -3.7222    2.5722 C   0  0  0  0  0  0  0  0  0  0  0  0
    3.4450   -2.2769    2.1987 C   0  0  0  0  0  0  0  0  0  0  0  0
    3.5038   -2.3236    0.7396 N   0  0  0  0  0  0  0  0  0  0  0  0
    3.8198   -1.1686   -0.1038 C   0  0  0  0  0  0  0  0  0  0  0  0
    4.3108   -0.3161   -4.7086 H   0  0  0  0  0  0  0  0  0  0  0  0
    4.3613    0.4068   -2.3263 H   0  0  0  0  0  0  0  0  0  0  0  0
    3.3026   -4.1777   -3.7233 H   0  0  0  0  0  0  0  0  0  0  0  0
    3.0131   -4.8281   -1.3304 H   0  0  0  0  0  0  0  0  0  0  0  0
    2.1344   -3.7660    3.1181 H   0  0  0  0  0  0  0  0  0  0  0  0
    3.8496   -4.1839    3.1913 H   0  0  0  0  0  0  0  0  0  0  0  0
    2.6904   -1.5655    2.5292 H   0  0  0  0  0  0  0  0  0  0  0  0
    4.4093   -1.9824    2.6130 H   0  0  0  0  0  0  0  0  0  0  0  0
    4.7967   -0.7724    0.1670 H   0  0  0  0  0  0  0  0  0  0  0  0
    3.0760   -0.3949    0.0788 H   0  0  0  0  0  0  0  0  0  0  0  0
    2.7607   -5.3882    1.1770 H   0  0  0  0  0  0  0  0  0  0  0  0
  1  6  2  0
  1  2  1  0
  1 14  1  0
  2  3  2  0
  2 15  1  0
  3 13  1  0
  3  4  1  0
  4  5  2  0
  4  7  1  0
  5  6  1  0
  5 16  1  0
  7  8  1  0
  7 17  1  0
  8 12  1  0
  8  9  2  0
  9 10  1  0
  9 24  1  0
 10 11  1  0
 10 18  1  0
 10 19  1  0
 11 12  1  0
 11 20  1  0
 11 21  1  0
 12 13  1  0
 13 22  1  0
 13 23  1  0
M  CHG  1   9   1
M  END
>  <i_m_ct_stereo_status>  (109) 
1

>  <s_m_source_file>  (109) 
/var/tmp/pbs.5076255.sched01/tmp9d3cgwpa/0mc_8ktg4.sdf

>  <i_m_source_file_index>  (109) 
44

>  <i_lp_mmshare_version>  (109) 
48012

>  <i_f3d_flags>  (109) 
0

>  <s_epik_input>  (109) 
W2NIXTFbY0hdbltjSF1jKGMxMilbTkhdQz0zTihbQ0gyXTIpW0NIMl1bQ0gyXU4z

>  <s_epik_cmdline>  (109) 
J2VwaWtfcHl0aG9uJywgJy1waHQnLCAnMi4wJywgJy1waCcsICc3LjAnLCAnLXRuJywgJzgnLCAnLW1hJywgJzIwMCcsICctaW1hZScsICc8aW5maWxlLm1hZT4nLCAnLW9tYWUnLCAnPG91dGZpbGUubWFlPic=

>  <r_lp_tautomer_probability>  (109) 
1

>  <r_epik_Ionization_Penalty>  (109) 
0.00132994

>  <r_epik_Ionization_Penalty_Charging>  (109) 
0.00130532

>  <r_epik_Ionization_Penalty_Neutral>  (109) 
2.46264e-05

>  <r_epik_State_Penalty>  (109) 
-0

>  <r_epik_Charging_Adjusted_Penalty>  (109) 
0.00130532

>  <i_epik_Tot_Q>  (109) 
1

>  <i_epik_Tot_abs_Q>  (109) 
1

>  <s_epik_Chemistry_Notes>  (109) 
This compound has an imine and may undergo hydrolysis.

>  <s_lp_Force_Field>  (109) 
OPLS3e

>  <r_lp_Energy>  (109) 
17.8445

>  <b_lp_Chiralities_Consistent>  (109) 
1

>  <s_lp_Variant>  (109) 
25:0-1

>  <s_i_glide_gridfile>  (109) 
pfpi4k_grid

>  <i_i_glide_lignum>  (109) 
44

>  <i_i_glide_rotatable_bonds>  (109) 
0

>  <r_i_docking_score>  (109) 
-4.61196

>  <r_i_glide_ligand_efficiency>  (109) 
-0.354766

>  <r_i_glide_ligand_efficiency_sa>  (109) 
-0.834174

>  <r_i_glide_ligand_efficiency_ln>  (109) 
-1.2937

>  <r_i_glide_gscore>  (109) 
-4.61196

>  <r_i_glide_lipo>  (109) 
-0.402956

>  <r_i_glide_hbond>  (109) 
-0.32

>  <r_i_glide_metal>  (109) 
-0

>  <r_i_glide_rewards>  (109) 
-2.21447

>  <r_i_glide_evdw>  (109) 
-13.8902

>  <r_i_glide_ecoul>  (109) 
-6.27315

>  <r_i_glide_erotb>  (109) 
0

>  <r_i_glide_esite>  (109) 
-0.0390447

>  <r_i_glide_emodel>  (109) 
-28.2306

>  <r_i_glide_energy>  (109) 
-20.1634

>  <r_i_glide_einternal>  (109) 
0

>  <r_i_glide_intrahb_reward>  (109) 
-0

>  <i_i_glide_confnum>  (109) 
2

>  <i_i_glide_posenum>  (109) 
2

>  <r_i_glide_eff_state_penalty>  (109) 
0

>  <ligand_id>  (109) 
25

>  <original_smiles>  (109) 
c1cc2c(cn1)NC1=NCCN1C2

>  <smiles>  (109) 
[H]c1nc([H])c2c(c1[H])C([H])([H])N1C(=[N+]([H])C([H])([H])C1([H])[H])N2[H]

$$$$
26:0:0
     RDKit          3D

 35 37  0  0  1  0  0  0  0  0999 V2000
    6.0101   -1.2163    0.8157 C   0  0  0  0  0  0  0  0  0  0  0  0
    5.6066   -2.5210    0.0673 C   0  0  1  0  0  0  0  0  0  0  0  0
    6.8705   -3.1369   -0.5971 C   0  0  0  0  0  0  0  0  0  0  0  0
    7.4633   -2.2669   -1.5269 O   0  0  0  0  0  0  0  0  0  0  0  0
    5.1275   -3.5019    0.9950 O   0  0  0  0  0  0  0  0  0  0  0  0
    4.3779   -4.4392    0.2865 C   0  0  1  0  0  0  0  0  0  0  0  0
    3.5215   -5.2237    1.2420 N   0  0  0  0  0  0  0  0  0  0  0  0
    2.5843   -4.7527    2.1440 C   0  0  0  0  0  0  0  0  0  0  0  0
    1.8755   -5.6781    2.7612 N   0  0  0  0  0  0  0  0  0  0  0  0
    2.4407   -6.8709    2.2974 C   0  0  0  0  0  0  0  0  0  0  0  0
    2.1975   -8.2389    2.5754 C   0  0  0  0  0  0  0  0  0  0  0  0
    1.2861   -8.6320    3.4489 N   0  0  0  0  0  0  0  0  0  0  0  0
    2.9495   -9.1817    1.9399 N   0  0  0  0  0  0  0  0  0  0  0  0
    3.8863   -8.7940    1.0778 C   0  0  0  0  0  0  0  0  0  0  0  0
    4.2347   -7.5473    0.7127 N   0  0  0  0  0  0  0  0  0  0  0  0
    3.4743   -6.6045    1.3642 C   0  0  0  0  0  0  0  0  0  0  0  0
    3.5877   -3.6411   -0.7843 C   0  0  1  0  0  0  0  0  0  0  0  0
    2.2087   -3.4439   -0.4968 O   0  0  0  0  0  0  0  0  0  0  0  0
    4.4136   -2.3557   -0.9277 C   0  0  1  0  0  0  0  0  0  0  0  0
    3.6768   -1.1630   -0.6680 O   0  0  0  0  0  0  0  0  0  0  0  0
    1.1660   -9.6054    3.6419 H   0  0  0  0  0  0  0  0  0  0  0  0
    6.4327   -0.4822    0.1230 H   0  0  0  0  0  0  0  0  0  0  0  0
    6.7629   -1.3847    1.5883 H   0  0  0  0  0  0  0  0  0  0  0  0
    5.1785   -0.7015    1.3055 H   0  0  0  0  0  0  0  0  0  0  0  0
    7.6101   -3.4269    0.1533 H   0  0  0  0  0  0  0  0  0  0  0  0
    6.6324   -4.0367   -1.1564 H   0  0  0  0  0  0  0  0  0  0  0  0
    8.0895   -2.7398   -2.0514 H   0  0  0  0  0  0  0  0  0  0  0  0
    5.0281   -5.1996   -0.1380 H   0  0  0  0  0  0  0  0  0  0  0  0
    2.3789   -3.6973    2.2845 H   0  0  0  0  0  0  0  0  0  0  0  0
    0.7662   -7.9214    3.9327 H   0  0  0  0  0  0  0  0  0  0  0  0
    4.4195   -9.6095    0.6018 H   0  0  0  0  0  0  0  0  0  0  0  0
    3.6141   -4.2378   -1.6877 H   0  0  0  0  0  0  0  0  0  0  0  0
    1.9085   -2.5704   -0.7442 H   0  0  0  0  0  0  0  0  0  0  0  0
    4.7712   -2.2865   -1.9524 H   0  0  0  0  0  0  0  0  0  0  0  0
    2.7859   -1.1898   -1.0035 H   0  0  0  0  0  0  0  0  0  0  0  0
  2  1  1  1
  1 22  1  0
  1 23  1  0
  1 24  1  0
  2 19  1  0
  2  3  1  0
  2  5  1  0
  3  4  1  0
  3 25  1  0
  3 26  1  0
  4 27  1  0
  5  6  1  0
  6 17  1  0
  6 28  1  6
  6  7  1  0
  7  8  1  0
  7 16  1  0
  8  9  2  0
  8 29  1  0
  9 10  1  0
 10 11  1  0
 10 16  2  0
 11 13  2  0
 11 12  1  0
 12 30  1  0
 12 21  1  0
 13 14  1  0
 14 31  1  0
 14 15  2  0
 15 16  1  0
 17 18  1  0
 17 19  1  0
 17 32  1  6
 18 33  1  0
 19 20  1  0
 19 34  1  6
 20 35  1  0
M  END
>  <i_m_ct_stereo_status>  (110) 
1

>  <s_m_source_file>  (110) 
/var/tmp/pbs.5076255.sched01/tmp9d3cgwpa/0mc_8ktg4.sdf

>  <i_m_source_file_index>  (110) 
45

>  <i_lp_mmshare_version>  (110) 
48012

>  <i_f3d_flags>  (110) 
0

>  <s_epik_input>  (110) 
W09IXVtDSDJdW0NAXTEoW0NIM10pT1tDQEhdKFtDQEBIXShbT0hdKVtDQEhdMVtPSF0pbihbY0hdbjIpYyhjMjMpbltjSF1bbkhdY1wzPU5cW0hd

>  <s_epik_cmdline>  (110) 
J2VwaWtfcHl0aG9uJywgJy1waHQnLCAnMi4wJywgJy1waCcsICc3LjAnLCAnLXRuJywgJzgnLCAnLW1hJywgJzIwMCcsICctaW1hZScsICc8aW5maWxlLm1hZT4nLCAnLW9tYWUnLCAnPG91dGZpbGUubWFlPic=

>  <r_lp_tautomer_probability>  (110) 
1

>  <r_epik_Ionization_Penalty>  (110) 
0.000430716

>  <r_epik_Ionization_Penalty_Charging>  (110) 
0

>  <r_epik_Ionization_Penalty_Neutral>  (110) 
0.000430716

>  <r_epik_State_Penalty>  (110) 
-0

>  <r_epik_Charging_Adjusted_Penalty>  (110) 
0

>  <i_epik_Tot_Q>  (110) 
0

>  <i_epik_Tot_abs_Q>  (110) 
0

>  <s_epik_Chemistry_Notes>  (110) 
This compound contains an acetal/aminal-like group ( X-CH(R)-Y where X, Y are N, S, or O) that may be acid/base labile, releasing an aldehyde.

>  <s_lp_Force_Field>  (110) 
OPLS3e

>  <r_lp_Energy>  (110) 
20.9131

>  <b_lp_Chiralities_Consistent>  (110) 
1

>  <s_lp_Variant>  (110) 
26:0-1

>  <s_i_glide_gridfile>  (110) 
pfpi4k_grid

>  <i_i_glide_lignum>  (110) 
45

>  <i_i_glide_rotatable_bonds>  (110) 
5

>  <r_i_docking_score>  (110) 
-4.26677

>  <r_i_glide_ligand_efficiency>  (110) 
-0.213339

>  <r_i_glide_ligand_efficiency_sa>  (110) 
-0.57909

>  <r_i_glide_ligand_efficiency_ln>  (110) 
-1.06783

>  <r_i_glide_gscore>  (110) 
-4.26677

>  <r_i_glide_lipo>  (110) 
-0.248663

>  <r_i_glide_hbond>  (110) 
-0.152835

>  <r_i_glide_metal>  (110) 
-0

>  <r_i_glide_rewards>  (110) 
-1.62091

>  <r_i_glide_evdw>  (110) 
-18.5775

>  <r_i_glide_ecoul>  (110) 
-10.4447

>  <r_i_glide_erotb>  (110) 
0.319848

>  <r_i_glide_esite>  (110) 
-0.0686273

>  <r_i_glide_emodel>  (110) 
-35.5301

>  <r_i_glide_energy>  (110) 
-29.0223

>  <r_i_glide_einternal>  (110) 
3.7593

>  <r_i_glide_intrahb_reward>  (110) 
-0

>  <i_i_glide_confnum>  (110) 
1

>  <i_i_glide_posenum>  (110) 
7

>  <r_i_glide_eff_state_penalty>  (110) 
0

>  <ligand_id>  (110) 
26

>  <original_smiles>  (110) 
CC1(CO)OC(n2cnc3c(=N)[nH]cnc32)C(O)C1O

>  <smiles>  (110) 
[H]OC([H])([H])C1(C([H])([H])[H])OC([H])(n2c([H])nc3c(N([H])[H])nc([H])nc32)C([H])(O[H])C1([H])O[H]

$$$$
26:0:1
     RDKit          3D

 35 37  0  0  1  0  0  0  0  0999 V2000
    3.3305   -2.1048   -2.4034 C   0  0  0  0  0  0  0  0  0  0  0  0
    3.7264   -2.5709   -0.9666 C   0  0  1  0  0  0  0  0  0  0  0  0
    4.0022   -1.3147   -0.0869 C   0  0  0  0  0  0  0  0  0  0  0  0
    5.1523   -0.6493   -0.5499 O   0  0  0  0  0  0  0  0  0  0  0  0
    2.6504   -3.2906   -0.3428 O   0  0  0  0  0  0  0  0  0  0  0  0
    3.1690   -4.0379    0.7182 C   0  0  1  0  0  0  0  0  0  0  0  0
    2.2150   -5.1003    1.1045 N   0  0  0  0  0  0  0  0  0  0  0  0
    1.4071   -5.8644    0.2981 C   0  0  0  0  0  0  0  0  0  0  0  0
    0.6241   -6.6869    0.9389 N   0  0  0  0  0  0  0  0  0  0  0  0
    0.9917   -6.5359    2.2760 C   0  0  0  0  0  0  0  0  0  0  0  0
    0.5808   -7.1414    3.4887 C   0  0  0  0  0  0  0  0  0  0  0  0
   -0.3487   -8.1012    3.5453 N   0  0  0  0  0  0  0  0  0  0  0  0
    1.1150   -6.7021    4.6538 N   0  0  0  0  0  0  0  0  0  0  0  0
    2.0166   -5.7214    4.6288 C   0  0  0  0  0  0  0  0  0  0  0  0
    2.4998   -5.0721    3.5564 N   0  0  0  0  0  0  0  0  0  0  0  0
    1.9547   -5.5244    2.3869 C   0  0  0  0  0  0  0  0  0  0  0  0
    4.4978   -4.6100    0.1958 C   0  0  1  0  0  0  0  0  0  0  0  0
    4.4309   -5.9448   -0.2842 O   0  0  0  0  0  0  0  0  0  0  0  0
    4.8737   -3.6126   -0.9212 C   0  0  1  0  0  0  0  0  0  0  0  0
    5.0497   -4.2564   -2.1871 O   0  0  0  0  0  0  0  0  0  0  0  0
   -0.5653   -8.5631    4.4218 H   0  0  0  0  0  0  0  0  0  0  0  0
    4.1414   -1.5185   -2.8464 H   0  0  0  0  0  0  0  0  0  0  0  0
    2.4443   -1.4672   -2.4119 H   0  0  0  0  0  0  0  0  0  0  0  0
    3.1233   -2.9108   -3.1163 H   0  0  0  0  0  0  0  0  0  0  0  0
    3.1299   -0.6513   -0.0806 H   0  0  0  0  0  0  0  0  0  0  0  0
    4.2263   -1.5289    0.9581 H   0  0  0  0  0  0  0  0  0  0  0  0
    5.0503    0.2912   -0.3697 H   0  0  0  0  0  0  0  0  0  0  0  0
    3.2597   -3.4117    1.6138 H   0  0  0  0  0  0  0  0  0  0  0  0
    1.4021   -5.7568   -0.7794 H   0  0  0  0  0  0  0  0  0  0  0  0
   -0.6709   -8.4797    2.6652 H   0  0  0  0  0  0  0  0  0  0  0  0
    2.4082   -5.4128    5.5954 H   0  0  0  0  0  0  0  0  0  0  0  0
    5.2110   -4.5853    1.0232 H   0  0  0  0  0  0  0  0  0  0  0  0
    3.7838   -5.9937   -0.9832 H   0  0  0  0  0  0  0  0  0  0  0  0
    5.8304   -3.1458   -0.6925 H   0  0  0  0  0  0  0  0  0  0  0  0
    4.2908   -4.7927   -2.3763 H   0  0  0  0  0  0  0  0  0  0  0  0
  2  1  1  6
  1 22  1  0
  1 23  1  0
  1 24  1  0
  2 19  1  0
  2  3  1  0
  2  5  1  0
  3  4  1  0
  3 25  1  0
  3 26  1  0
  4 27  1  0
  5  6  1  0
  6 17  1  0
  6 28  1  1
  6  7  1  0
  7  8  1  0
  7 16  1  0
  8  9  2  0
  8 29  1  0
  9 10  1  0
 10 11  1  0
 10 16  2  0
 11 13  2  0
 11 12  1  0
 12 30  1  0
 12 21  1  0
 13 14  1  0
 14 31  1  0
 14 15  2  0
 15 16  1  0
 17 18  1  0
 17 19  1  0
 17 32  1  1
 18 33  1  0
 19 20  1  0
 19 34  1  1
 20 35  1  0
M  END
>  <i_m_ct_stereo_status>  (111) 
1

>  <s_m_source_file>  (111) 
/var/tmp/pbs.5076255.sched01/tmp9d3cgwpa/0mc_8ktg4.sdf

>  <i_m_source_file_index>  (111) 
45

>  <i_lp_mmshare_version>  (111) 
48012

>  <i_f3d_flags>  (111) 
0

>  <s_epik_input>  (111) 
W09IXVtDSDJdW0NAXTEoW0NIM10pT1tDQEhdKFtDQEBIXShbT0hdKVtDQEhdMVtPSF0pbihbY0hdbjIpYyhjMjMpbltjSF1bbkhdY1wzPU5cW0hd

>  <s_epik_cmdline>  (111) 
J2VwaWtfcHl0aG9uJywgJy1waHQnLCAnMi4wJywgJy1waCcsICc3LjAnLCAnLXRuJywgJzgnLCAnLW1hJywgJzIwMCcsICctaW1hZScsICc8aW5maWxlLm1hZT4nLCAnLW9tYWUnLCAnPG91dGZpbGUubWFlPic=

>  <r_lp_tautomer_probability>  (111) 
1

>  <r_epik_Ionization_Penalty>  (111) 
0.000430716

>  <r_epik_Ionization_Penalty_Charging>  (111) 
0

>  <r_epik_Ionization_Penalty_Neutral>  (111) 
0.000430716

>  <r_epik_State_Penalty>  (111) 
-0

>  <r_epik_Charging_Adjusted_Penalty>  (111) 
0

>  <i_epik_Tot_Q>  (111) 
0

>  <i_epik_Tot_abs_Q>  (111) 
0

>  <s_epik_Chemistry_Notes>  (111) 
This compound contains an acetal/aminal-like group ( X-CH(R)-Y where X, Y are N, S, or O) that may be acid/base labile, releasing an aldehyde.

>  <s_lp_Force_Field>  (111) 
OPLS3e

>  <r_lp_Energy>  (111) 
20.9131

>  <b_lp_Chiralities_Consistent>  (111) 
1

>  <s_lp_Variant>  (111) 
26:0-1

>  <s_i_glide_gridfile>  (111) 
pfpi4k_grid

>  <i_i_glide_lignum>  (111) 
45

>  <i_i_glide_rotatable_bonds>  (111) 
5

>  <r_i_docking_score>  (111) 
-4.19717

>  <r_i_glide_ligand_efficiency>  (111) 
-0.209859

>  <r_i_glide_ligand_efficiency_sa>  (111) 
-0.569644

>  <r_i_glide_ligand_efficiency_ln>  (111) 
-1.05041

>  <r_i_glide_gscore>  (111) 
-4.19717

>  <r_i_glide_lipo>  (111) 
-0.0560473

>  <r_i_glide_hbond>  (111) 
-0.332367

>  <r_i_glide_metal>  (111) 
-0

>  <r_i_glide_rewards>  (111) 
-1.49136

>  <r_i_glide_evdw>  (111) 
-18.21

>  <r_i_glide_ecoul>  (111) 
-10.9589

>  <r_i_glide_erotb>  (111) 
0.456926

>  <r_i_glide_esite>  (111) 
-0.219997

>  <r_i_glide_emodel>  (111) 
-36.5212

>  <r_i_glide_energy>  (111) 
-29.1689

>  <r_i_glide_einternal>  (111) 
1.48874

>  <r_i_glide_intrahb_reward>  (111) 
-0

>  <i_i_glide_confnum>  (111) 
1

>  <i_i_glide_posenum>  (111) 
11

>  <r_i_glide_eff_state_penalty>  (111) 
0

>  <ligand_id>  (111) 
26

>  <original_smiles>  (111) 
CC1(CO)OC(n2cnc3c(=N)[nH]cnc32)C(O)C1O

>  <smiles>  (111) 
[H]OC([H])([H])C1(C([H])([H])[H])OC([H])(n2c([H])nc3c(N([H])[H])nc([H])nc32)C([H])(O[H])C1([H])O[H]

$$$$
26:0:2
     RDKit          3D

 35 37  0  0  1  0  0  0  0  0999 V2000
    5.4396   -2.6682    1.4739 C   0  0  0  0  0  0  0  0  0  0  0  0
    5.2219   -4.1922    1.2594 C   0  0  1  0  0  0  0  0  0  0  0  0
    6.5614   -4.9549    1.4611 C   0  0  0  0  0  0  0  0  0  0  0  0
    7.6102   -4.4228    0.6794 O   0  0  0  0  0  0  0  0  0  0  0  0
    4.3194   -4.7082    2.2446 O   0  0  0  0  0  0  0  0  0  0  0  0
    3.8193   -5.9236    1.7680 C   0  0  1  0  0  0  0  0  0  0  0  0
    2.5791   -6.2959    2.5039 N   0  0  0  0  0  0  0  0  0  0  0  0
    1.6445   -5.4811    3.1005 C   0  0  0  0  0  0  0  0  0  0  0  0
    0.6074   -6.1022    3.6049 N   0  0  0  0  0  0  0  0  0  0  0  0
    0.8637   -7.4428    3.3500 C   0  0  0  0  0  0  0  0  0  0  0  0
    0.1755   -8.6501    3.6284 C   0  0  0  0  0  0  0  0  0  0  0  0
   -0.9869   -8.6581    4.2903 N   0  0  0  0  0  0  0  0  0  0  0  0
    0.7181   -9.8227    3.2207 N   0  0  0  0  0  0  0  0  0  0  0  0
    1.8768   -9.8049    2.5495 C   0  0  0  0  0  0  0  0  0  0  0  0
    2.6329   -8.7501    2.2097 N   0  0  0  0  0  0  0  0  0  0  0  0
    2.0894   -7.5793    2.6463 C   0  0  0  0  0  0  0  0  0  0  0  0
    3.5566   -5.6967    0.2727 C   0  0  1  0  0  0  0  0  0  0  0  0
    2.1988   -5.3979   -0.0287 O   0  0  0  0  0  0  0  0  0  0  0  0
    4.5320   -4.5620   -0.0839 C   0  0  1  0  0  0  0  0  0  0  0  0
    3.8886   -3.4578   -0.7091 O   0  0  0  0  0  0  0  0  0  0  0  0
   -1.4025   -9.5592    4.5352 H   0  0  0  0  0  0  0  0  0  0  0  0
    6.1722   -2.2660    0.7716 H   0  0  0  0  0  0  0  0  0  0  0  0
    5.8011   -2.4380    2.4763 H   0  0  0  0  0  0  0  0  0  0  0  0
    4.5391   -2.0697    1.3251 H   0  0  0  0  0  0  0  0  0  0  0  0
    6.8575   -4.9179    2.5104 H   0  0  0  0  0  0  0  0  0  0  0  0
    6.4868   -6.0106    1.2012 H   0  0  0  0  0  0  0  0  0  0  0  0
    7.7056   -3.5102    0.9075 H   0  0  0  0  0  0  0  0  0  0  0  0
    4.5109   -6.7423    1.9765 H   0  0  0  0  0  0  0  0  0  0  0  0
    1.7485   -4.4008    3.1108 H   0  0  0  0  0  0  0  0  0  0  0  0
   -1.3564   -7.7962    4.6412 H   0  0  0  0  0  0  0  0  0  0  0  0
    2.2651  -10.7719    2.2607 H   0  0  0  0  0  0  0  0  0  0  0  0
    3.8169   -6.6110   -0.2533 H   0  0  0  0  0  0  0  0  0  0  0  0
    2.1331   -5.2947   -0.9708 H   0  0  0  0  0  0  0  0  0  0  0  0
    5.2743   -4.9109   -0.8022 H   0  0  0  0  0  0  0  0  0  0  0  0
    3.3506   -3.7602   -1.4279 H   0  0  0  0  0  0  0  0  0  0  0  0
  2  1  1  1
  1 22  1  0
  1 23  1  0
  1 24  1  0
  2 19  1  0
  2  3  1  0
  2  5  1  0
  3  4  1  0
  3 25  1  0
  3 26  1  0
  4 27  1  0
  5  6  1  0
  6 17  1  0
  6 28  1  6
  6  7  1  0
  7  8  1  0
  7 16  1  0
  8  9  2  0
  8 29  1  0
  9 10  1  0
 10 11  1  0
 10 16  2  0
 11 13  2  0
 11 12  1  0
 12 30  1  0
 12 21  1  0
 13 14  1  0
 14 31  1  0
 14 15  2  0
 15 16  1  0
 17 18  1  0
 17 19  1  0
 17 32  1  6
 18 33  1  0
 19 20  1  0
 19 34  1  6
 20 35  1  0
M  END
>  <i_m_ct_stereo_status>  (112) 
1

>  <s_m_source_file>  (112) 
/var/tmp/pbs.5076255.sched01/tmp9d3cgwpa/0mc_8ktg4.sdf

>  <i_m_source_file_index>  (112) 
45

>  <i_lp_mmshare_version>  (112) 
48012

>  <i_f3d_flags>  (112) 
0

>  <s_epik_input>  (112) 
W09IXVtDSDJdW0NAXTEoW0NIM10pT1tDQEhdKFtDQEBIXShbT0hdKVtDQEhdMVtPSF0pbihbY0hdbjIpYyhjMjMpbltjSF1bbkhdY1wzPU5cW0hd

>  <s_epik_cmdline>  (112) 
J2VwaWtfcHl0aG9uJywgJy1waHQnLCAnMi4wJywgJy1waCcsICc3LjAnLCAnLXRuJywgJzgnLCAnLW1hJywgJzIwMCcsICctaW1hZScsICc8aW5maWxlLm1hZT4nLCAnLW9tYWUnLCAnPG91dGZpbGUubWFlPic=

>  <r_lp_tautomer_probability>  (112) 
1

>  <r_epik_Ionization_Penalty>  (112) 
0.000430716

>  <r_epik_Ionization_Penalty_Charging>  (112) 
0

>  <r_epik_Ionization_Penalty_Neutral>  (112) 
0.000430716

>  <r_epik_State_Penalty>  (112) 
-0

>  <r_epik_Charging_Adjusted_Penalty>  (112) 
0

>  <i_epik_Tot_Q>  (112) 
0

>  <i_epik_Tot_abs_Q>  (112) 
0

>  <s_epik_Chemistry_Notes>  (112) 
This compound contains an acetal/aminal-like group ( X-CH(R)-Y where X, Y are N, S, or O) that may be acid/base labile, releasing an aldehyde.

>  <s_lp_Force_Field>  (112) 
OPLS3e

>  <r_lp_Energy>  (112) 
20.9131

>  <b_lp_Chiralities_Consistent>  (112) 
1

>  <s_lp_Variant>  (112) 
26:0-1

>  <s_i_glide_gridfile>  (112) 
pfpi4k_grid

>  <i_i_glide_lignum>  (112) 
45

>  <i_i_glide_rotatable_bonds>  (112) 
5

>  <r_i_docking_score>  (112) 
-3.79329

>  <r_i_glide_ligand_efficiency>  (112) 
-0.189665

>  <r_i_glide_ligand_efficiency_sa>  (112) 
-0.514829

>  <r_i_glide_ligand_efficiency_ln>  (112) 
-0.949336

>  <r_i_glide_gscore>  (112) 
-3.79329

>  <r_i_glide_lipo>  (112) 
-0.189465

>  <r_i_glide_hbond>  (112) 
-0.154032

>  <r_i_glide_metal>  (112) 
-0

>  <r_i_glide_rewards>  (112) 
-1.63398

>  <r_i_glide_evdw>  (112) 
-19.3804

>  <r_i_glide_ecoul>  (112) 
-7.81356

>  <r_i_glide_erotb>  (112) 
0.456926

>  <r_i_glide_esite>  (112) 
-0.131688

>  <r_i_glide_emodel>  (112) 
-34.5502

>  <r_i_glide_energy>  (112) 
-27.1939

>  <r_i_glide_einternal>  (112) 
0.773467

>  <r_i_glide_intrahb_reward>  (112) 
-0

>  <i_i_glide_confnum>  (112) 
1

>  <i_i_glide_posenum>  (112) 
27

>  <r_i_glide_eff_state_penalty>  (112) 
0

>  <ligand_id>  (112) 
26

>  <original_smiles>  (112) 
CC1(CO)OC(n2cnc3c(=N)[nH]cnc32)C(O)C1O

>  <smiles>  (112) 
[H]OC([H])([H])C1(C([H])([H])[H])OC([H])(n2c([H])nc3c(N([H])[H])nc([H])nc32)C([H])(O[H])C1([H])O[H]

$$$$
27:0:0
     RDKit          3D

 74 79  0  0  1  0  0  0  0  0999 V2000
    4.3983    0.1283    6.4692 C   0  0  0  0  0  0  0  0  0  0  0  0
    2.9372   -0.1718    6.1815 C   0  0  0  0  0  0  0  0  0  0  0  0
    1.8514    0.5878    5.9673 C   0  0  0  0  0  0  0  0  0  0  0  0
    1.5938    2.1268    5.9319 C   0  0  2  0  0  0  0  0  0  0  0  0
    0.8899    2.8298    7.1308 C   0  0  0  0  0  0  0  0  0  0  0  0
    0.2269    2.0250    8.2419 C   0  0  0  0  0  0  0  0  0  0  0  0
    1.7062    3.9577    7.7791 C   0  0  0  0  0  0  0  0  0  0  0  0
   -0.1875    3.2752    6.1346 C   0  0  2  0  0  0  0  0  0  0  0  0
   -0.9042    4.6149    6.2172 C   0  0  0  0  0  0  0  0  0  0  0  0
   -0.1168    5.7594    5.9403 O   0  0  0  0  0  0  0  0  0  0  0  0
   -0.8586    2.2420    5.3826 O   0  0  0  0  0  0  0  0  0  0  0  0
    0.4788    2.5907    5.0014 C   0  0  2  0  0  0  0  0  0  0  0  0
    0.6702    3.0038    3.5196 C   0  0  1  0  0  0  0  0  0  0  0  0
    0.7253    4.3978    3.2840 O   0  0  0  0  0  0  0  0  0  0  0  0
    1.8412    2.3071    2.7630 C   0  0  1  0  0  0  0  0  0  0  0  0
    3.0102    2.8715    3.3140 O   0  0  0  0  0  0  0  0  0  0  0  0
    1.6773    0.7380    2.8048 C   0  0  1  0  0  0  0  0  0  0  0  0
    0.6596    0.3558    1.7083 C   0  0  0  0  0  0  0  0  0  0  0  0
    2.9213   -0.2538    2.9649 C   0  0  2  0  0  0  0  0  0  0  0  0
    4.0986    0.4311    3.3306 O   0  0  0  0  0  0  0  0  0  0  0  0
    3.2801   -0.9317    1.6127 C   0  0  0  0  0  0  0  0  0  0  0  0
    2.6195   -2.3194    1.6217 C   0  0  1  0  0  0  0  0  0  0  0  0
    3.5650   -3.3177    1.2987 O   0  0  0  0  0  0  0  0  0  0  0  0
    2.0919   -2.5450    3.0498 C   0  0  0  0  0  0  0  0  0  0  0  0
    2.7799   -1.5004    3.9635 C   0  0  1  0  0  0  0  0  0  0  0  0
    4.0888   -2.0595    4.0892 O   0  0  0  0  0  0  0  0  0  0  0  0
    2.2796   -1.4009    5.5108 C   0  0  1  0  0  0  0  0  0  0  0  0
    2.2878   -2.8493    6.1125 C   0  0  1  0  0  0  0  0  0  0  0  0
    2.9100   -3.0305    7.5141 C   0  0  0  0  0  0  0  0  0  0  0  0
    0.8653   -3.4818    6.0129 C   0  0  0  0  0  0  0  0  0  0  0  0
    0.6650   -4.6113    6.4693 O   0  0  0  0  0  0  0  0  0  0  0  0
   -0.3342   -2.7069    5.3786 C   0  0  0  0  0  0  0  0  0  0  0  0
   -0.2094   -1.1510    5.2102 C   0  0  1  0  0  0  0  0  0  0  0  0
   -1.4230   -0.4951    5.5315 O   0  0  0  0  0  0  0  0  0  0  0  0
    0.9788   -0.6702    6.0297 C   0  0  2  0  0  0  0  0  0  0  0  0
    0.5974   -0.8527    7.3897 O   0  0  0  0  0  0  0  0  0  0  0  0
    5.0731   -0.3492    5.7579 H   0  0  0  0  0  0  0  0  0  0  0  0
    4.6508   -0.2249    7.4691 H   0  0  0  0  0  0  0  0  0  0  0  0
    4.5758    1.2043    6.4472 H   0  0  0  0  0  0  0  0  0  0  0  0
    2.5040    2.6771    5.7217 H   0  0  0  0  0  0  0  0  0  0  0  0
   -0.3017    2.6764    8.9433 H   0  0  0  0  0  0  0  0  0  0  0  0
    0.9508    1.4480    8.8216 H   0  0  0  0  0  0  0  0  0  0  0  0
   -0.5254    1.3495    7.8362 H   0  0  0  0  0  0  0  0  0  0  0  0
    1.1256    4.5830    8.4560 H   0  0  0  0  0  0  0  0  0  0  0  0
    2.1674    4.6148    7.0470 H   0  0  0  0  0  0  0  0  0  0  0  0
    2.5251    3.5511    8.3662 H   0  0  0  0  0  0  0  0  0  0  0  0
   -1.6824    4.5702    5.4636 H   0  0  0  0  0  0  0  0  0  0  0  0
   -1.3850    4.7162    7.1912 H   0  0  0  0  0  0  0  0  0  0  0  0
    0.3341    5.6369    5.1126 H   0  0  0  0  0  0  0  0  0  0  0  0
   -0.2603    2.7164    3.0446 H   0  0  0  0  0  0  0  0  0  0  0  0
    0.5665    4.5118    2.3246 H   0  0  0  0  0  0  0  0  0  0  0  0
    1.7930    2.6480    1.7220 H   0  0  0  0  0  0  0  0  0  0  0  0
    3.7099    2.9021    2.6558 H   0  0  0  0  0  0  0  0  0  0  0  0
    1.1067    0.5858    3.6891 H   0  0  0  0  0  0  0  0  0  0  0  0
    1.0462    0.6051    0.7251 H   0  0  0  0  0  0  0  0  0  0  0  0
   -0.2868    0.8902    1.8007 H   0  0  0  0  0  0  0  0  0  0  0  0
    0.4110   -0.6981    1.7149 H   0  0  0  0  0  0  0  0  0  0  0  0
    4.1884    1.1770    2.7581 H   0  0  0  0  0  0  0  0  0  0  0  0
    3.0165   -0.3487    0.7298 H   0  0  0  0  0  0  0  0  0  0  0  0
    4.3596   -1.0656    1.5349 H   0  0  0  0  0  0  0  0  0  0  0  0
    1.8086   -2.3694    0.8960 H   0  0  0  0  0  0  0  0  0  0  0  0
    3.8118   -3.2042    0.3929 H   0  0  0  0  0  0  0  0  0  0  0  0
    1.0250   -2.3804    3.0049 H   0  0  0  0  0  0  0  0  0  0  0  0
    2.2282   -3.5786    3.3746 H   0  0  0  0  0  0  0  0  0  0  0  0
    4.4315   -2.1788    3.2151 H   0  0  0  0  0  0  0  0  0  0  0  0
    2.8988   -3.5078    5.4936 H   0  0  0  0  0  0  0  0  0  0  0  0
    3.0661   -4.0911    7.7056 H   0  0  0  0  0  0  0  0  0  0  0  0
    2.2742   -2.6631    8.3159 H   0  0  0  0  0  0  0  0  0  0  0  0
    3.8897   -2.5612    7.5956 H   0  0  0  0  0  0  0  0  0  0  0  0
   -0.5352   -3.1641    4.4138 H   0  0  0  0  0  0  0  0  0  0  0  0
   -1.2053   -2.9295    5.9961 H   0  0  0  0  0  0  0  0  0  0  0  0
   -0.0683   -0.9787    4.1550 H   0  0  0  0  0  0  0  0  0  0  0  0
   -1.3223    0.4246    5.3064 H   0  0  0  0  0  0  0  0  0  0  0  0
    1.3036   -0.4859    7.8993 H   0  0  0  0  0  0  0  0  0  0  0  0
  1  2  1  0
  1 37  1  0
  1 38  1  0
  1 39  1  0
 27  2  1  1
  2  3  2  0
  3 35  1  0
  3  4  1  0
  4 12  1  0
  4  5  1  0
  4 40  1  6
  5  6  1  0
  5  7  1  0
  5  8  1  0
  6 41  1  0
  6 42  1  0
  6 43  1  0
  7 44  1  0
  7 45  1  0
  7 46  1  0
  8 12  1  0
  8  9  1  6
  8 11  1  0
  9 10  1  0
  9 47  1  0
  9 48  1  0
 10 49  1  0
 12 11  1  6
 12 13  1  0
 13 14  1  0
 13 15  1  0
 13 50  1  6
 14 51  1  0
 15 16  1  0
 15 17  1  0
 15 52  1  6
 16 53  1  0
 17 18  1  0
 17 19  1  0
 17 54  1  1
 18 55  1  0
 18 56  1  0
 18 57  1  0
 19 25  1  0
 19 20  1  1
 19 21  1  0
 20 58  1  0
 21 22  1  0
 21 59  1  0
 21 60  1  0
 22 23  1  0
 22 24  1  0
 22 61  1  6
 23 62  1  0
 24 25  1  0
 24 63  1  0
 24 64  1  0
 25 26  1  1
 25 27  1  0
 26 65  1  0
 27 35  1  0
 27 28  1  0
 28 29  1  0
 28 30  1  0
 28 66  1  6
 29 67  1  0
 29 68  1  0
 29 69  1  0
 30 31  2  0
 30 32  1  0
 32 33  1  0
 32 70  1  0
 32 71  1  0
 33 34  1  0
 33 35  1  0
 33 72  1  6
 34 73  1  0
 35 36  1  1
 36 74  1  0
M  END
>  <i_m_ct_stereo_status>  (113) 
1

>  <s_m_source_file>  (113) 
/var/tmp/pbs.5076255.sched01/tmp9d3cgwpa/0mc_8ktg4.sdf

>  <i_m_source_file_index>  (113) 
46

>  <i_lp_mmshare_version>  (113) 
48012

>  <i_f3d_flags>  (113) 
0

>  <s_epik_input>  (113) 
W09IXVtDQEhdMVtDQEBIXShbT0hdKVtDQEBIXShbQ0gzXSlbQ0BdKFtPSF0pKFtDSDJdW0NAQEhdKFtPSF0pW0NIMl0yKVtDQEBdMihbT0hdKVtDQF0oQz0zW0NIM10pKFtDQEBIXShbQ0gzXSlDKD1PKVtDSDJdW0NASF00W09IXSlbQ0BAXTQoW09IXSlDM1tDQEBIXShbQ0BdMTU2KUMoW0NIM10pKFtDSDNdKVtDQEBdNShPNilbQ0gyXVtPSF0=

>  <s_epik_cmdline>  (113) 
J2VwaWtfcHl0aG9uJywgJy1waHQnLCAnMi4wJywgJy1waCcsICc3LjAnLCAnLXRuJywgJzgnLCAnLW1hJywgJzIwMCcsICctaW1hZScsICc8aW5maWxlLm1hZT4nLCAnLW9tYWUnLCAnPG91dGZpbGUubWFlPic=

>  <r_lp_tautomer_probability>  (113) 
1

>  <r_epik_Ionization_Penalty>  (113) 
1.32852e-06

>  <r_epik_Ionization_Penalty_Charging>  (113) 
0

>  <r_epik_Ionization_Penalty_Neutral>  (113) 
1.32852e-06

>  <r_epik_State_Penalty>  (113) 
-0

>  <r_epik_Charging_Adjusted_Penalty>  (113) 
0

>  <i_epik_Tot_Q>  (113) 
0

>  <i_epik_Tot_abs_Q>  (113) 
0

>  <s_lp_Force_Field>  (113) 
OPLS3e

>  <r_lp_Energy>  (113) 
85.8239

>  <b_lp_Chiralities_Consistent>  (113) 
1

>  <s_lp_Variant>  (113) 
27:0-1

>  <s_i_glide_gridfile>  (113) 
pfpi4k_grid

>  <i_i_glide_lignum>  (113) 
46

>  <i_i_glide_rotatable_bonds>  (113) 
9

>  <r_i_docking_score>  (113) 
-4.38922

>  <r_i_glide_ligand_efficiency>  (113) 
-0.121923

>  <r_i_glide_ligand_efficiency_sa>  (113) 
-0.40258

>  <r_i_glide_ligand_efficiency_ln>  (113) 
-0.957608

>  <r_i_glide_gscore>  (113) 
-4.38922

>  <r_i_glide_lipo>  (113) 
0

>  <r_i_glide_hbond>  (113) 
0

>  <r_i_glide_metal>  (113) 
-0

>  <r_i_glide_rewards>  (113) 
-1

>  <r_i_glide_evdw>  (113) 
-18.4241

>  <r_i_glide_ecoul>  (113) 
-16.961

>  <r_i_glide_erotb>  (113) 
0.0785903

>  <r_i_glide_esite>  (113) 
-0.00244368

>  <r_i_glide_emodel>  (113) 
-54.5696

>  <r_i_glide_energy>  (113) 
-35.3852

>  <r_i_glide_einternal>  (113) 
2.01491

>  <r_i_glide_intrahb_reward>  (113) 
-1

>  <i_i_glide_confnum>  (113) 
3

>  <i_i_glide_posenum>  (113) 
18

>  <r_i_glide_eff_state_penalty>  (113) 
0

>  <ligand_id>  (113) 
27

>  <original_smiles>  (113) 
CC1=C2C3C(C)(C)C4(CO)OC34C(O)C(O)C(C)C3(O)CC(O)CC3(O)C13C(C)C(=O)CC(O)C23O

>  <smiles>  (113) 
[H]OC([H])([H])C12OC13C([H])(O[H])C([H])(O[H])C([H])(C([H])([H])[H])C1(O[H])C([H])([H])C([H])(O[H])C([H])([H])C1(O[H])C14C(C([H])([H])[H])=C(C3([H])C2(C([H])([H])[H])C([H])([H])[H])C1(O[H])C([H])(O[H])C([H])([H])C(=O)C4([H])C([H])([H])[H]

$$$$
27:0:1
     RDKit          3D

 74 79  0  0  1  0  0  0  0  0999 V2000
    3.9548    0.3482    7.3649 C   0  0  0  0  0  0  0  0  0  0  0  0
    2.7693   -0.2367    6.6244 C   0  0  0  0  0  0  0  0  0  0  0  0
    1.6466    0.2817    6.0974 C   0  0  0  0  0  0  0  0  0  0  0  0
    1.0357    1.7180    6.0202 C   0  0  2  0  0  0  0  0  0  0  0  0
   -0.1499    2.1292    6.9478 C   0  0  0  0  0  0  0  0  0  0  0  0
   -0.8901    1.0923    7.7856 C   0  0  0  0  0  0  0  0  0  0  0  0
    0.1425    3.3368    7.8577 C   0  0  0  0  0  0  0  0  0  0  0  0
   -0.9513    2.4193    5.6669 C   0  0  2  0  0  0  0  0  0  0  0  0
   -1.9976    3.5257    5.5778 C   0  0  0  0  0  0  0  0  0  0  0  0
   -2.1475    4.0075    4.2623 O   0  0  0  0  0  0  0  0  0  0  0  0
   -1.0927    1.3278    4.7337 O   0  0  0  0  0  0  0  0  0  0  0  0
    0.1784    2.0166    4.7949 C   0  0  2  0  0  0  0  0  0  0  0  0
    0.7142    2.5978    3.4644 C   0  0  1  0  0  0  0  0  0  0  0  0
    0.5586    3.9865    3.2843 O   0  0  0  0  0  0  0  0  0  0  0  0
    2.1847    2.2330    3.0953 C   0  0  1  0  0  0  0  0  0  0  0  0
    3.0362    3.0029    3.9191 O   0  0  0  0  0  0  0  0  0  0  0  0
    2.3942    0.6750    3.0518 C   0  0  1  0  0  0  0  0  0  0  0  0
    1.8592    0.1829    1.6822 C   0  0  0  0  0  0  0  0  0  0  0  0
    3.7378   -0.0124    3.5687 C   0  0  2  0  0  0  0  0  0  0  0  0
    4.5603    0.8982    4.2714 O   0  0  0  0  0  0  0  0  0  0  0  0
    4.6207   -0.4635    2.3766 C   0  0  0  0  0  0  0  0  0  0  0  0
    4.3427   -1.9561    2.1486 C   0  0  1  0  0  0  0  0  0  0  0  0
    5.5607   -2.6667    2.1277 O   0  0  0  0  0  0  0  0  0  0  0  0
    3.4815   -2.4268    3.3348 C   0  0  0  0  0  0  0  0  0  0  0  0
    3.6056   -1.3497    4.4419 C   0  0  1  0  0  0  0  0  0  0  0  0
    4.9088   -1.6264    4.9459 O   0  0  0  0  0  0  0  0  0  0  0  0
    2.6592   -1.5111    5.7567 C   0  0  1  0  0  0  0  0  0  0  0  0
    2.8366   -2.9767    6.2905 C   0  0  1  0  0  0  0  0  0  0  0  0
    3.0329   -3.1502    7.8115 C   0  0  0  0  0  0  0  0  0  0  0  0
    1.7061   -3.8948    5.7308 C   0  0  0  0  0  0  0  0  0  0  0  0
    1.6529   -5.0776    6.0900 O   0  0  0  0  0  0  0  0  0  0  0  0
    0.5944   -3.3490    4.7761 C   0  0  0  0  0  0  0  0  0  0  0  0
    0.3814   -1.7876    4.7049 C   0  0  1  0  0  0  0  0  0  0  0  0
   -0.9880   -1.4346    4.7137 O   0  0  0  0  0  0  0  0  0  0  0  0
    1.1258   -1.1447    5.8651 C   0  0  2  0  0  0  0  0  0  0  0  0
    0.3996   -1.5321    7.0353 O   0  0  0  0  0  0  0  0  0  0  0  0
    4.9009    0.1040    6.8845 H   0  0  0  0  0  0  0  0  0  0  0  0
    3.9700   -0.0392    8.3824 H   0  0  0  0  0  0  0  0  0  0  0  0
    3.8570    1.4304    7.4247 H   0  0  0  0  0  0  0  0  0  0  0  0
    1.8085    2.4721    6.1182 H   0  0  0  0  0  0  0  0  0  0  0  0
   -1.7429    1.5308    8.3112 H   0  0  0  0  0  0  0  0  0  0  0  0
   -0.2478    0.6332    8.5427 H   0  0  0  0  0  0  0  0  0  0  0  0
   -1.2883    0.3105    7.1428 H   0  0  0  0  0  0  0  0  0  0  0  0
   -0.7412    3.7423    8.3478 H   0  0  0  0  0  0  0  0  0  0  0  0
    0.6284    4.1513    7.3284 H   0  0  0  0  0  0  0  0  0  0  0  0
    0.8242    3.0617    8.6603 H   0  0  0  0  0  0  0  0  0  0  0  0
   -2.9530    3.1396    5.9454 H   0  0  0  0  0  0  0  0  0  0  0  0
   -1.6951    4.3710    6.2012 H   0  0  0  0  0  0  0  0  0  0  0  0
   -2.0656    3.2644    3.6784 H   0  0  0  0  0  0  0  0  0  0  0  0
    0.0538    2.1702    2.7159 H   0  0  0  0  0  0  0  0  0  0  0  0
    0.3499    4.1261    2.3495 H   0  0  0  0  0  0  0  0  0  0  0  0
    2.3598    2.6413    2.0987 H   0  0  0  0  0  0  0  0  0  0  0  0
    2.9086    3.9099    3.6651 H   0  0  0  0  0  0  0  0  0  0  0  0
    1.6355    0.3264    3.7103 H   0  0  0  0  0  0  0  0  0  0  0  0
    2.4496    0.5830    0.8644 H   0  0  0  0  0  0  0  0  0  0  0  0
    0.8307    0.4981    1.4907 H   0  0  0  0  0  0  0  0  0  0  0  0
    1.8567   -0.8978    1.5889 H   0  0  0  0  0  0  0  0  0  0  0  0
    4.5406    1.7219    3.7941 H   0  0  0  0  0  0  0  0  0  0  0  0
    4.4988    0.1356    1.4758 H   0  0  0  0  0  0  0  0  0  0  0  0
    5.6725   -0.3490    2.6322 H   0  0  0  0  0  0  0  0  0  0  0  0
    3.8212   -2.1234    1.2055 H   0  0  0  0  0  0  0  0  0  0  0  0
    5.3584   -3.5788    1.9637 H   0  0  0  0  0  0  0  0  0  0  0  0
    2.4669   -2.4940    2.9658 H   0  0  0  0  0  0  0  0  0  0  0  0
    3.7552   -3.4312    3.6669 H   0  0  0  0  0  0  0  0  0  0  0  0
    5.5002   -1.6370    4.2031 H   0  0  0  0  0  0  0  0  0  0  0  0
    3.7469   -3.4201    5.8835 H   0  0  0  0  0  0  0  0  0  0  0  0
    3.3773   -4.1628    8.0200 H   0  0  0  0  0  0  0  0  0  0  0  0
    2.1218   -3.0113    8.3884 H   0  0  0  0  0  0  0  0  0  0  0  0
    3.7997   -2.4862    8.2073 H   0  0  0  0  0  0  0  0  0  0  0  0
    0.7960   -3.7481    3.7823 H   0  0  0  0  0  0  0  0  0  0  0  0
   -0.3369   -3.8238    5.0872 H   0  0  0  0  0  0  0  0  0  0  0  0
    0.7606   -1.4868    3.7395 H   0  0  0  0  0  0  0  0  0  0  0  0
   -1.0412   -0.4836    4.6536 H   0  0  0  0  0  0  0  0  0  0  0  0
    0.4449   -2.4743    7.0863 H   0  0  0  0  0  0  0  0  0  0  0  0
  1  2  1  0
  1 37  1  0
  1 38  1  0
  1 39  1  0
 27  2  1  1
  2  3  2  0
  3 35  1  0
  3  4  1  0
  4 12  1  0
  4  5  1  0
  4 40  1  1
  5  6  1  0
  5  7  1  0
  5  8  1  0
  6 41  1  0
  6 42  1  0
  6 43  1  0
  7 44  1  0
  7 45  1  0
  7 46  1  0
  8 12  1  0
  8  9  1  1
  8 11  1  0
  9 10  1  0
  9 47  1  0
  9 48  1  0
 10 49  1  0
 12 11  1  6
 12 13  1  0
 13 14  1  0
 13 15  1  0
 13 50  1  6
 14 51  1  0
 15 16  1  0
 15 17  1  0
 15 52  1  6
 16 53  1  0
 17 18  1  0
 17 19  1  0
 17 54  1  1
 18 55  1  0
 18 56  1  0
 18 57  1  0
 19 25  1  0
 19 20  1  1
 19 21  1  0
 20 58  1  0
 21 22  1  0
 21 59  1  0
 21 60  1  0
 22 23  1  0
 22 24  1  0
 22 61  1  6
 23 62  1  0
 24 25  1  0
 24 63  1  0
 24 64  1  0
 25 26  1  1
 25 27  1  0
 26 65  1  0
 27 35  1  0
 27 28  1  0
 28 29  1  0
 28 30  1  0
 28 66  1  6
 29 67  1  0
 29 68  1  0
 29 69  1  0
 30 31  2  0
 30 32  1  0
 32 33  1  0
 32 70  1  0
 32 71  1  0
 33 34  1  0
 33 35  1  0
 33 72  1  6
 34 73  1  0
 35 36  1  1
 36 74  1  0
M  END
>  <i_m_ct_stereo_status>  (114) 
1

>  <s_m_source_file>  (114) 
/var/tmp/pbs.5076255.sched01/tmp9d3cgwpa/0mc_8ktg4.sdf

>  <i_m_source_file_index>  (114) 
46

>  <i_lp_mmshare_version>  (114) 
48012

>  <i_f3d_flags>  (114) 
0

>  <s_epik_input>  (114) 
W09IXVtDQEhdMVtDQEBIXShbT0hdKVtDQEBIXShbQ0gzXSlbQ0BdKFtPSF0pKFtDSDJdW0NAQEhdKFtPSF0pW0NIMl0yKVtDQEBdMihbT0hdKVtDQF0oQz0zW0NIM10pKFtDQEBIXShbQ0gzXSlDKD1PKVtDSDJdW0NASF00W09IXSlbQ0BAXTQoW09IXSlDM1tDQEBIXShbQ0BdMTU2KUMoW0NIM10pKFtDSDNdKVtDQEBdNShPNilbQ0gyXVtPSF0=

>  <s_epik_cmdline>  (114) 
J2VwaWtfcHl0aG9uJywgJy1waHQnLCAnMi4wJywgJy1waCcsICc3LjAnLCAnLXRuJywgJzgnLCAnLW1hJywgJzIwMCcsICctaW1hZScsICc8aW5maWxlLm1hZT4nLCAnLW9tYWUnLCAnPG91dGZpbGUubWFlPic=

>  <r_lp_tautomer_probability>  (114) 
1

>  <r_epik_Ionization_Penalty>  (114) 
1.32852e-06

>  <r_epik_Ionization_Penalty_Charging>  (114) 
0

>  <r_epik_Ionization_Penalty_Neutral>  (114) 
1.32852e-06

>  <r_epik_State_Penalty>  (114) 
-0

>  <r_epik_Charging_Adjusted_Penalty>  (114) 
0

>  <i_epik_Tot_Q>  (114) 
0

>  <i_epik_Tot_abs_Q>  (114) 
0

>  <s_lp_Force_Field>  (114) 
OPLS3e

>  <r_lp_Energy>  (114) 
85.8239

>  <b_lp_Chiralities_Consistent>  (114) 
1

>  <s_lp_Variant>  (114) 
27:0-1

>  <s_i_glide_gridfile>  (114) 
pfpi4k_grid

>  <i_i_glide_lignum>  (114) 
46

>  <i_i_glide_rotatable_bonds>  (114) 
9

>  <r_i_docking_score>  (114) 
-3.70154

>  <r_i_glide_ligand_efficiency>  (114) 
-0.102821

>  <r_i_glide_ligand_efficiency_sa>  (114) 
-0.339506

>  <r_i_glide_ligand_efficiency_ln>  (114) 
-0.807576

>  <r_i_glide_gscore>  (114) 
-3.70154

>  <r_i_glide_lipo>  (114) 
-0.125874

>  <r_i_glide_hbond>  (114) 
0

>  <r_i_glide_metal>  (114) 
-0

>  <r_i_glide_rewards>  (114) 
-1

>  <r_i_glide_evdw>  (114) 
-19.9255

>  <r_i_glide_ecoul>  (114) 
-11.0532

>  <r_i_glide_erotb>  (114) 
0.0785903

>  <r_i_glide_esite>  (114) 
0

>  <r_i_glide_emodel>  (114) 
-45.052

>  <r_i_glide_energy>  (114) 
-30.9787

>  <r_i_glide_einternal>  (114) 
8.51852

>  <r_i_glide_intrahb_reward>  (114) 
-1

>  <i_i_glide_confnum>  (114) 
2

>  <i_i_glide_posenum>  (114) 
22

>  <r_i_glide_eff_state_penalty>  (114) 
0

>  <ligand_id>  (114) 
27

>  <original_smiles>  (114) 
CC1=C2C3C(C)(C)C4(CO)OC34C(O)C(O)C(C)C3(O)CC(O)CC3(O)C13C(C)C(=O)CC(O)C23O

>  <smiles>  (114) 
[H]OC([H])([H])C12OC13C([H])(O[H])C([H])(O[H])C([H])(C([H])([H])[H])C1(O[H])C([H])([H])C([H])(O[H])C([H])([H])C1(O[H])C14C(C([H])([H])[H])=C(C3([H])C2(C([H])([H])[H])C([H])([H])[H])C1(O[H])C([H])(O[H])C([H])([H])C(=O)C4([H])C([H])([H])[H]

$$$$
27:0:2
     RDKit          3D

 74 79  0  0  1  0  0  0  0  0999 V2000
    3.9664    0.2541    7.1942 C   0  0  0  0  0  0  0  0  0  0  0  0
    2.7132   -0.3123    6.5652 C   0  0  0  0  0  0  0  0  0  0  0  0
    1.5666    0.2412    6.1063 C   0  0  0  0  0  0  0  0  0  0  0  0
    1.0130    1.6965    6.0292 C   0  0  2  0  0  0  0  0  0  0  0  0
   -0.0966    2.1707    7.0270 C   0  0  0  0  0  0  0  0  0  0  0  0
   -0.8091    1.1791    7.9441 C   0  0  0  0  0  0  0  0  0  0  0  0
    0.3088    3.3846    7.8862 C   0  0  0  0  0  0  0  0  0  0  0  0
   -0.9764    2.4703    5.8019 C   0  0  2  0  0  0  0  0  0  0  0  0
   -1.9928    3.6143    5.7588 C   0  0  0  0  0  0  0  0  0  0  0  0
   -2.2001    4.1087    4.4596 O   0  0  0  0  0  0  0  0  0  0  0  0
   -1.2307    1.3693    4.9111 O   0  0  0  0  0  0  0  0  0  0  0  0
    0.0722    1.9955    4.8605 C   0  0  2  0  0  0  0  0  0  0  0  0
    0.5208    2.5310    3.4758 C   0  0  1  0  0  0  0  0  0  0  0  0
    0.4073    3.9302    3.2898 O   0  0  0  0  0  0  0  0  0  0  0  0
    1.9440    2.1177    3.0157 C   0  0  1  0  0  0  0  0  0  0  0  0
    2.8380    2.8637    3.8237 O   0  0  0  0  0  0  0  0  0  0  0  0
    2.1020    0.5513    2.9977 C   0  0  1  0  0  0  0  0  0  0  0  0
    1.4571    0.0386    1.6856 C   0  0  0  0  0  0  0  0  0  0  0  0
    3.4516   -0.1845    3.4351 C   0  0  2  0  0  0  0  0  0  0  0  0
    4.3456    0.7025    4.0747 O   0  0  0  0  0  0  0  0  0  0  0  0
    4.2360   -0.6891    2.1916 C   0  0  0  0  0  0  0  0  0  0  0  0
    3.8968   -2.1784    2.0211 C   0  0  1  0  0  0  0  0  0  0  0  0
    5.0867   -2.9302    1.9319 O   0  0  0  0  0  0  0  0  0  0  0  0
    3.1065   -2.5907    3.2743 C   0  0  0  0  0  0  0  0  0  0  0  0
    3.3417   -1.4993    4.3464 C   0  0  1  0  0  0  0  0  0  0  0  0
    4.6718   -1.7952    4.7659 O   0  0  0  0  0  0  0  0  0  0  0  0
    2.4850   -1.5953    5.7312 C   0  0  1  0  0  0  0  0  0  0  0  0
    2.6602   -3.0506    6.2890 C   0  0  1  0  0  0  0  0  0  0  0  0
    2.9668   -3.1991    7.7954 C   0  0  0  0  0  0  0  0  0  0  0  0
    1.4648   -3.9423    5.8438 C   0  0  0  0  0  0  0  0  0  0  0  0
    1.4017   -5.1164    6.2258 O   0  0  0  0  0  0  0  0  0  0  0  0
    0.3137   -3.3824    4.9494 C   0  0  0  0  0  0  0  0  0  0  0  0
    0.1393   -1.8213    4.8504 C   0  0  1  0  0  0  0  0  0  0  0  0
   -1.2198   -1.4334    4.8879 O   0  0  0  0  0  0  0  0  0  0  0  0
    0.9791   -1.1710    5.9441 C   0  0  2  0  0  0  0  0  0  0  0  0
    0.3485   -1.5150    7.1740 O   0  0  0  0  0  0  0  0  0  0  0  0
    4.8686   -0.0355    6.6604 H   0  0  0  0  0  0  0  0  0  0  0  0
    4.0445   -0.1021    8.2185 H   0  0  0  0  0  0  0  0  0  0  0  0
    3.9206    1.3396    7.2345 H   0  0  0  0  0  0  0  0  0  0  0  0
    1.8200    2.4234    6.0650 H   0  0  0  0  0  0  0  0  0  0  0  0
   -1.6051    1.6537    8.5186 H   0  0  0  0  0  0  0  0  0  0  0  0
   -0.1330    0.7133    8.6640 H   0  0  0  0  0  0  0  0  0  0  0  0
   -1.2774    0.4025    7.3506 H   0  0  0  0  0  0  0  0  0  0  0  0
   -0.5203    3.8350    8.4318 H   0  0  0  0  0  0  0  0  0  0  0  0
    0.7828    4.1705    7.2981 H   0  0  0  0  0  0  0  0  0  0  0  0
    1.0459    3.1008    8.6416 H   0  0  0  0  0  0  0  0  0  0  0  0
   -2.9478    3.2459    6.1260 H   0  0  0  0  0  0  0  0  0  0  0  0
   -1.6839    4.4511    6.3863 H   0  0  0  0  0  0  0  0  0  0  0  0
   -2.1102    3.3776    3.8667 H   0  0  0  0  0  0  0  0  0  0  0  0
   -0.2063    2.1040    2.7899 H   0  0  0  0  0  0  0  0  0  0  0  0
    0.2689    4.1138    2.3419 H   0  0  0  0  0  0  0  0  0  0  0  0
    2.0649    2.5045    1.9994 H   0  0  0  0  0  0  0  0  0  0  0  0
    3.6310    3.0299    3.3303 H   0  0  0  0  0  0  0  0  0  0  0  0
    1.3868    0.2333    3.7178 H   0  0  0  0  0  0  0  0  0  0  0  0
    1.9883    0.4025    0.8106 H   0  0  0  0  0  0  0  0  0  0  0  0
    0.4279    0.3816    1.5673 H   0  0  0  0  0  0  0  0  0  0  0  0
    1.4168   -1.0447    1.6276 H   0  0  0  0  0  0  0  0  0  0  0  0
    4.4755    1.4414    3.4963 H   0  0  0  0  0  0  0  0  0  0  0  0
    4.0679   -0.1105    1.2820 H   0  0  0  0  0  0  0  0  0  0  0  0
    5.3082   -0.5996    2.3664 H   0  0  0  0  0  0  0  0  0  0  0  0
    3.3078   -2.3455    1.1195 H   0  0  0  0  0  0  0  0  0  0  0  0
    4.8521   -3.8374    1.7788 H   0  0  0  0  0  0  0  0  0  0  0  0
    2.0675   -2.6340    2.9774 H   0  0  0  0  0  0  0  0  0  0  0  0
    3.3666   -3.5957    3.6094 H   0  0  0  0  0  0  0  0  0  0  0  0
    5.2208   -1.7972    3.9889 H   0  0  0  0  0  0  0  0  0  0  0  0
    3.5166   -3.5380    5.8210 H   0  0  0  0  0  0  0  0  0  0  0  0
    3.2914   -4.2213    7.9974 H   0  0  0  0  0  0  0  0  0  0  0  0
    2.1009   -3.0259    8.4335 H   0  0  0  0  0  0  0  0  0  0  0  0
    3.7851   -2.5529    8.1145 H   0  0  0  0  0  0  0  0  0  0  0  0
    0.4313   -3.8110    3.9558 H   0  0  0  0  0  0  0  0  0  0  0  0
   -0.6019   -3.8178    5.3430 H   0  0  0  0  0  0  0  0  0  0  0  0
    0.4813   -1.5512    3.8627 H   0  0  0  0  0  0  0  0  0  0  0  0
   -1.2508   -0.4927    4.7254 H   0  0  0  0  0  0  0  0  0  0  0  0
    0.9257   -1.1711    7.8452 H   0  0  0  0  0  0  0  0  0  0  0  0
  1  2  1  0
  1 37  1  0
  1 38  1  0
  1 39  1  0
 27  2  1  1
  2  3  2  0
  3 35  1  0
  3  4  1  0
  4 12  1  0
  4  5  1  0
  4 40  1  6
  5  6  1  0
  5  7  1  0
  5  8  1  0
  6 41  1  0
  6 42  1  0
  6 43  1  0
  7 44  1  0
  7 45  1  0
  7 46  1  0
  8 12  1  0
  8  9  1  6
  8 11  1  0
  9 10  1  0
  9 47  1  0
  9 48  1  0
 10 49  1  0
 12 11  1  6
 12 13  1  0
 13 14  1  0
 13 15  1  0
 13 50  1  6
 14 51  1  0
 15 16  1  0
 15 17  1  0
 15 52  1  6
 16 53  1  0
 17 18  1  0
 17 19  1  0
 17 54  1  1
 18 55  1  0
 18 56  1  0
 18 57  1  0
 19 25  1  0
 19 20  1  1
 19 21  1  0
 20 58  1  0
 21 22  1  0
 21 59  1  0
 21 60  1  0
 22 23  1  0
 22 24  1  0
 22 61  1  6
 23 62  1  0
 24 25  1  0
 24 63  1  0
 24 64  1  0
 25 26  1  1
 25 27  1  0
 26 65  1  0
 27 35  1  0
 27 28  1  0
 28 29  1  0
 28 30  1  0
 28 66  1  6
 29 67  1  0
 29 68  1  0
 29 69  1  0
 30 31  2  0
 30 32  1  0
 32 33  1  0
 32 70  1  0
 32 71  1  0
 33 34  1  0
 33 35  1  0
 33 72  1  6
 34 73  1  0
 35 36  1  1
 36 74  1  0
M  END
>  <i_m_ct_stereo_status>  (115) 
1

>  <s_m_source_file>  (115) 
/var/tmp/pbs.5076255.sched01/tmp9d3cgwpa/0mc_8ktg4.sdf

>  <i_m_source_file_index>  (115) 
46

>  <i_lp_mmshare_version>  (115) 
48012

>  <i_f3d_flags>  (115) 
0

>  <s_epik_input>  (115) 
W09IXVtDQEhdMVtDQEBIXShbT0hdKVtDQEBIXShbQ0gzXSlbQ0BdKFtPSF0pKFtDSDJdW0NAQEhdKFtPSF0pW0NIMl0yKVtDQEBdMihbT0hdKVtDQF0oQz0zW0NIM10pKFtDQEBIXShbQ0gzXSlDKD1PKVtDSDJdW0NASF00W09IXSlbQ0BAXTQoW09IXSlDM1tDQEBIXShbQ0BdMTU2KUMoW0NIM10pKFtDSDNdKVtDQEBdNShPNilbQ0gyXVtPSF0=

>  <s_epik_cmdline>  (115) 
J2VwaWtfcHl0aG9uJywgJy1waHQnLCAnMi4wJywgJy1waCcsICc3LjAnLCAnLXRuJywgJzgnLCAnLW1hJywgJzIwMCcsICctaW1hZScsICc8aW5maWxlLm1hZT4nLCAnLW9tYWUnLCAnPG91dGZpbGUubWFlPic=

>  <r_lp_tautomer_probability>  (115) 
1

>  <r_epik_Ionization_Penalty>  (115) 
1.32852e-06

>  <r_epik_Ionization_Penalty_Charging>  (115) 
0

>  <r_epik_Ionization_Penalty_Neutral>  (115) 
1.32852e-06

>  <r_epik_State_Penalty>  (115) 
-0

>  <r_epik_Charging_Adjusted_Penalty>  (115) 
0

>  <i_epik_Tot_Q>  (115) 
0

>  <i_epik_Tot_abs_Q>  (115) 
0

>  <s_lp_Force_Field>  (115) 
OPLS3e

>  <r_lp_Energy>  (115) 
85.8239

>  <b_lp_Chiralities_Consistent>  (115) 
1

>  <s_lp_Variant>  (115) 
27:0-1

>  <s_i_glide_gridfile>  (115) 
pfpi4k_grid

>  <i_i_glide_lignum>  (115) 
46

>  <i_i_glide_rotatable_bonds>  (115) 
9

>  <r_i_docking_score>  (115) 
-3.64026

>  <r_i_glide_ligand_efficiency>  (115) 
-0.101118

>  <r_i_glide_ligand_efficiency_sa>  (115) 
-0.333886

>  <r_i_glide_ligand_efficiency_ln>  (115) 
-0.794207

>  <r_i_glide_gscore>  (115) 
-3.64026

>  <r_i_glide_lipo>  (115) 
-0.0608032

>  <r_i_glide_hbond>  (115) 
0

>  <r_i_glide_metal>  (115) 
-0

>  <r_i_glide_rewards>  (115) 
-0.5

>  <r_i_glide_evdw>  (115) 
-19.2619

>  <r_i_glide_ecoul>  (115) 
-14.6331

>  <r_i_glide_erotb>  (115) 
0.0785903

>  <r_i_glide_esite>  (115) 
0

>  <r_i_glide_emodel>  (115) 
-42.7499

>  <r_i_glide_energy>  (115) 
-33.8949

>  <r_i_glide_einternal>  (115) 
8.46216

>  <r_i_glide_intrahb_reward>  (115) 
-0.5

>  <i_i_glide_confnum>  (115) 
6

>  <i_i_glide_posenum>  (115) 
36

>  <r_i_glide_eff_state_penalty>  (115) 
0

>  <ligand_id>  (115) 
27

>  <original_smiles>  (115) 
CC1=C2C3C(C)(C)C4(CO)OC34C(O)C(O)C(C)C3(O)CC(O)CC3(O)C13C(C)C(=O)CC(O)C23O

>  <smiles>  (115) 
[H]OC([H])([H])C12OC13C([H])(O[H])C([H])(O[H])C([H])(C([H])([H])[H])C1(O[H])C([H])([H])C([H])(O[H])C([H])([H])C1(O[H])C14C(C([H])([H])[H])=C(C3([H])C2(C([H])([H])[H])C([H])([H])[H])C1(O[H])C([H])(O[H])C([H])([H])C(=O)C4([H])C([H])([H])[H]

$$$$
28:0:0
     RDKit          3D

 46 52  0  0  1  0  0  0  0  0999 V2000
    1.9576   -6.1668    5.2479 O   0  0  0  0  0  0  0  0  0  0  0  0
    1.6534   -5.7445    3.9339 C   0  0  2  0  0  0  0  0  0  0  0  0
    0.4665   -6.5738    3.3410 C   0  0  0  0  0  0  0  0  0  0  0  0
   -0.6963   -6.8979    4.0718 C   0  0  0  0  0  0  0  0  0  0  0  0
   -1.3249   -8.1532    3.8851 C   0  0  0  0  0  0  0  0  0  0  0  0
   -0.6589   -9.1695    3.1613 C   0  0  0  0  0  0  0  0  0  0  0  0
    0.5763   -8.8924    2.5571 C   0  0  0  0  0  0  0  0  0  0  0  0
    1.6369   -9.8136    2.3471 C   0  0  0  0  0  0  0  0  0  0  0  0
    2.9884   -9.3570    2.2479 C   0  0  0  0  0  0  0  0  0  0  0  0
    3.0697   -7.9715    1.9232 C   0  0  0  0  0  0  0  0  0  0  0  0
    1.9645   -7.2346    1.5578 C   0  0  0  0  0  0  0  0  0  0  0  0
    0.9153   -7.5227    2.4129 C   0  0  0  0  0  0  0  0  0  0  0  0
    2.0685   -5.9765    0.9899 O   0  0  0  0  0  0  0  0  0  0  0  0
    2.6773   -4.9986    1.7932 C   0  0  2  0  0  0  0  0  0  0  0  0
    3.8471   -4.4342    1.0703 C   0  0  0  0  0  0  0  0  0  0  0  0
    3.8963   -4.1287   -0.2802 N   0  0  0  0  0  0  0  0  0  0  0  0
    5.1391   -3.6020   -0.5982 C   0  0  0  0  0  0  0  0  0  0  0  0
    5.6919   -3.1395   -1.8060 C   0  0  0  0  0  0  0  0  0  0  0  0
    7.0173   -2.6594   -1.8134 C   0  0  0  0  0  0  0  0  0  0  0  0
    7.7827   -2.6509   -0.6428 C   0  0  0  0  0  0  0  0  0  0  0  0
    7.2061   -3.1055    0.5566 C   0  0  0  0  0  0  0  0  0  0  0  0
    5.8750   -3.5839    0.6144 C   0  0  0  0  0  0  0  0  0  0  0  0
    5.0285   -4.0825    1.6598 C   0  0  0  0  0  0  0  0  0  0  0  0
    5.2862   -4.2585    3.1232 C   0  0  0  0  0  0  0  0  0  0  0  0
    3.9890   -4.5934    3.8909 C   0  0  0  0  0  0  0  0  0  0  0  0
    3.0460   -5.6072    3.1565 C   0  0  1  0  0  0  0  0  0  0  0  0
    3.8234   -6.9755    2.8197 C   0  0  0  0  0  0  0  0  0  0  0  0
    3.1350   -4.2871   -0.9246 H   0  0  0  0  0  0  0  0  0  0  0  0
    2.3573   -7.0241    5.2178 H   0  0  0  0  0  0  0  0  0  0  0  0
    1.2489   -4.7452    4.0401 H   0  0  0  0  0  0  0  0  0  0  0  0
   -1.0243   -6.2441    4.8657 H   0  0  0  0  0  0  0  0  0  0  0  0
   -2.1894   -8.4198    4.4761 H   0  0  0  0  0  0  0  0  0  0  0  0
   -1.0066  -10.1904    3.2579 H   0  0  0  0  0  0  0  0  0  0  0  0
    1.4488  -10.8510    2.5448 H   0  0  0  0  0  0  0  0  0  0  0  0
    3.8323   -9.9761    2.5539 H   0  0  0  0  0  0  0  0  0  0  0  0
    1.9680   -4.1943    1.9160 H   0  0  0  0  0  0  0  0  0  0  0  0
    5.1043   -3.1700   -2.7044 H   0  0  0  0  0  0  0  0  0  0  0  0
    7.4725   -2.3113   -2.7181 H   0  0  0  0  0  0  0  0  0  0  0  0
    8.8115   -2.2917   -0.6622 H   0  0  0  0  0  0  0  0  0  0  0  0
    7.7812   -3.1015    1.4593 H   0  0  0  0  0  0  0  0  0  0  0  0
    5.9998   -5.0619    3.2710 H   0  0  0  0  0  0  0  0  0  0  0  0
    5.7512   -3.3653    3.5303 H   0  0  0  0  0  0  0  0  0  0  0  0
    4.2225   -4.8963    4.9143 H   0  0  0  0  0  0  0  0  0  0  0  0
    3.4417   -3.6563    3.9737 H   0  0  0  0  0  0  0  0  0  0  0  0
    4.0875   -7.4500    3.7531 H   0  0  0  0  0  0  0  0  0  0  0  0
    4.7522   -6.7756    2.3111 H   0  0  0  0  0  0  0  0  0  0  0  0
  1  2  1  0
  1 29  1  0
  2 26  1  0
  2  3  1  0
  2 30  1  1
  3 12  1  0
  3  4  2  0
  4  5  1  0
  4 31  1  0
  5  6  2  0
  5 32  1  0
  6  7  1  0
  6 33  1  0
  7 12  1  0
  7  8  2  0
  8  9  1  0
  8 34  1  0
  9 10  2  0
  9 35  1  0
 10 27  1  0
 10 11  1  0
 11 12  2  0
 11 13  1  0
 13 14  1  0
 14 26  1  0
 14 15  1  0
 14 36  1  1
 15 23  2  0
 15 16  1  0
 16 28  1  0
 16 17  1  0
 17 22  2  0
 17 18  1  0
 18 19  2  0
 18 37  1  0
 19 20  1  0
 19 38  1  0
 20 21  2  0
 20 39  1  0
 21 22  1  0
 21 40  1  0
 22 23  1  0
 23 24  1  0
 24 25  1  0
 24 41  1  0
 24 42  1  0
 26 25  1  1
 25 43  1  0
 25 44  1  0
 26 27  1  0
 27 45  1  0
 27 46  1  0
M  END
>  <i_m_ct_stereo_status>  (116) 
1

>  <s_m_source_file>  (116) 
/var/tmp/pbs.5076255.sched01/tmp9d3cgwpa/0mc_8ktg4.sdf

>  <i_m_source_file_index>  (116) 
47

>  <i_lp_mmshare_version>  (116) 
48012

>  <i_f3d_flags>  (116) 
0

>  <s_epik_input>  (116) 
W2NIXTFbY0hdW2NIXWMoW0NASF0yW09IXSljM2MxW2NIXVtjSF1jKFtDSDJdNCljM09bQ0BASF0oW0NAQF0yNDUpYzZjKFtDSDJdW0NIMl01KWM3YyhbbkhdNilbY0hdW2NIXVtjSF1bY0hdNw==

>  <s_epik_cmdline>  (116) 
J2VwaWtfcHl0aG9uJywgJy1waHQnLCAnMi4wJywgJy1waCcsICc3LjAnLCAnLXRuJywgJzgnLCAnLW1hJywgJzIwMCcsICctaW1hZScsICc8aW5maWxlLm1hZT4nLCAnLW9tYWUnLCAnPG91dGZpbGUubWFlPic=

>  <r_lp_tautomer_probability>  (116) 
1

>  <r_epik_Ionization_Penalty>  (116) 
1.47239e-07

>  <r_epik_Ionization_Penalty_Charging>  (116) 
0

>  <r_epik_Ionization_Penalty_Neutral>  (116) 
1.47239e-07

>  <r_epik_State_Penalty>  (116) 
-0

>  <r_epik_Charging_Adjusted_Penalty>  (116) 
0

>  <i_epik_Tot_Q>  (116) 
0

>  <i_epik_Tot_abs_Q>  (116) 
0

>  <s_lp_Force_Field>  (116) 
OPLS3e

>  <r_lp_Energy>  (116) 
161.481

>  <b_lp_Chiralities_Consistent>  (116) 
1

>  <s_lp_Variant>  (116) 
28:0-1

>  <s_i_glide_gridfile>  (116) 
pfpi4k_grid

>  <i_i_glide_lignum>  (116) 
47

>  <i_i_glide_rotatable_bonds>  (116) 
1

>  <r_i_docking_score>  (116) 
-3.45812

>  <r_i_glide_ligand_efficiency>  (116) 
-0.128079

>  <r_i_glide_ligand_efficiency_sa>  (116) 
-0.384236

>  <r_i_glide_ligand_efficiency_ln>  (116) 
-0.804994

>  <r_i_glide_gscore>  (116) 
-3.45812

>  <r_i_glide_lipo>  (116) 
-0.529345

>  <r_i_glide_hbond>  (116) 
0

>  <r_i_glide_metal>  (116) 
-0

>  <r_i_glide_rewards>  (116) 
-0.999456

>  <r_i_glide_evdw>  (116) 
-27.5487

>  <r_i_glide_ecoul>  (116) 
-3.58208

>  <r_i_glide_erotb>  (116) 
0

>  <r_i_glide_esite>  (116) 
-0.0145739

>  <r_i_glide_emodel>  (116) 
-37.3182

>  <r_i_glide_energy>  (116) 
-31.1308

>  <r_i_glide_einternal>  (116) 
0.238684

>  <r_i_glide_intrahb_reward>  (116) 
-0

>  <i_i_glide_confnum>  (116) 
2

>  <i_i_glide_posenum>  (116) 
1

>  <r_i_glide_eff_state_penalty>  (116) 
0

>  <ligand_id>  (116) 
28

>  <original_smiles>  (116) 
OC1c2cccc3ccc4c(c23)OC2c3[nH]c5ccccc5c3CCC12C4

>  <smiles>  (116) 
[H]OC1([H])c2c([H])c([H])c([H])c3c([H])c([H])c4c(c23)OC2([H])c3c(c5c([H])c([H])c([H])c([H])c5n3[H])C([H])([H])C([H])([H])C12C4([H])[H]

$$$$
28:0:1
     RDKit          3D

 46 52  0  0  1  0  0  0  0  0999 V2000
    7.8250   -5.6000    2.4187 O   0  0  0  0  0  0  0  0  0  0  0  0
    6.7583   -5.5737    1.4903 C   0  0  2  0  0  0  0  0  0  0  0  0
    6.8875   -4.3225    0.5607 C   0  0  0  0  0  0  0  0  0  0  0  0
    8.1044   -3.9212   -0.0302 C   0  0  0  0  0  0  0  0  0  0  0  0
    8.3811   -2.5510   -0.2178 C   0  0  0  0  0  0  0  0  0  0  0  0
    7.5581   -1.5857    0.4075 C   0  0  0  0  0  0  0  0  0  0  0  0
    6.3940   -1.9976    1.0862 C   0  0  0  0  0  0  0  0  0  0  0  0
    5.7996   -1.3365    2.1962 C   0  0  0  0  0  0  0  0  0  0  0  0
    5.0393   -2.0961    3.1444 C   0  0  0  0  0  0  0  0  0  0  0  0
    4.5954   -3.3353    2.6324 C   0  0  0  0  0  0  0  0  0  0  0  0
    4.6739   -3.6370    1.2892 C   0  0  0  0  0  0  0  0  0  0  0  0
    5.9513   -3.3151    0.8524 C   0  0  0  0  0  0  0  0  0  0  0  0
    3.9909   -4.6941    0.7276 O   0  0  0  0  0  0  0  0  0  0  0  0
    4.3182   -5.9695    1.2285 C   0  0  2  0  0  0  0  0  0  0  0  0
    3.0758   -6.6184    1.7479 C   0  0  0  0  0  0  0  0  0  0  0  0
    1.8346   -6.5672    1.1420 N   0  0  0  0  0  0  0  0  0  0  0  0
    0.9123   -7.2856    1.8837 C   0  0  0  0  0  0  0  0  0  0  0  0
   -0.4583   -7.5375    1.7045 C   0  0  0  0  0  0  0  0  0  0  0  0
   -1.1495   -8.3246    2.6445 C   0  0  0  0  0  0  0  0  0  0  0  0
   -0.4639   -8.8420    3.7588 C   0  0  0  0  0  0  0  0  0  0  0  0
    0.9100   -8.5895    3.9313 C   0  0  0  0  0  0  0  0  0  0  0  0
    1.6324   -7.8127    2.9955 C   0  0  0  0  0  0  0  0  0  0  0  0
    3.0001   -7.3952    2.8681 C   0  0  0  0  0  0  0  0  0  0  0  0
    4.1858   -7.6701    3.7419 C   0  0  0  0  0  0  0  0  0  0  0  0
    5.5013   -7.2260    3.0573 C   0  0  0  0  0  0  0  0  0  0  0  0
    5.4150   -5.8509    2.3070 C   0  0  1  0  0  0  0  0  0  0  0  0
    4.9166   -4.6909    3.3059 C   0  0  0  0  0  0  0  0  0  0  0  0
    1.6941   -6.1001    0.2585 H   0  0  0  0  0  0  0  0  0  0  0  0
    7.8482   -6.4537    2.8242 H   0  0  0  0  0  0  0  0  0  0  0  0
    6.9311   -6.4270    0.8353 H   0  0  0  0  0  0  0  0  0  0  0  0
    8.8718   -4.6533   -0.2348 H   0  0  0  0  0  0  0  0  0  0  0  0
    9.3254   -2.2492   -0.6591 H   0  0  0  0  0  0  0  0  0  0  0  0
    7.9141   -0.5744    0.4803 H   0  0  0  0  0  0  0  0  0  0  0  0
    6.1940   -0.3782    2.4865 H   0  0  0  0  0  0  0  0  0  0  0  0
    5.0107   -1.8268    4.1916 H   0  0  0  0  0  0  0  0  0  0  0  0
    4.6711   -6.5728    0.3909 H   0  0  0  0  0  0  0  0  0  0  0  0
   -0.9575   -7.1776    0.8243 H   0  0  0  0  0  0  0  0  0  0  0  0
   -2.1974   -8.5491    2.5048 H   0  0  0  0  0  0  0  0  0  0  0  0
   -0.9847   -9.4516    4.4779 H   0  0  0  0  0  0  0  0  0  0  0  0
    1.4285   -9.0034    4.7818 H   0  0  0  0  0  0  0  0  0  0  0  0
    4.0796   -7.1315    4.6837 H   0  0  0  0  0  0  0  0  0  0  0  0
    4.2331   -8.7275    3.9992 H   0  0  0  0  0  0  0  0  0  0  0  0
    6.3199   -7.2579    3.7771 H   0  0  0  0  0  0  0  0  0  0  0  0
    5.7305   -7.9844    2.3065 H   0  0  0  0  0  0  0  0  0  0  0  0
    5.6699   -4.5411    4.0786 H   0  0  0  0  0  0  0  0  0  0  0  0
    4.0001   -4.9781    3.8203 H   0  0  0  0  0  0  0  0  0  0  0  0
  1  2  1  0
  1 29  1  0
  2 26  1  0
  2  3  1  0
  2 30  1  6
  3 12  1  0
  3  4  2  0
  4  5  1  0
  4 31  1  0
  5  6  2  0
  5 32  1  0
  6  7  1  0
  6 33  1  0
  7 12  1  0
  7  8  2  0
  8  9  1  0
  8 34  1  0
  9 10  2  0
  9 35  1  0
 10 27  1  0
 10 11  1  0
 11 12  2  0
 11 13  1  0
 13 14  1  0
 14 26  1  0
 14 15  1  0
 14 36  1  6
 15 23  2  0
 15 16  1  0
 16 28  1  0
 16 17  1  0
 17 22  2  0
 17 18  1  0
 18 19  2  0
 18 37  1  0
 19 20  1  0
 19 38  1  0
 20 21  2  0
 20 39  1  0
 21 22  1  0
 21 40  1  0
 22 23  1  0
 23 24  1  0
 24 25  1  0
 24 41  1  0
 24 42  1  0
 26 25  1  1
 25 43  1  0
 25 44  1  0
 26 27  1  0
 27 45  1  0
 27 46  1  0
M  END
>  <i_m_ct_stereo_status>  (117) 
1

>  <s_m_source_file>  (117) 
/var/tmp/pbs.5076255.sched01/tmp9d3cgwpa/0mc_8ktg4.sdf

>  <i_m_source_file_index>  (117) 
47

>  <i_lp_mmshare_version>  (117) 
48012

>  <i_f3d_flags>  (117) 
0

>  <s_epik_input>  (117) 
W2NIXTFbY0hdW2NIXWMoW0NASF0yW09IXSljM2MxW2NIXVtjSF1jKFtDSDJdNCljM09bQ0BASF0oW0NAQF0yNDUpYzZjKFtDSDJdW0NIMl01KWM3YyhbbkhdNilbY0hdW2NIXVtjSF1bY0hdNw==

>  <s_epik_cmdline>  (117) 
J2VwaWtfcHl0aG9uJywgJy1waHQnLCAnMi4wJywgJy1waCcsICc3LjAnLCAnLXRuJywgJzgnLCAnLW1hJywgJzIwMCcsICctaW1hZScsICc8aW5maWxlLm1hZT4nLCAnLW9tYWUnLCAnPG91dGZpbGUubWFlPic=

>  <r_lp_tautomer_probability>  (117) 
1

>  <r_epik_Ionization_Penalty>  (117) 
1.47239e-07

>  <r_epik_Ionization_Penalty_Charging>  (117) 
0

>  <r_epik_Ionization_Penalty_Neutral>  (117) 
1.47239e-07

>  <r_epik_State_Penalty>  (117) 
-0

>  <r_epik_Charging_Adjusted_Penalty>  (117) 
0

>  <i_epik_Tot_Q>  (117) 
0

>  <i_epik_Tot_abs_Q>  (117) 
0

>  <s_lp_Force_Field>  (117) 
OPLS3e

>  <r_lp_Energy>  (117) 
161.481

>  <b_lp_Chiralities_Consistent>  (117) 
1

>  <s_lp_Variant>  (117) 
28:0-1

>  <s_i_glide_gridfile>  (117) 
pfpi4k_grid

>  <i_i_glide_lignum>  (117) 
47

>  <i_i_glide_rotatable_bonds>  (117) 
1

>  <r_i_docking_score>  (117) 
-3.19702

>  <r_i_glide_ligand_efficiency>  (117) 
-0.118408

>  <r_i_glide_ligand_efficiency_sa>  (117) 
-0.355224

>  <r_i_glide_ligand_efficiency_ln>  (117) 
-0.744213

>  <r_i_glide_gscore>  (117) 
-3.19702

>  <r_i_glide_lipo>  (117) 
-0.932983

>  <r_i_glide_hbond>  (117) 
0

>  <r_i_glide_metal>  (117) 
-0

>  <r_i_glide_rewards>  (117) 
-0.999456

>  <r_i_glide_evdw>  (117) 
-25.7881

>  <r_i_glide_ecoul>  (117) 
0.421685

>  <r_i_glide_erotb>  (117) 
0

>  <r_i_glide_esite>  (117) 
-0.0384289

>  <r_i_glide_emodel>  (117) 
-31.2119

>  <r_i_glide_energy>  (117) 
-25.3664

>  <r_i_glide_einternal>  (117) 
0.0673404

>  <r_i_glide_intrahb_reward>  (117) 
-0

>  <i_i_glide_confnum>  (117) 
1

>  <i_i_glide_posenum>  (117) 
2

>  <r_i_glide_eff_state_penalty>  (117) 
0

>  <ligand_id>  (117) 
28

>  <original_smiles>  (117) 
OC1c2cccc3ccc4c(c23)OC2c3[nH]c5ccccc5c3CCC12C4

>  <smiles>  (117) 
[H]OC1([H])c2c([H])c([H])c([H])c3c([H])c([H])c4c(c23)OC2([H])c3c(c5c([H])c([H])c([H])c([H])c5n3[H])C([H])([H])C([H])([H])C12C4([H])[H]

$$$$
28:0:2
     RDKit          3D

 46 52  0  0  1  0  0  0  0  0999 V2000
    4.0459   -6.7125    5.2081 O   0  0  0  0  0  0  0  0  0  0  0  0
    3.1381   -5.9225    4.4609 C   0  0  2  0  0  0  0  0  0  0  0  0
    1.6588   -6.3585    4.7298 C   0  0  0  0  0  0  0  0  0  0  0  0
    1.1598   -6.6517    6.0166 C   0  0  0  0  0  0  0  0  0  0  0  0
    0.2146   -7.6855    6.1957 C   0  0  0  0  0  0  0  0  0  0  0  0
   -0.0501   -8.5891    5.1402 C   0  0  0  0  0  0  0  0  0  0  0  0
    0.5513   -8.3629    3.8751 C   0  0  0  0  0  0  0  0  0  0  0  0
    0.9119   -9.3765    2.9408 C   0  0  0  0  0  0  0  0  0  0  0  0
    2.0044   -9.1476    2.0416 C   0  0  0  0  0  0  0  0  0  0  0  0
    2.2753   -7.7778    1.8537 C   0  0  0  0  0  0  0  0  0  0  0  0
    1.4669   -6.7724    2.3568 C   0  0  0  0  0  0  0  0  0  0  0  0
    1.1277   -7.1024    3.6620 C   0  0  0  0  0  0  0  0  0  0  0  0
    1.5707   -5.4621    1.9493 O   0  0  0  0  0  0  0  0  0  0  0  0
    2.7975   -4.8383    2.2472 C   0  0  2  0  0  0  0  0  0  0  0  0
    3.3960   -4.3152    0.9890 C   0  0  0  0  0  0  0  0  0  0  0  0
    2.7072   -3.6842   -0.0272 N   0  0  0  0  0  0  0  0  0  0  0  0
    3.5613   -3.3077   -1.0424 C   0  0  0  0  0  0  0  0  0  0  0  0
    3.3618   -2.6539   -2.2701 C   0  0  0  0  0  0  0  0  0  0  0  0
    4.4508   -2.4130   -3.1242 C   0  0  0  0  0  0  0  0  0  0  0  0
    5.7365   -2.8317   -2.7211 C   0  0  0  0  0  0  0  0  0  0  0  0
    5.9322   -3.4577   -1.4755 C   0  0  0  0  0  0  0  0  0  0  0  0
    4.8604   -3.7217   -0.6065 C   0  0  0  0  0  0  0  0  0  0  0  0
    4.7194   -4.3317    0.6851 C   0  0  0  0  0  0  0  0  0  0  0  0
    5.7523   -4.9209    1.5905 C   0  0  0  0  0  0  0  0  0  0  0  0
    5.1648   -5.2119    2.9912 C   0  0  0  0  0  0  0  0  0  0  0  0
    3.7232   -5.8239    2.9804 C   0  0  1  0  0  0  0  0  0  0  0  0
    3.6747   -7.1734    2.1037 C   0  0  0  0  0  0  0  0  0  0  0  0
    1.7221   -3.4872   -0.0121 H   0  0  0  0  0  0  0  0  0  0  0  0
    4.0569   -7.5920    4.8564 H   0  0  0  0  0  0  0  0  0  0  0  0
    3.2048   -4.9315    4.8970 H   0  0  0  0  0  0  0  0  0  0  0  0
    1.5952   -6.1597    6.8811 H   0  0  0  0  0  0  0  0  0  0  0  0
   -0.1491   -7.9175    7.1938 H   0  0  0  0  0  0  0  0  0  0  0  0
   -0.5624   -9.5129    5.3515 H   0  0  0  0  0  0  0  0  0  0  0  0
    0.5926  -10.3808    3.1264 H   0  0  0  0  0  0  0  0  0  0  0  0
    2.6286   -9.9571    1.6579 H   0  0  0  0  0  0  0  0  0  0  0  0
    2.5833   -3.9847    2.8791 H   0  0  0  0  0  0  0  0  0  0  0  0
    2.3616   -2.3396   -2.5441 H   0  0  0  0  0  0  0  0  0  0  0  0
    4.2979   -1.9184   -4.0753 H   0  0  0  0  0  0  0  0  0  0  0  0
    6.5895   -2.6852   -3.3675 H   0  0  0  0  0  0  0  0  0  0  0  0
    6.9264   -3.7733   -1.1871 H   0  0  0  0  0  0  0  0  0  0  0  0
    6.1243   -5.8482    1.1663 H   0  0  0  0  0  0  0  0  0  0  0  0
    6.6115   -4.2591    1.6656 H   0  0  0  0  0  0  0  0  0  0  0  0
    5.8719   -5.8040    3.5783 H   0  0  0  0  0  0  0  0  0  0  0  0
    5.0965   -4.2478    3.4948 H   0  0  0  0  0  0  0  0  0  0  0  0
    4.3113   -7.9133    2.5826 H   0  0  0  0  0  0  0  0  0  0  0  0
    4.1099   -7.0131    1.1187 H   0  0  0  0  0  0  0  0  0  0  0  0
  1  2  1  0
  1 29  1  0
  2 26  1  0
  2  3  1  0
  2 30  1  1
  3 12  1  0
  3  4  2  0
  4  5  1  0
  4 31  1  0
  5  6  2  0
  5 32  1  0
  6  7  1  0
  6 33  1  0
  7 12  1  0
  7  8  2  0
  8  9  1  0
  8 34  1  0
  9 10  2  0
  9 35  1  0
 10 27  1  0
 10 11  1  0
 11 12  2  0
 11 13  1  0
 13 14  1  0
 14 26  1  0
 14 15  1  0
 14 36  1  1
 15 23  2  0
 15 16  1  0
 16 28  1  0
 16 17  1  0
 17 22  2  0
 17 18  1  0
 18 19  2  0
 18 37  1  0
 19 20  1  0
 19 38  1  0
 20 21  2  0
 20 39  1  0
 21 22  1  0
 21 40  1  0
 22 23  1  0
 23 24  1  0
 24 25  1  0
 24 41  1  0
 24 42  1  0
 26 25  1  1
 25 43  1  0
 25 44  1  0
 26 27  1  0
 27 45  1  0
 27 46  1  0
M  END
>  <i_m_ct_stereo_status>  (118) 
1

>  <s_m_source_file>  (118) 
/var/tmp/pbs.5076255.sched01/tmp9d3cgwpa/0mc_8ktg4.sdf

>  <i_m_source_file_index>  (118) 
47

>  <i_lp_mmshare_version>  (118) 
48012

>  <i_f3d_flags>  (118) 
0

>  <s_epik_input>  (118) 
W2NIXTFbY0hdW2NIXWMoW0NASF0yW09IXSljM2MxW2NIXVtjSF1jKFtDSDJdNCljM09bQ0BASF0oW0NAQF0yNDUpYzZjKFtDSDJdW0NIMl01KWM3YyhbbkhdNilbY0hdW2NIXVtjSF1bY0hdNw==

>  <s_epik_cmdline>  (118) 
J2VwaWtfcHl0aG9uJywgJy1waHQnLCAnMi4wJywgJy1waCcsICc3LjAnLCAnLXRuJywgJzgnLCAnLW1hJywgJzIwMCcsICctaW1hZScsICc8aW5maWxlLm1hZT4nLCAnLW9tYWUnLCAnPG91dGZpbGUubWFlPic=

>  <r_lp_tautomer_probability>  (118) 
1

>  <r_epik_Ionization_Penalty>  (118) 
1.47239e-07

>  <r_epik_Ionization_Penalty_Charging>  (118) 
0

>  <r_epik_Ionization_Penalty_Neutral>  (118) 
1.47239e-07

>  <r_epik_State_Penalty>  (118) 
-0

>  <r_epik_Charging_Adjusted_Penalty>  (118) 
0

>  <i_epik_Tot_Q>  (118) 
0

>  <i_epik_Tot_abs_Q>  (118) 
0

>  <s_lp_Force_Field>  (118) 
OPLS3e

>  <r_lp_Energy>  (118) 
161.481

>  <b_lp_Chiralities_Consistent>  (118) 
1

>  <s_lp_Variant>  (118) 
28:0-1

>  <s_i_glide_gridfile>  (118) 
pfpi4k_grid

>  <i_i_glide_lignum>  (118) 
47

>  <i_i_glide_rotatable_bonds>  (118) 
1

>  <r_i_docking_score>  (118) 
-3.07258

>  <r_i_glide_ligand_efficiency>  (118) 
-0.113799

>  <r_i_glide_ligand_efficiency_sa>  (118) 
-0.341398

>  <r_i_glide_ligand_efficiency_ln>  (118) 
-0.715247

>  <r_i_glide_gscore>  (118) 
-3.07258

>  <r_i_glide_lipo>  (118) 
-0.652128

>  <r_i_glide_hbond>  (118) 
-0.0500271

>  <r_i_glide_metal>  (118) 
-0

>  <r_i_glide_rewards>  (118) 
-0.999456

>  <r_i_glide_evdw>  (118) 
-25.6896

>  <r_i_glide_ecoul>  (118) 
-0.383236

>  <r_i_glide_erotb>  (118) 
0

>  <r_i_glide_esite>  (118) 
-0.0290035

>  <r_i_glide_emodel>  (118) 
-31.4961

>  <r_i_glide_energy>  (118) 
-26.0729

>  <r_i_glide_einternal>  (118) 
0.240394

>  <r_i_glide_intrahb_reward>  (118) 
-0

>  <i_i_glide_confnum>  (118) 
2

>  <i_i_glide_posenum>  (118) 
36

>  <r_i_glide_eff_state_penalty>  (118) 
0

>  <ligand_id>  (118) 
28

>  <original_smiles>  (118) 
OC1c2cccc3ccc4c(c23)OC2c3[nH]c5ccccc5c3CCC12C4

>  <smiles>  (118) 
[H]OC1([H])c2c([H])c([H])c([H])c3c([H])c([H])c4c(c23)OC2([H])c3c(c5c([H])c([H])c([H])c([H])c5n3[H])C([H])([H])C([H])([H])C12C4([H])[H]

$$$$
30:0:0
     RDKit          3D

 66 70  0  0  1  0  0  0  0  0999 V2000
    0.8162  -11.7671    3.3889 C   0  0  0  0  0  0  0  0  0  0  0  0
    0.5761  -10.4032    3.7430 O   0  0  0  0  0  0  0  0  0  0  0  0
    1.1716  -10.0180    4.9767 C   0  0  2  0  0  0  0  0  0  0  0  0
    0.6201   -8.6947    5.5689 C   0  0  2  0  0  0  0  0  0  0  0  0
    0.3105   -7.6343    4.4830 C   0  0  1  0  0  0  0  0  0  0  0  0
   -0.9120   -7.9585    3.8439 O   0  0  0  0  0  0  0  0  0  0  0  0
    0.2912   -6.1612    4.9514 C   0  0  1  0  0  0  0  0  0  0  0  0
   -0.8884   -5.8677    5.6898 O   0  0  0  0  0  0  0  0  0  0  0  0
    1.5817   -5.7400    5.7256 C   0  0  1  0  0  0  0  0  0  0  0  0
    2.7928   -5.7530    4.7507 C   0  0  0  0  0  0  0  0  0  0  0  0
    1.3899   -4.2876    6.2163 C   0  0  0  0  0  0  0  0  0  0  0  0
    1.1990   -3.1214    5.5503 C   0  0  0  0  0  0  0  0  0  0  0  0
    1.2219   -2.8424    4.0368 C   0  0  0  0  0  0  0  0  0  0  0  0
    0.9812   -1.9744    6.5345 C   0  0  1  0  0  0  0  0  0  0  0  0
   -0.0716   -0.9302    6.2051 C   0  0  0  0  0  0  0  0  0  0  0  0
   -1.1583   -1.0176    5.2830 C   0  0  0  0  0  0  0  0  0  0  0  0
   -1.7754    0.2006    5.2956 C   0  0  0  0  0  0  0  0  0  0  0  0
   -1.2267    1.0166    6.2349 O   0  0  0  0  0  0  0  0  0  0  0  0
   -0.1999    0.3125    6.7828 C   0  0  0  0  0  0  0  0  0  0  0  0
    0.6719   -2.6935    7.8637 C   0  0  0  0  0  0  0  0  0  0  0  0
    1.3301   -4.0678    7.7130 C   0  0  1  0  0  0  0  0  0  0  0  0
    0.6372   -5.0880    8.3970 O   0  0  0  0  0  0  0  0  0  0  0  0
    0.7757   -6.3901    8.0878 C   0  0  0  0  0  0  0  0  0  0  0  0
    0.0622   -7.2233    8.6389 O   0  0  0  0  0  0  0  0  0  0  0  0
    1.8277   -6.7422    6.9553 C   0  0  2  0  0  0  0  0  0  0  0  0
    3.2445   -6.5007    7.5764 C   0  0  0  0  0  0  0  0  0  0  0  0
    1.7648   -8.2958    6.5404 C   0  0  1  0  0  0  0  0  0  0  0  0
    1.7913   -9.2433    7.7892 C   0  0  0  0  0  0  0  0  0  0  0  0
    2.9248   -8.6914    5.7880 O   0  0  0  0  0  0  0  0  0  0  0  0
    2.7054   -9.8057    4.9086 C   0  0  0  0  0  0  0  0  0  0  0  0
    3.5169  -11.0343    5.3816 C   0  0  0  0  0  0  0  0  0  0  0  0
    3.2604   -9.3995    3.5199 C   0  0  0  0  0  0  0  0  0  0  0  0
    0.2759  -12.0242    2.4794 H   0  0  0  0  0  0  0  0  0  0  0  0
    0.4929  -12.4539    4.1737 H   0  0  0  0  0  0  0  0  0  0  0  0
    1.8657  -11.9642    3.1825 H   0  0  0  0  0  0  0  0  0  0  0  0
    0.9352  -10.7941    5.7036 H   0  0  0  0  0  0  0  0  0  0  0  0
   -0.2955   -8.8889    6.1243 H   0  0  0  0  0  0  0  0  0  0  0  0
    1.0623   -7.6913    3.7079 H   0  0  0  0  0  0  0  0  0  0  0  0
   -0.9082   -8.8908    3.6825 H   0  0  0  0  0  0  0  0  0  0  0  0
    0.1988   -5.5575    4.0539 H   0  0  0  0  0  0  0  0  0  0  0  0
   -0.9149   -6.4269    6.4343 H   0  0  0  0  0  0  0  0  0  0  0  0
    3.1519   -6.7479    4.5176 H   0  0  0  0  0  0  0  0  0  0  0  0
    3.6385   -5.1963    5.1541 H   0  0  0  0  0  0  0  0  0  0  0  0
    2.5653   -5.3199    3.7836 H   0  0  0  0  0  0  0  0  0  0  0  0
    2.0771   -2.1840    3.8097 H   0  0  0  0  0  0  0  0  0  0  0  0
    0.3263   -2.3783    3.6821 H   0  0  0  0  0  0  0  0  0  0  0  0
    1.3545   -3.7466    3.4408 H   0  0  0  0  0  0  0  0  0  0  0  0
    1.9474   -1.4715    6.6347 H   0  0  0  0  0  0  0  0  0  0  0  0
   -1.4300   -1.8376    4.6427 H   0  0  0  0  0  0  0  0  0  0  0  0
   -2.5745    0.6269    4.7106 H   0  0  0  0  0  0  0  0  0  0  0  0
    0.3381    0.8369    7.5569 H   0  0  0  0  0  0  0  0  0  0  0  0
    0.9797   -2.1497    8.7582 H   0  0  0  0  0  0  0  0  0  0  0  0
   -0.4066   -2.8502    7.9294 H   0  0  0  0  0  0  0  0  0  0  0  0
    2.3455   -3.9898    8.1093 H   0  0  0  0  0  0  0  0  0  0  0  0
    4.0216   -7.0775    7.0805 H   0  0  0  0  0  0  0  0  0  0  0  0
    3.2831   -6.7709    8.6334 H   0  0  0  0  0  0  0  0  0  0  0  0
    3.5857   -5.4711    7.5011 H   0  0  0  0  0  0  0  0  0  0  0  0
    0.7991   -9.4268    8.1935 H   0  0  0  0  0  0  0  0  0  0  0  0
    2.4180   -8.8620    8.5933 H   0  0  0  0  0  0  0  0  0  0  0  0
    2.1637  -10.2376    7.5801 H   0  0  0  0  0  0  0  0  0  0  0  0
    3.5343  -11.8146    4.6247 H   0  0  0  0  0  0  0  0  0  0  0  0
    3.1196  -11.5066    6.2765 H   0  0  0  0  0  0  0  0  0  0  0  0
    4.5540  -10.7644    5.5801 H   0  0  0  0  0  0  0  0  0  0  0  0
    3.1095  -10.1807    2.7779 H   0  0  0  0  0  0  0  0  0  0  0  0
    4.3345   -9.2226    3.5777 H   0  0  0  0  0  0  0  0  0  0  0  0
    2.8230   -8.4985    3.1066 H   0  0  0  0  0  0  0  0  0  0  0  0
  1  2  1  0
  1 33  1  0
  1 34  1  0
  1 35  1  0
  2  3  1  0
  3 30  1  0
  3  4  1  0
  3 36  1  1
  4 27  1  0
  4  5  1  0
  4 37  1  1
  5  6  1  0
  5  7  1  0
  5 38  1  6
  6 39  1  0
  7  8  1  0
  7  9  1  0
  7 40  1  6
  8 41  1  0
  9 25  1  0
  9 10  1  6
  9 11  1  0
 10 42  1  0
 10 43  1  0
 10 44  1  0
 11 21  1  0
 11 12  2  0
 12 13  1  0
 12 14  1  0
 13 45  1  0
 13 46  1  0
 13 47  1  0
 14 15  1  0
 14 20  1  0
 14 48  1  1
 15 19  2  0
 15 16  1  0
 16 17  2  0
 16 49  1  0
 17 18  1  0
 17 50  1  0
 18 19  1  0
 19 51  1  0
 20 21  1  0
 20 52  1  0
 20 53  1  0
 21 22  1  0
 21 54  1  1
 22 23  1  0
 23 24  2  0
 23 25  1  0
 25 26  1  1
 25 27  1  0
 26 55  1  0
 26 56  1  0
 26 57  1  0
 27 28  1  1
 27 29  1  0
 28 58  1  0
 28 59  1  0
 28 60  1  0
 29 30  1  0
 30 31  1  0
 30 32  1  0
 31 61  1  0
 31 62  1  0
 31 63  1  0
 32 64  1  0
 32 65  1  0
 32 66  1  0
M  END
>  <i_m_ct_stereo_status>  (119) 
1

>  <s_m_source_file>  (119) 
/var/tmp/pbs.5076255.sched01/tmp9d3cgwpa/0mc_8ktg4.sdf

>  <i_m_source_file_index>  (119) 
49

>  <i_lp_mmshare_version>  (119) 
48012

>  <i_f3d_flags>  (119) 
0

>  <s_epik_input>  (119) 
W0NIM11PW0NAQEhdKEMoTzEpKFtDSDNdKVtDSDNdKVtDQEhdKFtDQEBIXShbT0hdKVtDQEhdMltPSF0pW0NAXTEoW0NIM10pW0NAXTMoW0NIM10pQyg9TylPW0NAQEhdKEM9NFtDQF0yM1tDSDNdKVtDSDJdW0NAQEhdKEM0W0NIM10pYzVbY0hdW2NIXW9bY0hdNQ==

>  <s_epik_cmdline>  (119) 
J2VwaWtfcHl0aG9uJywgJy1waHQnLCAnMi4wJywgJy1waCcsICc3LjAnLCAnLXRuJywgJzgnLCAnLW1hJywgJzIwMCcsICctaW1hZScsICc8aW5maWxlLm1hZT4nLCAnLW9tYWUnLCAnPG91dGZpbGUubWFlPic=

>  <r_lp_tautomer_probability>  (119) 
1

>  <r_epik_Ionization_Penalty>  (119) 
1.3104e-07

>  <r_epik_Ionization_Penalty_Charging>  (119) 
0

>  <r_epik_Ionization_Penalty_Neutral>  (119) 
1.3104e-07

>  <r_epik_State_Penalty>  (119) 
-0

>  <r_epik_Charging_Adjusted_Penalty>  (119) 
0

>  <i_epik_Tot_Q>  (119) 
0

>  <i_epik_Tot_abs_Q>  (119) 
0

>  <s_epik_Chemistry_Notes>  (119) 
This compound has an ester and may undergo hydrolysis at high or low pH.

>  <s_lp_Force_Field>  (119) 
OPLS3e

>  <r_lp_Energy>  (119) 
41.8392

>  <b_lp_Chiralities_Consistent>  (119) 
1

>  <s_lp_Variant>  (119) 
30:0-1

>  <s_i_glide_gridfile>  (119) 
pfpi4k_grid

>  <i_i_glide_lignum>  (119) 
49

>  <i_i_glide_rotatable_bonds>  (119) 
4

>  <r_i_docking_score>  (119) 
-2.88352

>  <r_i_glide_ligand_efficiency>  (119) 
-0.0901099

>  <r_i_glide_ligand_efficiency_sa>  (119) 
-0.286081

>  <r_i_glide_ligand_efficiency_ln>  (119) 
-0.645698

>  <r_i_glide_gscore>  (119) 
-2.88352

>  <r_i_glide_lipo>  (119) 
-0.0728027

>  <r_i_glide_hbond>  (119) 
-0.182128

>  <r_i_glide_metal>  (119) 
-0

>  <r_i_glide_rewards>  (119) 
-0.864546

>  <r_i_glide_evdw>  (119) 
-22.3021

>  <r_i_glide_ecoul>  (119) 
-4.95767

>  <r_i_glide_erotb>  (119) 
0.100391

>  <r_i_glide_esite>  (119) 
-0.0056736

>  <r_i_glide_emodel>  (119) 
-36.8323

>  <r_i_glide_energy>  (119) 
-27.2598

>  <r_i_glide_einternal>  (119) 
1.15953

>  <r_i_glide_intrahb_reward>  (119) 
-0.5

>  <i_i_glide_confnum>  (119) 
4

>  <i_i_glide_posenum>  (119) 
32

>  <r_i_glide_eff_state_penalty>  (119) 
0

>  <ligand_id>  (119) 
30

>  <original_smiles>  (119) 
COC1C2C(O)C(O)C3(C)C4=C(C)C(c5ccoc5)CC4OC(=O)C3(C)C2(C)OC1(C)C

>  <smiles>  (119) 
[H]OC1([H])C([H])(O[H])C2(C([H])([H])[H])C3=C(C([H])([H])[H])C([H])(c4c([H])oc([H])c4[H])C([H])([H])C3([H])OC(=O)C2(C([H])([H])[H])C2(C([H])([H])[H])OC(C([H])([H])[H])(C([H])([H])[H])C([H])(OC([H])([H])[H])C12[H]

$$$$
30:0:1
     RDKit          3D

 66 70  0  0  1  0  0  0  0  0999 V2000
    3.6148   -1.9655   -2.4627 C   0  0  0  0  0  0  0  0  0  0  0  0
    3.4113   -1.5968   -1.1049 O   0  0  0  0  0  0  0  0  0  0  0  0
    4.4147   -2.0498   -0.2045 C   0  0  2  0  0  0  0  0  0  0  0  0
    4.3424   -3.5441    0.1788 C   0  0  2  0  0  0  0  0  0  0  0  0
    2.8878   -4.0560    0.3705 C   0  0  1  0  0  0  0  0  0  0  0  0
    2.1691   -4.2579   -0.8329 O   0  0  0  0  0  0  0  0  0  0  0  0
    2.7486   -5.3280    1.2148 C   0  0  1  0  0  0  0  0  0  0  0  0
    3.3310   -6.3969    0.4933 O   0  0  0  0  0  0  0  0  0  0  0  0
    3.3821   -5.1982    2.6316 C   0  0  1  0  0  0  0  0  0  0  0  0
    2.5918   -4.1379    3.4513 C   0  0  0  0  0  0  0  0  0  0  0  0
    3.2466   -6.5563    3.3645 C   0  0  0  0  0  0  0  0  0  0  0  0
    2.1647   -7.2712    3.7445 C   0  0  0  0  0  0  0  0  0  0  0  0
    0.6823   -6.9596    3.6210 C   0  0  0  0  0  0  0  0  0  0  0  0
    2.5880   -8.5763    4.3956 C   0  0  1  0  0  0  0  0  0  0  0  0
    1.7448   -9.7730    4.0665 C   0  0  0  0  0  0  0  0  0  0  0  0
    1.3831  -10.2523    2.7805 C   0  0  0  0  0  0  0  0  0  0  0  0
    0.7005  -11.4139    2.9748 C   0  0  0  0  0  0  0  0  0  0  0  0
    0.6318  -11.7117    4.2963 O   0  0  0  0  0  0  0  0  0  0  0  0
    1.2218  -10.6850    4.9518 C   0  0  0  0  0  0  0  0  0  0  0  0
    4.0489   -8.7482    3.9428 C   0  0  0  0  0  0  0  0  0  0  0  0
    4.5111   -7.3099    3.6912 C   0  0  1  0  0  0  0  0  0  0  0  0
    5.4940   -7.2190    2.6751 O   0  0  0  0  0  0  0  0  0  0  0  0
    5.7336   -6.0655    2.0140 C   0  0  0  0  0  0  0  0  0  0  0  0
    6.5266   -6.0561    1.0799 O   0  0  0  0  0  0  0  0  0  0  0  0
    4.9204   -4.8018    2.4854 C   0  0  2  0  0  0  0  0  0  0  0  0
    5.4987   -4.4240    3.8819 C   0  0  0  0  0  0  0  0  0  0  0  0
    5.1616   -3.5434    1.4999 C   0  0  1  0  0  0  0  0  0  0  0  0
    6.6767   -3.3000    1.1996 C   0  0  0  0  0  0  0  0  0  0  0  0
    4.7418   -2.3118    2.1137 O   0  0  0  0  0  0  0  0  0  0  0  0
    4.3645   -1.3114    1.1553 C   0  0  0  0  0  0  0  0  0  0  0  0
    5.3406   -0.1307    1.2146 C   0  0  0  0  0  0  0  0  0  0  0  0
    2.9840   -0.7536    1.5786 C   0  0  0  0  0  0  0  0  0  0  0  0
    2.7423   -1.6617   -3.0410 H   0  0  0  0  0  0  0  0  0  0  0  0
    3.7282   -3.0420   -2.5894 H   0  0  0  0  0  0  0  0  0  0  0  0
    4.4923   -1.4782   -2.8912 H   0  0  0  0  0  0  0  0  0  0  0  0
    5.3853   -1.8564   -0.6677 H   0  0  0  0  0  0  0  0  0  0  0  0
    4.8524   -4.1604   -0.5646 H   0  0  0  0  0  0  0  0  0  0  0  0
    2.3061   -3.2937    0.8560 H   0  0  0  0  0  0  0  0  0  0  0  0
    2.6622   -4.7887   -1.4435 H   0  0  0  0  0  0  0  0  0  0  0  0
    1.6791   -5.5277    1.3088 H   0  0  0  0  0  0  0  0  0  0  0  0
    3.1650   -6.2793   -0.4349 H   0  0  0  0  0  0  0  0  0  0  0  0
    2.8104   -3.1170    3.1496 H   0  0  0  0  0  0  0  0  0  0  0  0
    2.8095   -4.2102    4.5183 H   0  0  0  0  0  0  0  0  0  0  0  0
    1.5134   -4.2416    3.3427 H   0  0  0  0  0  0  0  0  0  0  0  0
    0.2333   -6.9052    4.6150 H   0  0  0  0  0  0  0  0  0  0  0  0
    0.1727   -7.7595    3.0809 H   0  0  0  0  0  0  0  0  0  0  0  0
    0.4613   -6.0350    3.0950 H   0  0  0  0  0  0  0  0  0  0  0  0
    2.5512   -8.4206    5.4740 H   0  0  0  0  0  0  0  0  0  0  0  0
    1.6231   -9.8351    1.8090 H   0  0  0  0  0  0  0  0  0  0  0  0
    0.2516  -12.1384    2.3130 H   0  0  0  0  0  0  0  0  0  0  0  0
    1.2256  -10.7924    6.0271 H   0  0  0  0  0  0  0  0  0  0  0  0
    4.6727   -9.3130    4.6438 H   0  0  0  0  0  0  0  0  0  0  0  0
    4.0704   -9.2779    2.9878 H   0  0  0  0  0  0  0  0  0  0  0  0
    4.9084   -6.9331    4.6287 H   0  0  0  0  0  0  0  0  0  0  0  0
    5.4180   -3.3604    4.1060 H   0  0  0  0  0  0  0  0  0  0  0  0
    6.5394   -4.7340    3.9650 H   0  0  0  0  0  0  0  0  0  0  0  0
    5.0018   -4.9135    4.7155 H   0  0  0  0  0  0  0  0  0  0  0  0
    7.0380   -3.8812    0.3531 H   0  0  0  0  0  0  0  0  0  0  0  0
    7.2922   -3.5600    2.0511 H   0  0  0  0  0  0  0  0  0  0  0  0
    6.9290   -2.2790    0.9395 H   0  0  0  0  0  0  0  0  0  0  0  0
    4.9129    0.7039    0.6617 H   0  0  0  0  0  0  0  0  0  0  0  0
    6.3191   -0.3158    0.7801 H   0  0  0  0  0  0  0  0  0  0  0  0
    5.4913    0.1745    2.2502 H   0  0  0  0  0  0  0  0  0  0  0  0
    2.6243    0.0000    0.8774 H   0  0  0  0  0  0  0  0  0  0  0  0
    3.0492   -0.2797    2.5593 H   0  0  0  0  0  0  0  0  0  0  0  0
    2.1935   -1.4868    1.6608 H   0  0  0  0  0  0  0  0  0  0  0  0
  1  2  1  0
  1 33  1  0
  1 34  1  0
  1 35  1  0
  2  3  1  0
  3 30  1  0
  3  4  1  0
  3 36  1  6
  4 27  1  0
  4  5  1  0
  4 37  1  6
  5  6  1  0
  5  7  1  0
  5 38  1  1
  6 39  1  0
  7  8  1  0
  7  9  1  0
  7 40  1  1
  8 41  1  0
  9 25  1  0
  9 10  1  1
  9 11  1  0
 10 42  1  0
 10 43  1  0
 10 44  1  0
 11 21  1  0
 11 12  2  0
 12 13  1  0
 12 14  1  0
 13 45  1  0
 13 46  1  0
 13 47  1  0
 14 15  1  0
 14 20  1  0
 14 48  1  1
 15 19  2  0
 15 16  1  0
 16 17  2  0
 16 49  1  0
 17 18  1  0
 17 50  1  0
 18 19  1  0
 19 51  1  0
 20 21  1  0
 20 52  1  0
 20 53  1  0
 21 22  1  0
 21 54  1  1
 22 23  1  0
 23 24  2  0
 23 25  1  0
 25 26  1  1
 25 27  1  0
 26 55  1  0
 26 56  1  0
 26 57  1  0
 27 28  1  6
 27 29  1  0
 28 58  1  0
 28 59  1  0
 28 60  1  0
 29 30  1  0
 30 31  1  0
 30 32  1  0
 31 61  1  0
 31 62  1  0
 31 63  1  0
 32 64  1  0
 32 65  1  0
 32 66  1  0
M  END
>  <i_m_ct_stereo_status>  (120) 
1

>  <s_m_source_file>  (120) 
/var/tmp/pbs.5076255.sched01/tmp9d3cgwpa/0mc_8ktg4.sdf

>  <i_m_source_file_index>  (120) 
49

>  <i_lp_mmshare_version>  (120) 
48012

>  <i_f3d_flags>  (120) 
0

>  <s_epik_input>  (120) 
W0NIM11PW0NAQEhdKEMoTzEpKFtDSDNdKVtDSDNdKVtDQEhdKFtDQEBIXShbT0hdKVtDQEhdMltPSF0pW0NAXTEoW0NIM10pW0NAXTMoW0NIM10pQyg9TylPW0NAQEhdKEM9NFtDQF0yM1tDSDNdKVtDSDJdW0NAQEhdKEM0W0NIM10pYzVbY0hdW2NIXW9bY0hdNQ==

>  <s_epik_cmdline>  (120) 
J2VwaWtfcHl0aG9uJywgJy1waHQnLCAnMi4wJywgJy1waCcsICc3LjAnLCAnLXRuJywgJzgnLCAnLW1hJywgJzIwMCcsICctaW1hZScsICc8aW5maWxlLm1hZT4nLCAnLW9tYWUnLCAnPG91dGZpbGUubWFlPic=

>  <r_lp_tautomer_probability>  (120) 
1

>  <r_epik_Ionization_Penalty>  (120) 
1.3104e-07

>  <r_epik_Ionization_Penalty_Charging>  (120) 
0

>  <r_epik_Ionization_Penalty_Neutral>  (120) 
1.3104e-07

>  <r_epik_State_Penalty>  (120) 
-0

>  <r_epik_Charging_Adjusted_Penalty>  (120) 
0

>  <i_epik_Tot_Q>  (120) 
0

>  <i_epik_Tot_abs_Q>  (120) 
0

>  <s_epik_Chemistry_Notes>  (120) 
This compound has an ester and may undergo hydrolysis at high or low pH.

>  <s_lp_Force_Field>  (120) 
OPLS3e

>  <r_lp_Energy>  (120) 
41.8392

>  <b_lp_Chiralities_Consistent>  (120) 
1

>  <s_lp_Variant>  (120) 
30:0-1

>  <s_i_glide_gridfile>  (120) 
pfpi4k_grid

>  <i_i_glide_lignum>  (120) 
49

>  <i_i_glide_rotatable_bonds>  (120) 
4

>  <r_i_docking_score>  (120) 
-2.6621

>  <r_i_glide_ligand_efficiency>  (120) 
-0.0831907

>  <r_i_glide_ligand_efficiency_sa>  (120) 
-0.264114

>  <r_i_glide_ligand_efficiency_ln>  (120) 
-0.596118

>  <r_i_glide_gscore>  (120) 
-2.6621

>  <r_i_glide_lipo>  (120) 
-0.469119

>  <r_i_glide_hbond>  (120) 
0

>  <r_i_glide_metal>  (120) 
-0

>  <r_i_glide_rewards>  (120) 
-0.418803

>  <r_i_glide_evdw>  (120) 
-21.1947

>  <r_i_glide_ecoul>  (120) 
-5.43225

>  <r_i_glide_erotb>  (120) 
0.100391

>  <r_i_glide_esite>  (120) 
0

>  <r_i_glide_emodel>  (120) 
-30.6293

>  <r_i_glide_energy>  (120) 
-26.627

>  <r_i_glide_einternal>  (120) 
1.26542

>  <r_i_glide_intrahb_reward>  (120) 
-0

>  <i_i_glide_confnum>  (120) 
1

>  <i_i_glide_posenum>  (120) 
28

>  <r_i_glide_eff_state_penalty>  (120) 
0

>  <ligand_id>  (120) 
30

>  <original_smiles>  (120) 
COC1C2C(O)C(O)C3(C)C4=C(C)C(c5ccoc5)CC4OC(=O)C3(C)C2(C)OC1(C)C

>  <smiles>  (120) 
[H]OC1([H])C([H])(O[H])C2(C([H])([H])[H])C3=C(C([H])([H])[H])C([H])(c4c([H])oc([H])c4[H])C([H])([H])C3([H])OC(=O)C2(C([H])([H])[H])C2(C([H])([H])[H])OC(C([H])([H])[H])(C([H])([H])[H])C([H])(OC([H])([H])[H])C12[H]

$$$$
30:0:2
     RDKit          3D

 66 70  0  0  1  0  0  0  0  0999 V2000
    1.8925    1.8834    2.2585 C   0  0  0  0  0  0  0  0  0  0  0  0
    2.0323    0.4686    2.3936 O   0  0  0  0  0  0  0  0  0  0  0  0
    2.5936    0.0638    3.6367 C   0  0  2  0  0  0  0  0  0  0  0  0
    3.0273   -1.4212    3.6879 C   0  0  2  0  0  0  0  0  0  0  0  0
    2.0485   -2.3582    2.9333 C   0  0  1  0  0  0  0  0  0  0  0  0
    2.2345   -2.2700    1.5314 O   0  0  0  0  0  0  0  0  0  0  0  0
    2.0887   -3.8430    3.3612 C   0  0  1  0  0  0  0  0  0  0  0  0
    3.2437   -4.4902    2.8543 O   0  0  0  0  0  0  0  0  0  0  0  0
    1.8954   -4.0470    4.8995 C   0  0  1  0  0  0  0  0  0  0  0  0
    0.4607   -3.6116    5.3012 C   0  0  0  0  0  0  0  0  0  0  0  0
    2.0276   -5.5611    5.2128 C   0  0  0  0  0  0  0  0  0  0  0  0
    1.3173   -6.6368    4.8110 C   0  0  0  0  0  0  0  0  0  0  0  0
    0.0636   -6.7219    3.9532 C   0  0  0  0  0  0  0  0  0  0  0  0
    1.9175   -7.9220    5.3548 C   0  0  1  0  0  0  0  0  0  0  0  0
    1.9168   -9.1141    4.4293 C   0  0  0  0  0  0  0  0  0  0  0  0
    1.5951  -10.4621    4.7637 C   0  0  0  0  0  0  0  0  0  0  0  0
    1.7533  -11.1942    3.6240 C   0  0  0  0  0  0  0  0  0  0  0  0
    2.1600  -10.4022    2.5968 O   0  0  0  0  0  0  0  0  0  0  0  0
    2.2552   -9.1475    3.1023 C   0  0  0  0  0  0  0  0  0  0  0  0
    3.3317   -7.4967    5.7830 C   0  0  0  0  0  0  0  0  0  0  0  0
    3.1943   -5.9954    6.0643 C   0  0  1  0  0  0  0  0  0  0  0  0
    4.3755   -5.2737    5.7882 O   0  0  0  0  0  0  0  0  0  0  0  0
    4.3730   -3.9455    5.5572 C   0  0  0  0  0  0  0  0  0  0  0  0
    5.4094   -3.3940    5.2059 O   0  0  0  0  0  0  0  0  0  0  0  0
    2.9910   -3.2013    5.6995 C   0  0  2  0  0  0  0  0  0  0  0  0
    2.6579   -3.1758    7.2267 C   0  0  0  0  0  0  0  0  0  0  0  0
    3.0877   -1.6653    5.2230 C   0  0  1  0  0  0  0  0  0  0  0  0
    4.3135   -0.9238    5.8637 C   0  0  0  0  0  0  0  0  0  0  0  0
    1.9572   -0.8961    5.6788 O   0  0  0  0  0  0  0  0  0  0  0  0
    1.6486    0.2394    4.8525 C   0  0  0  0  0  0  0  0  0  0  0  0
    1.9031    1.5475    5.6373 C   0  0  0  0  0  0  0  0  0  0  0  0
    0.1299    0.1622    4.5473 C   0  0  0  0  0  0  0  0  0  0  0  0
    1.5113    2.1300    1.2743 H   0  0  0  0  0  0  0  0  0  0  0  0
    2.8356    2.4122    2.3993 H   0  0  0  0  0  0  0  0  0  0  0  0
    1.1564    2.3147    2.9290 H   0  0  0  0  0  0  0  0  0  0  0  0
    3.5022    0.6486    3.7793 H   0  0  0  0  0  0  0  0  0  0  0  0
    4.0201   -1.5419    3.2562 H   0  0  0  0  0  0  0  0  0  0  0  0
    1.0341   -2.0303    3.1039 H   0  0  0  0  0  0  0  0  0  0  0  0
    1.9229   -1.4258    1.2201 H   0  0  0  0  0  0  0  0  0  0  0  0
    1.2643   -4.3246    2.8372 H   0  0  0  0  0  0  0  0  0  0  0  0
    4.0172   -4.0519    3.1882 H   0  0  0  0  0  0  0  0  0  0  0  0
    0.3275   -2.5352    5.3376 H   0  0  0  0  0  0  0  0  0  0  0  0
    0.1792   -3.9971    6.2829 H   0  0  0  0  0  0  0  0  0  0  0  0
   -0.2850   -3.9638    4.5941 H   0  0  0  0  0  0  0  0  0  0  0  0
   -0.7629   -7.1463    4.5311 H   0  0  0  0  0  0  0  0  0  0  0  0
    0.2327   -7.3769    3.0983 H   0  0  0  0  0  0  0  0  0  0  0  0
   -0.2420   -5.7631    3.5531 H   0  0  0  0  0  0  0  0  0  0  0  0
    1.3293   -8.1875    6.2345 H   0  0  0  0  0  0  0  0  0  0  0  0
    1.2951  -10.8653    5.7220 H   0  0  0  0  0  0  0  0  0  0  0  0
    1.6398  -12.2406    3.3869 H   0  0  0  0  0  0  0  0  0  0  0  0
    2.5818   -8.4023    2.3931 H   0  0  0  0  0  0  0  0  0  0  0  0
    3.7331   -8.0790    6.6138 H   0  0  0  0  0  0  0  0  0  0  0  0
    4.0103   -7.6211    4.9343 H   0  0  0  0  0  0  0  0  0  0  0  0
    2.9268   -5.8839    7.1153 H   0  0  0  0  0  0  0  0  0  0  0  0
    1.9853   -2.3626    7.4954 H   0  0  0  0  0  0  0  0  0  0  0  0
    3.5531   -3.0561    7.8404 H   0  0  0  0  0  0  0  0  0  0  0  0
    2.1527   -4.0722    7.5792 H   0  0  0  0  0  0  0  0  0  0  0  0
    5.2234   -1.0487    5.2828 H   0  0  0  0  0  0  0  0  0  0  0  0
    4.5186   -1.2510    6.8814 H   0  0  0  0  0  0  0  0  0  0  0  0
    4.2015    0.1511    5.9183 H   0  0  0  0  0  0  0  0  0  0  0  0
    1.4867    2.4068    5.1184 H   0  0  0  0  0  0  0  0  0  0  0  0
    2.9548    1.7784    5.7858 H   0  0  0  0  0  0  0  0  0  0  0  0
    1.4296    1.5112    6.6185 H   0  0  0  0  0  0  0  0  0  0  0  0
   -0.2085    0.9709    3.9044 H   0  0  0  0  0  0  0  0  0  0  0  0
   -0.4450    0.2372    5.4706 H   0  0  0  0  0  0  0  0  0  0  0  0
   -0.1841   -0.7527    4.0590 H   0  0  0  0  0  0  0  0  0  0  0  0
  1  2  1  0
  1 33  1  0
  1 34  1  0
  1 35  1  0
  2  3  1  0
  3 30  1  0
  3  4  1  0
  3 36  1  1
  4 27  1  0
  4  5  1  0
  4 37  1  6
  5  6  1  0
  5  7  1  0
  5 38  1  6
  6 39  1  0
  7  8  1  0
  7  9  1  0
  7 40  1  6
  8 41  1  0
  9 25  1  0
  9 10  1  1
  9 11  1  0
 10 42  1  0
 10 43  1  0
 10 44  1  0
 11 21  1  0
 11 12  2  0
 12 13  1  0
 12 14  1  0
 13 45  1  0
 13 46  1  0
 13 47  1  0
 14 15  1  0
 14 20  1  0
 14 48  1  1
 15 19  2  0
 15 16  1  0
 16 17  2  0
 16 49  1  0
 17 18  1  0
 17 50  1  0
 18 19  1  0
 19 51  1  0
 20 21  1  0
 20 52  1  0
 20 53  1  0
 21 22  1  0
 21 54  1  1
 22 23  1  0
 23 24  2  0
 23 25  1  0
 25 26  1  1
 25 27  1  0
 26 55  1  0
 26 56  1  0
 26 57  1  0
 27 28  1  1
 27 29  1  0
 28 58  1  0
 28 59  1  0
 28 60  1  0
 29 30  1  0
 30 31  1  0
 30 32  1  0
 31 61  1  0
 31 62  1  0
 31 63  1  0
 32 64  1  0
 32 65  1  0
 32 66  1  0
M  END
>  <i_m_ct_stereo_status>  (121) 
1

>  <s_m_source_file>  (121) 
/var/tmp/pbs.5076255.sched01/tmp9d3cgwpa/0mc_8ktg4.sdf

>  <i_m_source_file_index>  (121) 
49

>  <i_lp_mmshare_version>  (121) 
48012

>  <i_f3d_flags>  (121) 
0

>  <s_epik_input>  (121) 
W0NIM11PW0NAQEhdKEMoTzEpKFtDSDNdKVtDSDNdKVtDQEhdKFtDQEBIXShbT0hdKVtDQEhdMltPSF0pW0NAXTEoW0NIM10pW0NAXTMoW0NIM10pQyg9TylPW0NAQEhdKEM9NFtDQF0yM1tDSDNdKVtDSDJdW0NAQEhdKEM0W0NIM10pYzVbY0hdW2NIXW9bY0hdNQ==

>  <s_epik_cmdline>  (121) 
J2VwaWtfcHl0aG9uJywgJy1waHQnLCAnMi4wJywgJy1waCcsICc3LjAnLCAnLXRuJywgJzgnLCAnLW1hJywgJzIwMCcsICctaW1hZScsICc8aW5maWxlLm1hZT4nLCAnLW9tYWUnLCAnPG91dGZpbGUubWFlPic=

>  <r_lp_tautomer_probability>  (121) 
1

>  <r_epik_Ionization_Penalty>  (121) 
1.3104e-07

>  <r_epik_Ionization_Penalty_Charging>  (121) 
0

>  <r_epik_Ionization_Penalty_Neutral>  (121) 
1.3104e-07

>  <r_epik_State_Penalty>  (121) 
-0

>  <r_epik_Charging_Adjusted_Penalty>  (121) 
0

>  <i_epik_Tot_Q>  (121) 
0

>  <i_epik_Tot_abs_Q>  (121) 
0

>  <s_epik_Chemistry_Notes>  (121) 
This compound has an ester and may undergo hydrolysis at high or low pH.

>  <s_lp_Force_Field>  (121) 
OPLS3e

>  <r_lp_Energy>  (121) 
41.8392

>  <b_lp_Chiralities_Consistent>  (121) 
1

>  <s_lp_Variant>  (121) 
30:0-1

>  <s_i_glide_gridfile>  (121) 
pfpi4k_grid

>  <i_i_glide_lignum>  (121) 
49

>  <i_i_glide_rotatable_bonds>  (121) 
4

>  <r_i_docking_score>  (121) 
-2.07618

>  <r_i_glide_ligand_efficiency>  (121) 
-0.0648806

>  <r_i_glide_ligand_efficiency_sa>  (121) 
-0.205983

>  <r_i_glide_ligand_efficiency_ln>  (121) 
-0.464913

>  <r_i_glide_gscore>  (121) 
-2.07618

>  <r_i_glide_lipo>  (121) 
-0.124733

>  <r_i_glide_hbond>  (121) 
0

>  <r_i_glide_metal>  (121) 
-0

>  <r_i_glide_rewards>  (121) 
-0.866329

>  <r_i_glide_evdw>  (121) 
-18.5973

>  <r_i_glide_ecoul>  (121) 
-1.70427

>  <r_i_glide_erotb>  (121) 
0.100391

>  <r_i_glide_esite>  (121) 
0

>  <r_i_glide_emodel>  (121) 
-28.7067

>  <r_i_glide_energy>  (121) 
-20.3016

>  <r_i_glide_einternal>  (121) 
0.558892

>  <r_i_glide_intrahb_reward>  (121) 
-0.5

>  <i_i_glide_confnum>  (121) 
4

>  <i_i_glide_posenum>  (121) 
4

>  <r_i_glide_eff_state_penalty>  (121) 
0

>  <ligand_id>  (121) 
30

>  <original_smiles>  (121) 
COC1C2C(O)C(O)C3(C)C4=C(C)C(c5ccoc5)CC4OC(=O)C3(C)C2(C)OC1(C)C

>  <smiles>  (121) 
[H]OC1([H])C([H])(O[H])C2(C([H])([H])[H])C3=C(C([H])([H])[H])C([H])(c4c([H])oc([H])c4[H])C([H])([H])C3([H])OC(=O)C2(C([H])([H])[H])C2(C([H])([H])[H])OC(C([H])([H])[H])(C([H])([H])[H])C([H])(OC([H])([H])[H])C12[H]

$$$$
31:0:0
     RDKit          3D

 78 85  0  0  1  0  0  0  0  0999 V2000
    0.3724    6.2741    8.2675 C   0  0  0  0  0  0  0  0  0  0  0  0
    1.2235    6.1998    6.9830 C   0  0  2  0  0  0  0  0  0  0  0  0
    0.6004    6.1945    5.5690 C   0  0  0  0  0  0  0  0  0  0  0  0
    1.1636    5.0570    4.5739 C   0  0  1  0  0  0  0  0  0  0  0  0
    1.1893    5.9083    3.2439 C   0  0  0  0  0  0  0  0  0  0  0  0
    2.7840    4.5904    4.8698 C   0  0  1  0  0  0  0  0  0  0  0  0
    3.2361    5.7097    5.7898 C   0  0  0  0  0  0  0  0  0  0  0  0
    2.4102    5.2533    7.0096 C   0  0  2  0  0  0  0  0  0  0  0  0
    2.2336    3.6661    6.8135 C   0  0  2  0  0  0  0  0  0  0  0  0
    3.3267    3.3638    5.8390 C   0  0  2  0  0  0  0  0  0  0  0  0
    4.7604    3.4924    6.4577 C   0  0  0  0  0  0  0  0  0  0  0  0
    3.2433    1.8285    5.6008 C   0  0  0  0  0  0  0  0  0  0  0  0
    3.6425    1.0523    4.5915 C   0  0  0  0  0  0  0  0  0  0  0  0
    2.8114   -0.1101    4.1826 C   0  0  0  0  0  0  0  0  0  0  0  0
    3.3492   -0.9842    3.5093 O   0  0  0  0  0  0  0  0  0  0  0  0
    1.3095   -0.3418    4.6386 C   0  0  0  0  0  0  0  0  0  0  0  0
    0.7103   -1.4195    3.6709 C   0  0  0  0  0  0  0  0  0  0  0  0
    1.5034   -1.1433    5.9648 C   0  0  0  0  0  0  0  0  0  0  0  0
    0.2088    0.9055    4.6101 C   0  0  1  0  0  0  0  0  0  0  0  0
   -1.2507    0.6383    5.2112 C   0  0  1  0  0  0  0  0  0  0  0  0
   -1.4290   -0.4738    6.0554 O   0  0  0  0  0  0  0  0  0  0  0  0
   -1.7703    1.8828    5.8793 C   0  0  0  0  0  0  0  0  0  0  0  0
   -2.0266    2.9170    5.0681 C   0  0  0  0  0  0  0  0  0  0  0  0
   -1.0935    3.9024    5.2997 N   0  0  0  0  0  0  0  0  0  0  0  0
    0.0453    3.8396    4.3804 C   0  0  2  0  0  0  0  0  0  0  0  0
    0.7561    2.4750    4.6541 C   0  0  2  0  0  0  0  0  0  0  0  0
    1.5855    2.6267    3.2360 C   0  0  0  0  0  0  0  0  0  0  0  0
    0.8807    2.0901    2.0901 O   0  0  0  0  0  0  0  0  0  0  0  0
    0.8988    2.9385    6.2560 C   0  0  1  0  0  0  0  0  0  0  0  0
    0.4018    1.9071    7.2935 C   0  0  0  0  0  0  0  0  0  0  0  0
   -1.0584    2.3456    7.1377 C   0  0  2  0  0  0  0  0  0  0  0  0
   -1.9932    2.3624    8.3822 C   0  0  0  0  0  0  0  0  0  0  0  0
   -3.3768    2.9775    8.0948 C   0  0  0  0  0  0  0  0  0  0  0  0
   -1.3971    3.0961    9.6121 C   0  0  0  0  0  0  0  0  0  0  0  0
   -0.4630    3.6138    6.5724 C   0  0  2  0  0  0  0  0  0  0  0  0
   -0.6813    6.4868    8.0718 H   0  0  0  0  0  0  0  0  0  0  0  0
    0.7340    7.0337    8.9590 H   0  0  0  0  0  0  0  0  0  0  0  0
    0.4732    5.3440    8.8189 H   0  0  0  0  0  0  0  0  0  0  0  0
    1.6638    7.1958    7.0407 H   0  0  0  0  0  0  0  0  0  0  0  0
   -0.4828    6.2027    5.6382 H   0  0  0  0  0  0  0  0  0  0  0  0
    0.8049    7.1963    5.1692 H   0  0  0  0  0  0  0  0  0  0  0  0
    1.6635    5.4835    2.3669 H   0  0  0  0  0  0  0  0  0  0  0  0
    1.7531    6.8314    3.3710 H   0  0  0  0  0  0  0  0  0  0  0  0
    0.1707    6.1612    2.9428 H   0  0  0  0  0  0  0  0  0  0  0  0
    3.3656    4.6094    3.9467 H   0  0  0  0  0  0  0  0  0  0  0  0
    4.3035    5.7821    5.9691 H   0  0  0  0  0  0  0  0  0  0  0  0
    3.0181    6.7064    5.4118 H   0  0  0  0  0  0  0  0  0  0  0  0
    2.9737    5.4517    7.9190 H   0  0  0  0  0  0  0  0  0  0  0  0
    2.5113    3.2359    7.7797 H   0  0  0  0  0  0  0  0  0  0  0  0
    4.8602    4.2310    7.2564 H   0  0  0  0  0  0  0  0  0  0  0  0
    5.4985    3.7170    5.6862 H   0  0  0  0  0  0  0  0  0  0  0  0
    5.0796    2.5654    6.9381 H   0  0  0  0  0  0  0  0  0  0  0  0
    2.6608    1.3169    6.3312 H   0  0  0  0  0  0  0  0  0  0  0  0
    4.3257    1.4548    3.8288 H   0  0  0  0  0  0  0  0  0  0  0  0
   -0.2649   -1.7848    4.0034 H   0  0  0  0  0  0  0  0  0  0  0  0
    1.3323   -2.3120    3.5877 H   0  0  0  0  0  0  0  0  0  0  0  0
    0.5943   -1.0372    2.6539 H   0  0  0  0  0  0  0  0  0  0  0  0
    0.6110   -1.6308    6.3524 H   0  0  0  0  0  0  0  0  0  0  0  0
    1.9658   -0.5879    6.7739 H   0  0  0  0  0  0  0  0  0  0  0  0
    2.1883   -1.9756    5.7961 H   0  0  0  0  0  0  0  0  0  0  0  0
   -0.1420    0.7914    3.6019 H   0  0  0  0  0  0  0  0  0  0  0  0
   -1.9219    0.4316    4.3780 H   0  0  0  0  0  0  0  0  0  0  0  0
   -0.9735   -1.1996    5.6605 H   0  0  0  0  0  0  0  0  0  0  0  0
   -2.2743    2.7837    4.0242 H   0  0  0  0  0  0  0  0  0  0  0  0
   -0.3762    3.8736    3.3727 H   0  0  0  0  0  0  0  0  0  0  0  0
    1.6771    3.5790    2.8221 H   0  0  0  0  0  0  0  0  0  0  0  0
    2.6063    2.4507    3.1021 H   0  0  0  0  0  0  0  0  0  0  0  0
    0.5945    2.8353    1.5444 H   0  0  0  0  0  0  0  0  0  0  0  0
    0.5349    0.8574    7.1016 H   0  0  0  0  0  0  0  0  0  0  0  0
    0.8160    2.1103    8.2742 H   0  0  0  0  0  0  0  0  0  0  0  0
   -2.1618    1.3311    8.6845 H   0  0  0  0  0  0  0  0  0  0  0  0
   -3.2713    4.0174    7.7920 H   0  0  0  0  0  0  0  0  0  0  0  0
   -4.0146    2.9519    8.9769 H   0  0  0  0  0  0  0  0  0  0  0  0
   -3.9147    2.4582    7.3053 H   0  0  0  0  0  0  0  0  0  0  0  0
   -1.2818    4.1499    9.3866 H   0  0  0  0  0  0  0  0  0  0  0  0
   -0.4418    2.6999    9.9514 H   0  0  0  0  0  0  0  0  0  0  0  0
   -2.0647    3.0521   10.4750 H   0  0  0  0  0  0  0  0  0  0  0  0
   -0.5145    4.3822    7.3081 H   0  0  0  0  0  0  0  0  0  0  0  0
  1  2  1  0
  1 36  1  0
  1 37  1  0
  1 38  1  0
  2  8  1  0
  2  3  1  0
  2 39  1  6
  3  4  1  0
  3 40  1  0
  3 41  1  0
  4 25  1  0
  4  5  1  6
  4  6  1  0
  5 42  1  0
  5 43  1  0
  5 44  1  0
  6 10  1  0
  6  7  1  0
  6 45  1  6
  7  8  1  0
  7 46  1  0
  7 47  1  0
  8  9  1  0
  8 48  1  1
  9 29  1  0
  9 10  1  0
  9 49  1  1
 10 11  1  1
 10 12  1  0
 11 50  1  0
 11 51  1  0
 11 52  1  0
 12 13  2  3
 12 53  1  0
 13 14  1  0
 13 54  1  0
 14 15  2  0
 14 16  1  0
 16 17  1  0
 16 18  1  0
 16 19  1  0
 17 55  1  0
 17 56  1  0
 17 57  1  0
 18 58  1  0
 18 59  1  0
 18 60  1  0
 19 26  1  0
 19 20  1  0
 19 61  1  6
 20 21  1  0
 20 22  1  0
 20 62  1  6
 21 63  1  0
 22 31  1  0
 22 23  2  0
 23 24  1  0
 23 64  1  0
 24 35  1  0
 24 25  1  0
 25 26  1  0
 25 65  1  6
 26 27  1  6
 26 29  1  0
 27 28  1  0
 27 66  1  0
 27 67  1  0
 28 68  1  0
 29 35  1  0
 29 30  1  1
 30 31  1  0
 30 69  1  0
 30 70  1  0
 31 32  1  1
 31 35  1  0
 32 33  1  0
 32 34  1  0
 32 71  1  0
 33 72  1  0
 33 73  1  0
 33 74  1  0
 34 75  1  0
 34 76  1  0
 34 77  1  0
 35 78  1  1
M  END
>  <i_m_ct_stereo_status>  (122) 
1

>  <s_m_source_file>  (122) 
/var/tmp/pbs.5076255.sched01/tmp9d3cgwpa/0mc_8ktg4.sdf

>  <i_m_source_file_index>  (122) 
50

>  <i_lp_mmshare_version>  (122) 
48012

>  <i_f3d_flags>  (122) 
0

>  <s_epik_input>  (122) 
W0NAXTEyM1tDQEBIXTRbQ0BASF01W0NASF0oW0NIM10pW0NIMl1bQ0BAXTYoW0NIM10pW0NAQEhdKFtDSDJdNSlDNChbQ0gzXSkvW0NIXT1bQ0hdXEMoPU8pQyhbQ0gzXSkoW0NIM10pW0NIXTdbQ0BAXTEoW0NIMl1bT0hdKVtDQEhdNk44W0NASF0zW0NAQF0oW0NIMl0yKShbQ0hdKFtDSDNdKVtDSDNdKUMoPVtDSF04KVtDQEBIXTdbT0hd

>  <s_epik_cmdline>  (122) 
J2VwaWtfcHl0aG9uJywgJy1waHQnLCAnMi4wJywgJy1waCcsICc3LjAnLCAnLXRuJywgJzgnLCAnLW1hJywgJzIwMCcsICctaW1hZScsICc8aW5maWxlLm1hZT4nLCAnLW9tYWUnLCAnPG91dGZpbGUubWFlPic=

>  <r_epik_Ionization_Penalty>  (122) 
0.111388

>  <r_epik_Ionization_Penalty_Charging>  (122) 
0.0997846

>  <r_epik_Ionization_Penalty_Neutral>  (122) 
0.0116036

>  <r_epik_State_Penalty>  (122) 
0.121146

>  <r_epik_Charging_Adjusted_Penalty>  (122) 
0.22093

>  <i_epik_Tot_Q>  (122) 
0

>  <i_epik_Tot_abs_Q>  (122) 
0

>  <s_epik_Chemistry_Notes>  (122) 
This compound has an imine and may undergo hydrolysis.

>  <s_lp_Force_Field>  (122) 
OPLS3e

>  <r_lp_Energy>  (122) 
367.892

>  <b_lp_Chiralities_Consistent>  (122) 
1

>  <s_lp_Variant>  (122) 
31:0-1

>  <s_i_glide_gridfile>  (122) 
pfpi4k_grid

>  <i_i_glide_lignum>  (122) 
50

>  <i_i_glide_rotatable_bonds>  (122) 
4

>  <r_i_docking_score>  (122) 
-2.7404

>  <r_i_glide_ligand_efficiency>  (122) 
-0.0782972

>  <r_i_glide_ligand_efficiency_sa>  (122) 
-0.256115

>  <r_i_glide_ligand_efficiency_ln>  (122) 
-0.601579

>  <r_i_glide_gscore>  (122) 
-2.7404

>  <r_i_glide_lipo>  (122) 
-0.0599646

>  <r_i_glide_hbond>  (122) 
-0.25487

>  <r_i_glide_metal>  (122) 
-0

>  <r_i_glide_rewards>  (122) 
-0.152195

>  <r_i_glide_evdw>  (122) 
-23.0218

>  <r_i_glide_ecoul>  (122) 
-7.92177

>  <r_i_glide_erotb>  (122) 
0.0887861

>  <r_i_glide_esite>  (122) 
-0.0228034

>  <r_i_glide_emodel>  (122) 
-33.8377

>  <r_i_glide_energy>  (122) 
-30.9436

>  <r_i_glide_einternal>  (122) 
4.4712

>  <r_i_glide_intrahb_reward>  (122) 
-0

>  <i_i_glide_confnum>  (122) 
1

>  <i_i_glide_posenum>  (122) 
28

>  <r_i_glide_eff_state_penalty>  (122) 
0

>  <ligand_id>  (122) 
31

>  <original_smiles>  (122) 
CC1CC2(C)C3CC1C1C3(C)C=CC(=O)C(C)(C)C3C(O)C4=CN5C2C3(CO)C12CC4(C(C)C)C52

>  <smiles>  (122) 
[H]OC([H])([H])C12C3([H])N4C([H])=C5C([H])(O[H])C1([H])C(C([H])([H])[H])(C([H])([H])[H])C(=O)C([H])=C([H])C1(C([H])([H])[H])C6([H])C([H])([H])C([H])(C([H])(C([H])([H])[H])C([H])([H])C36C([H])([H])[H])C1([H])C21C([H])([H])C5(C([H])(C([H])([H])[H])C([H])([H])[H])C41[H]

$$$$
31:0:1
     RDKit          3D

 78 85  0  0  1  0  0  0  0  0999 V2000
    1.8814    4.4984    9.7470 C   0  0  0  0  0  0  0  0  0  0  0  0
    2.8798    4.6782    8.5866 C   0  0  2  0  0  0  0  0  0  0  0  0
    2.5961    5.6002    7.3709 C   0  0  0  0  0  0  0  0  0  0  0  0
    2.8745    4.9383    5.9297 C   0  0  1  0  0  0  0  0  0  0  0  0
    3.4594    6.1662    5.1650 C   0  0  0  0  0  0  0  0  0  0  0  0
    4.0935    3.7354    5.9571 C   0  0  1  0  0  0  0  0  0  0  0  0
    4.7392    3.9666    7.2958 C   0  0  0  0  0  0  0  0  0  0  0  0
    3.5623    3.4072    8.1108 C   0  0  2  0  0  0  0  0  0  0  0  0
    2.8215    2.3599    7.1350 C   0  0  2  0  0  0  0  0  0  0  0  0
    3.8882    2.1059    6.1229 C   0  0  2  0  0  0  0  0  0  0  0  0
    5.1062    1.2784    6.6633 C   0  0  0  0  0  0  0  0  0  0  0  0
    3.2508    1.1053    5.1303 C   0  0  0  0  0  0  0  0  0  0  0  0
    3.5075    0.8569    3.8360 C   0  0  0  0  0  0  0  0  0  0  0  0
    2.4028    0.4234    2.9441 C   0  0  0  0  0  0  0  0  0  0  0  0
    2.7057   -0.1814    1.9077 O   0  0  0  0  0  0  0  0  0  0  0  0
    0.8739    0.7100    3.2308 C   0  0  0  0  0  0  0  0  0  0  0  0
    0.1093    0.6018    1.8780 C   0  0  0  0  0  0  0  0  0  0  0  0
    0.4668   -0.6106    3.9709 C   0  0  0  0  0  0  0  0  0  0  0  0
    0.4223    2.1927    3.8380 C   0  0  1  0  0  0  0  0  0  0  0  0
   -1.1139    2.3161    4.2739 C   0  0  1  0  0  0  0  0  0  0  0  0
   -1.8547    1.1321    4.4811 O   0  0  0  0  0  0  0  0  0  0  0  0
   -1.2562    3.1775    5.4949 C   0  0  0  0  0  0  0  0  0  0  0  0
   -0.9161    4.4558    5.3331 C   0  0  0  0  0  0  0  0  0  0  0  0
    0.2485    4.6822    6.0411 N   0  0  0  0  0  0  0  0  0  0  0  0
    1.4491    4.5902    5.1964 C   0  0  2  0  0  0  0  0  0  0  0  0
    1.4880    3.1224    4.6641 C   0  0  2  0  0  0  0  0  0  0  0  0
    2.5485    3.5272    3.4544 C   0  0  0  0  0  0  0  0  0  0  0  0
    2.0343    4.4919    2.5057 O   0  0  0  0  0  0  0  0  0  0  0  0
    1.4657    2.6468    6.2995 C   0  0  1  0  0  0  0  0  0  0  0  0
    0.3953    1.5904    6.6917 C   0  0  0  0  0  0  0  0  0  0  0  0
   -0.7145    2.6354    6.8128 C   0  0  2  0  0  0  0  0  0  0  0  0
   -1.7975    2.4762    7.9243 C   0  0  0  0  0  0  0  0  0  0  0  0
   -2.8241    3.6227    7.9537 C   0  0  0  0  0  0  0  0  0  0  0  0
   -1.2216    2.3318    9.3612 C   0  0  0  0  0  0  0  0  0  0  0  0
    0.4329    3.6029    6.9661 C   0  0  2  0  0  0  0  0  0  0  0  0
    1.0566    5.2142    9.7153 H   0  0  0  0  0  0  0  0  0  0  0  0
    2.3726    4.6103   10.7125 H   0  0  0  0  0  0  0  0  0  0  0  0
    1.4845    3.4813    9.7536 H   0  0  0  0  0  0  0  0  0  0  0  0
    3.6550    5.2162    9.1294 H   0  0  0  0  0  0  0  0  0  0  0  0
    1.6112    6.0453    7.4733 H   0  0  0  0  0  0  0  0  0  0  0  0
    3.2385    6.4824    7.5305 H   0  0  0  0  0  0  0  0  0  0  0  0
    3.7794    5.9495    4.1432 H   0  0  0  0  0  0  0  0  0  0  0  0
    4.3300    6.5652    5.6954 H   0  0  0  0  0  0  0  0  0  0  0  0
    2.7058    6.9632    5.1160 H   0  0  0  0  0  0  0  0  0  0  0  0
    4.8801    3.9330    5.2358 H   0  0  0  0  0  0  0  0  0  0  0  0
    5.6928    3.4689    7.4420 H   0  0  0  0  0  0  0  0  0  0  0  0
    5.0006    5.0107    7.4605 H   0  0  0  0  0  0  0  0  0  0  0  0
    3.9555    2.8813    8.9784 H   0  0  0  0  0  0  0  0  0  0  0  0
    2.7129    1.4455    7.7273 H   0  0  0  0  0  0  0  0  0  0  0  0
    5.3278    1.4326    7.7211 H   0  0  0  0  0  0  0  0  0  0  0  0
    6.0074    1.4922    6.0832 H   0  0  0  0  0  0  0  0  0  0  0  0
    4.9277    0.2044    6.5926 H   0  0  0  0  0  0  0  0  0  0  0  0
    2.3929    0.5909    5.5177 H   0  0  0  0  0  0  0  0  0  0  0  0
    4.4141    1.2421    3.3919 H   0  0  0  0  0  0  0  0  0  0  0  0
   -0.9720    0.5891    2.0168 H   0  0  0  0  0  0  0  0  0  0  0  0
    0.3443   -0.3162    1.3439 H   0  0  0  0  0  0  0  0  0  0  0  0
    0.3467    1.4198    1.1968 H   0  0  0  0  0  0  0  0  0  0  0  0
   -0.6001   -0.7805    4.0742 H   0  0  0  0  0  0  0  0  0  0  0  0
    0.9331   -0.7746    4.9375 H   0  0  0  0  0  0  0  0  0  0  0  0
    0.7805   -1.4711    3.3792 H   0  0  0  0  0  0  0  0  0  0  0  0
    0.3773    2.7671    2.9171 H   0  0  0  0  0  0  0  0  0  0  0  0
   -1.6569    2.8355    3.4836 H   0  0  0  0  0  0  0  0  0  0  0  0
   -2.4130    0.9693    3.7351 H   0  0  0  0  0  0  0  0  0  0  0  0
   -0.9467    4.9137    4.3549 H   0  0  0  0  0  0  0  0  0  0  0  0
    1.2327    5.3417    4.4452 H   0  0  0  0  0  0  0  0  0  0  0  0
    3.5193    3.8960    3.7127 H   0  0  0  0  0  0  0  0  0  0  0  0
    2.7428    2.7813    2.7132 H   0  0  0  0  0  0  0  0  0  0  0  0
    1.3773    4.1033    1.9409 H   0  0  0  0  0  0  0  0  0  0  0  0
    0.1526    0.8217    5.9832 H   0  0  0  0  0  0  0  0  0  0  0  0
    0.6368    1.1090    7.6436 H   0  0  0  0  0  0  0  0  0  0  0  0
   -2.3567    1.5671    7.6985 H   0  0  0  0  0  0  0  0  0  0  0  0
   -2.3381    4.5761    8.1529 H   0  0  0  0  0  0  0  0  0  0  0  0
   -3.5697    3.4685    8.7295 H   0  0  0  0  0  0  0  0  0  0  0  0
   -3.3690    3.7121    7.0170 H   0  0  0  0  0  0  0  0  0  0  0  0
   -0.7431    3.2669    9.6531 H   0  0  0  0  0  0  0  0  0  0  0  0
   -0.4978    1.5203    9.4622 H   0  0  0  0  0  0  0  0  0  0  0  0
   -2.0120    2.1551   10.0980 H   0  0  0  0  0  0  0  0  0  0  0  0
    0.5693    3.8876    7.9938 H   0  0  0  0  0  0  0  0  0  0  0  0
  1  2  1  0
  1 36  1  0
  1 37  1  0
  1 38  1  0
  2  8  1  0
  2  3  1  0
  2 39  1  1
  3  4  1  0
  3 40  1  0
  3 41  1  0
  4 25  1  0
  4  5  1  6
  4  6  1  0
  5 42  1  0
  5 43  1  0
  5 44  1  0
  6 10  1  0
  6  7  1  0
  6 45  1  6
  7  8  1  0
  7 46  1  0
  7 47  1  0
  8  9  1  0
  8 48  1  1
  9 29  1  0
  9 10  1  0
  9 49  1  1
 10 11  1  1
 10 12  1  0
 11 50  1  0
 11 51  1  0
 11 52  1  0
 12 13  2  3
 12 53  1  0
 13 14  1  0
 13 54  1  0
 14 15  2  0
 14 16  1  0
 16 17  1  0
 16 18  1  0
 16 19  1  0
 17 55  1  0
 17 56  1  0
 17 57  1  0
 18 58  1  0
 18 59  1  0
 18 60  1  0
 19 26  1  0
 19 20  1  0
 19 61  1  6
 20 21  1  0
 20 22  1  0
 20 62  1  6
 21 63  1  0
 22 31  1  0
 22 23  2  0
 23 24  1  0
 23 64  1  0
 24 35  1  0
 24 25  1  0
 25 26  1  0
 25 65  1  6
 26 27  1  6
 26 29  1  0
 27 28  1  0
 27 66  1  0
 27 67  1  0
 28 68  1  0
 29 35  1  0
 29 30  1  6
 30 31  1  0
 30 69  1  0
 30 70  1  0
 31 32  1  1
 31 35  1  0
 32 33  1  0
 32 34  1  0
 32 71  1  0
 33 72  1  0
 33 73  1  0
 33 74  1  0
 34 75  1  0
 34 76  1  0
 34 77  1  0
 35 78  1  1
M  END
>  <i_m_ct_stereo_status>  (123) 
1

>  <s_m_source_file>  (123) 
/var/tmp/pbs.5076255.sched01/tmp9d3cgwpa/0mc_8ktg4.sdf

>  <i_m_source_file_index>  (123) 
50

>  <i_lp_mmshare_version>  (123) 
48012

>  <i_f3d_flags>  (123) 
0

>  <s_epik_input>  (123) 
W0NAXTEyM1tDQEBIXTRbQ0BASF01W0NASF0oW0NIM10pW0NIMl1bQ0BAXTYoW0NIM10pW0NAQEhdKFtDSDJdNSlDNChbQ0gzXSkvW0NIXT1bQ0hdXEMoPU8pQyhbQ0gzXSkoW0NIM10pW0NIXTdbQ0BAXTEoW0NIMl1bT0hdKVtDQEhdNk44W0NASF0zW0NAQF0oW0NIMl0yKShbQ0hdKFtDSDNdKVtDSDNdKUMoPVtDSF04KVtDQEBIXTdbT0hd

>  <s_epik_cmdline>  (123) 
J2VwaWtfcHl0aG9uJywgJy1waHQnLCAnMi4wJywgJy1waCcsICc3LjAnLCAnLXRuJywgJzgnLCAnLW1hJywgJzIwMCcsICctaW1hZScsICc8aW5maWxlLm1hZT4nLCAnLW9tYWUnLCAnPG91dGZpbGUubWFlPic=

>  <r_epik_Ionization_Penalty>  (123) 
0.111388

>  <r_epik_Ionization_Penalty_Charging>  (123) 
0.0997846

>  <r_epik_Ionization_Penalty_Neutral>  (123) 
0.0116036

>  <r_epik_State_Penalty>  (123) 
0.121146

>  <r_epik_Charging_Adjusted_Penalty>  (123) 
0.22093

>  <i_epik_Tot_Q>  (123) 
0

>  <i_epik_Tot_abs_Q>  (123) 
0

>  <s_epik_Chemistry_Notes>  (123) 
This compound has an imine and may undergo hydrolysis.

>  <s_lp_Force_Field>  (123) 
OPLS3e

>  <r_lp_Energy>  (123) 
367.892

>  <b_lp_Chiralities_Consistent>  (123) 
1

>  <s_lp_Variant>  (123) 
31:0-1

>  <s_i_glide_gridfile>  (123) 
pfpi4k_grid

>  <i_i_glide_lignum>  (123) 
50

>  <i_i_glide_rotatable_bonds>  (123) 
4

>  <r_i_docking_score>  (123) 
-2.58992

>  <r_i_glide_ligand_efficiency>  (123) 
-0.0739978

>  <r_i_glide_ligand_efficiency_sa>  (123) 
-0.242052

>  <r_i_glide_ligand_efficiency_ln>  (123) 
-0.568545

>  <r_i_glide_gscore>  (123) 
-2.58992

>  <r_i_glide_lipo>  (123) 
-0.127137

>  <r_i_glide_hbond>  (123) 
-0.449476

>  <r_i_glide_metal>  (123) 
-0

>  <r_i_glide_rewards>  (123) 
-0.152195

>  <r_i_glide_evdw>  (123) 
-19.6608

>  <r_i_glide_ecoul>  (123) 
-6.37984

>  <r_i_glide_erotb>  (123) 
0.0887861

>  <r_i_glide_esite>  (123) 
-0.00988307

>  <r_i_glide_emodel>  (123) 
-28.5485

>  <r_i_glide_energy>  (123) 
-26.0407

>  <r_i_glide_einternal>  (123) 
4.37069

>  <r_i_glide_intrahb_reward>  (123) 
-0

>  <i_i_glide_confnum>  (123) 
1

>  <i_i_glide_posenum>  (123) 
21

>  <r_i_glide_eff_state_penalty>  (123) 
0

>  <ligand_id>  (123) 
31

>  <original_smiles>  (123) 
CC1CC2(C)C3CC1C1C3(C)C=CC(=O)C(C)(C)C3C(O)C4=CN5C2C3(CO)C12CC4(C(C)C)C52

>  <smiles>  (123) 
[H]OC([H])([H])C12C3([H])N4C([H])=C5C([H])(O[H])C1([H])C(C([H])([H])[H])(C([H])([H])[H])C(=O)C([H])=C([H])C1(C([H])([H])[H])C6([H])C([H])([H])C([H])(C([H])(C([H])([H])[H])C([H])([H])C36C([H])([H])[H])C1([H])C21C([H])([H])C5(C([H])(C([H])([H])[H])C([H])([H])[H])C41[H]

$$$$
31:0:2
     RDKit          3D

 78 85  0  0  1  0  0  0  0  0999 V2000
    2.4408    4.7464    9.8308 C   0  0  0  0  0  0  0  0  0  0  0  0
    3.4156    4.7950    8.6333 C   0  0  2  0  0  0  0  0  0  0  0  0
    3.1865    5.7416    7.4230 C   0  0  0  0  0  0  0  0  0  0  0  0
    3.3210    5.0638    5.9703 C   0  0  1  0  0  0  0  0  0  0  0  0
    4.0258    6.2167    5.1799 C   0  0  0  0  0  0  0  0  0  0  0  0
    4.3702    3.7198    5.9450 C   0  0  1  0  0  0  0  0  0  0  0  0
    5.1162    3.8615    7.2456 C   0  0  0  0  0  0  0  0  0  0  0  0
    3.9207    3.4520    8.1279 C   0  0  2  0  0  0  0  0  0  0  0  0
    3.0018    2.5040    7.2057 C   0  0  2  0  0  0  0  0  0  0  0  0
    3.9737    2.1251    6.1391 C   0  0  2  0  0  0  0  0  0  0  0  0
    5.1097    1.1459    6.6171 C   0  0  0  0  0  0  0  0  0  0  0  0
    3.1826    1.2056    5.1643 C   0  0  0  0  0  0  0  0  0  0  0  0
    3.3452    0.8951    3.8886 C   0  0  0  0  0  0  0  0  0  0  0  0
    2.1484    0.6333    3.0416 C   0  0  0  0  0  0  0  0  0  0  0  0
    2.3181    0.0113    1.9930 O   0  0  0  0  0  0  0  0  0  0  0  0
    0.6687    1.1104    3.4010 C   0  0  0  0  0  0  0  0  0  0  0  0
   -0.1669    1.0939    2.0811 C   0  0  0  0  0  0  0  0  0  0  0  0
    0.1387   -0.1422    4.1733 C   0  0  0  0  0  0  0  0  0  0  0  0
    0.4335    2.6269    4.0365 C   0  0  1  0  0  0  0  0  0  0  0  0
   -1.0501    2.9615    4.5286 C   0  0  1  0  0  0  0  0  0  0  0  0
   -1.9554    1.8997    4.7583 O   0  0  0  0  0  0  0  0  0  0  0  0
   -1.0205    3.8433    5.7449 C   0  0  0  0  0  0  0  0  0  0  0  0
   -0.5260    5.0623    5.5739 C   0  0  0  0  0  0  0  0  0  0  0  0
    0.6973    5.1363    6.2145 N   0  0  0  0  0  0  0  0  0  0  0  0
    1.8300    4.8874    5.3133 C   0  0  2  0  0  0  0  0  0  0  0  0
    1.6517    3.4161    4.8012 C   0  0  2  0  0  0  0  0  0  0  0  0
    2.6885    3.7006    3.5407 C   0  0  0  0  0  0  0  0  0  0  0  0
    2.1482    4.6017    2.5735 O   0  0  0  0  0  0  0  0  0  0  0  0
    1.6494    2.9625    6.4367 C   0  0  1  0  0  0  0  0  0  0  0  0
    0.4685    2.0585    6.9041 C   0  0  0  0  0  0  0  0  0  0  0  0
   -0.4888    3.2358    7.0307 C   0  0  2  0  0  0  0  0  0  0  0  0
   -1.4871    3.2280    8.2132 C   0  0  0  0  0  0  0  0  0  0  0  0
   -2.5780    2.1677    8.0671 C   0  0  0  0  0  0  0  0  0  0  0  0
   -2.1057    4.5968    8.5284 C   0  0  0  0  0  0  0  0  0  0  0  0
    0.7780    4.0426    7.1430 C   0  0  2  0  0  0  0  0  0  0  0  0
    1.7527    5.5935    9.8436 H   0  0  0  0  0  0  0  0  0  0  0  0
    2.9864    4.7622   10.7723 H   0  0  0  0  0  0  0  0  0  0  0  0
    1.8616    3.8195    9.8713 H   0  0  0  0  0  0  0  0  0  0  0  0
    4.2743    5.2306    9.1401 H   0  0  0  0  0  0  0  0  0  0  0  0
    2.2905    6.3364    7.5694 H   0  0  0  0  0  0  0  0  0  0  0  0
    3.9588    6.5198    7.5505 H   0  0  0  0  0  0  0  0  0  0  0  0
    4.2833    5.9716    4.1458 H   0  0  0  0  0  0  0  0  0  0  0  0
    4.9630    6.5038    5.6746 H   0  0  0  0  0  0  0  0  0  0  0  0
    3.3821    7.1073    5.1598 H   0  0  0  0  0  0  0  0  0  0  0  0
    5.1022    3.8178    5.1562 H   0  0  0  0  0  0  0  0  0  0  0  0
    6.0057    3.2457    7.3392 H   0  0  0  0  0  0  0  0  0  0  0  0
    5.5176    4.8634    7.3891 H   0  0  0  0  0  0  0  0  0  0  0  0
    4.2967    2.8816    8.9761 H   0  0  0  0  0  0  0  0  0  0  0  0
    2.8008    1.6120    7.8062 H   0  0  0  0  0  0  0  0  0  0  0  0
    5.4030    1.2722    7.6605 H   0  0  0  0  0  0  0  0  0  0  0  0
    6.0023    1.2448    5.9932 H   0  0  0  0  0  0  0  0  0  0  0  0
    4.7997    0.0992    6.5649 H   0  0  0  0  0  0  0  0  0  0  0  0
    2.2734    0.8108    5.6079 H   0  0  0  0  0  0  0  0  0  0  0  0
    4.2513    1.1924    3.3717 H   0  0  0  0  0  0  0  0  0  0  0  0
   -1.2293    1.2197    2.2719 H   0  0  0  0  0  0  0  0  0  0  0  0
   -0.0740    0.1513    1.5443 H   0  0  0  0  0  0  0  0  0  0  0  0
    0.1430    1.8746    1.3876 H   0  0  0  0  0  0  0  0  0  0  0  0
   -0.9331   -0.1666    4.3293 H   0  0  0  0  0  0  0  0  0  0  0  0
    0.6288   -0.3559    5.1184 H   0  0  0  0  0  0  0  0  0  0  0  0
    0.3154   -1.0373    3.5749 H   0  0  0  0  0  0  0  0  0  0  0  0
    0.3726    3.1958    3.1198 H   0  0  0  0  0  0  0  0  0  0  0  0
   -1.5530    3.5567    3.7607 H   0  0  0  0  0  0  0  0  0  0  0  0
   -2.2485    1.5608    3.9248 H   0  0  0  0  0  0  0  0  0  0  0  0
   -0.5459    5.5575    4.6128 H   0  0  0  0  0  0  0  0  0  0  0  0
    1.6841    5.6365    4.5393 H   0  0  0  0  0  0  0  0  0  0  0  0
    3.6540    4.1316    3.7498 H   0  0  0  0  0  0  0  0  0  0  0  0
    2.9521    2.9019    2.8771 H   0  0  0  0  0  0  0  0  0  0  0  0
    1.5378    4.1444    1.9965 H   0  0  0  0  0  0  0  0  0  0  0  0
    0.1072    1.2980    6.2379 H   0  0  0  0  0  0  0  0  0  0  0  0
    0.6424    1.6041    7.8857 H   0  0  0  0  0  0  0  0  0  0  0  0
   -0.9298    2.9459    9.1110 H   0  0  0  0  0  0  0  0  0  0  0  0
   -3.2577    2.3759    7.2415 H   0  0  0  0  0  0  0  0  0  0  0  0
   -3.1646    2.1487    8.9801 H   0  0  0  0  0  0  0  0  0  0  0  0
   -2.1500    1.1810    7.9104 H   0  0  0  0  0  0  0  0  0  0  0  0
   -2.7647    4.9289    7.7276 H   0  0  0  0  0  0  0  0  0  0  0  0
   -1.3343    5.3520    8.6836 H   0  0  0  0  0  0  0  0  0  0  0  0
   -2.7046    4.5457    9.4352 H   0  0  0  0  0  0  0  0  0  0  0  0
    0.9492    4.2997    8.1714 H   0  0  0  0  0  0  0  0  0  0  0  0
  1  2  1  0
  1 36  1  0
  1 37  1  0
  1 38  1  0
  2  8  1  0
  2  3  1  0
  2 39  1  1
  3  4  1  0
  3 40  1  0
  3 41  1  0
  4 25  1  0
  4  5  1  6
  4  6  1  0
  5 42  1  0
  5 43  1  0
  5 44  1  0
  6 10  1  0
  6  7  1  0
  6 45  1  6
  7  8  1  0
  7 46  1  0
  7 47  1  0
  8  9  1  0
  8 48  1  1
  9 29  1  0
  9 10  1  0
  9 49  1  1
 10 11  1  1
 10 12  1  0
 11 50  1  0
 11 51  1  0
 11 52  1  0
 12 13  2  3
 12 53  1  0
 13 14  1  0
 13 54  1  0
 14 15  2  0
 14 16  1  0
 16 17  1  0
 16 18  1  0
 16 19  1  0
 17 55  1  0
 17 56  1  0
 17 57  1  0
 18 58  1  0
 18 59  1  0
 18 60  1  0
 19 26  1  0
 19 20  1  0
 19 61  1  6
 20 21  1  0
 20 22  1  0
 20 62  1  6
 21 63  1  0
 22 31  1  0
 22 23  2  0
 23 24  1  0
 23 64  1  0
 24 35  1  0
 24 25  1  0
 25 26  1  0
 25 65  1  6
 26 27  1  6
 26 29  1  0
 27 28  1  0
 27 66  1  0
 27 67  1  0
 28 68  1  0
 29 35  1  0
 29 30  1  6
 30 31  1  0
 30 69  1  0
 30 70  1  0
 31 32  1  1
 31 35  1  0
 32 33  1  0
 32 34  1  0
 32 71  1  0
 33 72  1  0
 33 73  1  0
 33 74  1  0
 34 75  1  0
 34 76  1  0
 34 77  1  0
 35 78  1  1
M  END
>  <i_m_ct_stereo_status>  (124) 
1

>  <s_m_source_file>  (124) 
/var/tmp/pbs.5076255.sched01/tmp9d3cgwpa/0mc_8ktg4.sdf

>  <i_m_source_file_index>  (124) 
50

>  <i_lp_mmshare_version>  (124) 
48012

>  <i_f3d_flags>  (124) 
0

>  <s_epik_input>  (124) 
W0NAXTEyM1tDQEBIXTRbQ0BASF01W0NASF0oW0NIM10pW0NIMl1bQ0BAXTYoW0NIM10pW0NAQEhdKFtDSDJdNSlDNChbQ0gzXSkvW0NIXT1bQ0hdXEMoPU8pQyhbQ0gzXSkoW0NIM10pW0NIXTdbQ0BAXTEoW0NIMl1bT0hdKVtDQEhdNk44W0NASF0zW0NAQF0oW0NIMl0yKShbQ0hdKFtDSDNdKVtDSDNdKUMoPVtDSF04KVtDQEBIXTdbT0hd

>  <s_epik_cmdline>  (124) 
J2VwaWtfcHl0aG9uJywgJy1waHQnLCAnMi4wJywgJy1waCcsICc3LjAnLCAnLXRuJywgJzgnLCAnLW1hJywgJzIwMCcsICctaW1hZScsICc8aW5maWxlLm1hZT4nLCAnLW9tYWUnLCAnPG91dGZpbGUubWFlPic=

>  <r_epik_Ionization_Penalty>  (124) 
0.111388

>  <r_epik_Ionization_Penalty_Charging>  (124) 
0.0997846

>  <r_epik_Ionization_Penalty_Neutral>  (124) 
0.0116036

>  <r_epik_State_Penalty>  (124) 
0.121146

>  <r_epik_Charging_Adjusted_Penalty>  (124) 
0.22093

>  <i_epik_Tot_Q>  (124) 
0

>  <i_epik_Tot_abs_Q>  (124) 
0

>  <s_epik_Chemistry_Notes>  (124) 
This compound has an imine and may undergo hydrolysis.

>  <s_lp_Force_Field>  (124) 
OPLS3e

>  <r_lp_Energy>  (124) 
367.892

>  <b_lp_Chiralities_Consistent>  (124) 
1

>  <s_lp_Variant>  (124) 
31:0-1

>  <s_i_glide_gridfile>  (124) 
pfpi4k_grid

>  <i_i_glide_lignum>  (124) 
50

>  <i_i_glide_rotatable_bonds>  (124) 
4

>  <r_i_docking_score>  (124) 
-1.86058

>  <r_i_glide_ligand_efficiency>  (124) 
-0.0531594

>  <r_i_glide_ligand_efficiency_sa>  (124) 
-0.173888

>  <r_i_glide_ligand_efficiency_ln>  (124) 
-0.408438

>  <r_i_glide_gscore>  (124) 
-1.86058

>  <r_i_glide_lipo>  (124) 
-0.00621266

>  <r_i_glide_hbond>  (124) 
-0.144017

>  <r_i_glide_metal>  (124) 
-0

>  <r_i_glide_rewards>  (124) 
-0.152195

>  <r_i_glide_evdw>  (124) 
-20.162

>  <r_i_glide_ecoul>  (124) 
-4.18103

>  <r_i_glide_erotb>  (124) 
0.0887861

>  <r_i_glide_esite>  (124) 
-0.0116867

>  <r_i_glide_emodel>  (124) 
-26.2678

>  <r_i_glide_energy>  (124) 
-24.343

>  <r_i_glide_einternal>  (124) 
0.750192

>  <r_i_glide_intrahb_reward>  (124) 
-0

>  <i_i_glide_confnum>  (124) 
1

>  <i_i_glide_posenum>  (124) 
6

>  <r_i_glide_eff_state_penalty>  (124) 
0

>  <ligand_id>  (124) 
31

>  <original_smiles>  (124) 
CC1CC2(C)C3CC1C1C3(C)C=CC(=O)C(C)(C)C3C(O)C4=CN5C2C3(CO)C12CC4(C(C)C)C52

>  <smiles>  (124) 
[H]OC([H])([H])C12C3([H])N4C([H])=C5C([H])(O[H])C1([H])C(C([H])([H])[H])(C([H])([H])[H])C(=O)C([H])=C([H])C1(C([H])([H])[H])C6([H])C([H])([H])C([H])(C([H])(C([H])([H])[H])C([H])([H])C36C([H])([H])[H])C1([H])C21C([H])([H])C5(C([H])(C([H])([H])[H])C([H])([H])[H])C41[H]

$$$$
31:2:0
     RDKit          3D

 79 86  0  0  1  0  0  0  0  0999 V2000
   -2.0848    2.6346    3.1638 C   0  0  0  0  0  0  0  0  0  0  0  0
   -0.6118    2.3447    2.7747 C   0  0  2  0  0  0  0  0  0  0  0  0
   -0.1696    0.9088    2.4341 C   0  0  0  0  0  0  0  0  0  0  0  0
    1.2283    0.5038    3.0896 C   0  0  1  0  0  0  0  0  0  0  0  0
    1.7540   -0.5150    2.0428 C   0  0  0  0  0  0  0  0  0  0  0  0
    2.3522    1.7843    3.0698 C   0  0  1  0  0  0  0  0  0  0  0  0
    1.6563    2.8806    2.3099 C   0  0  0  0  0  0  0  0  0  0  0  0
    0.5725    3.1507    3.3833 C   0  0  2  0  0  0  0  0  0  0  0  0
    1.3349    2.8082    4.7932 C   0  0  2  0  0  0  0  0  0  0  0  0
    2.7660    2.7156    4.3350 C   0  0  2  0  0  0  0  0  0  0  0  0
    3.3506    4.1511    4.0859 C   0  0  0  0  0  0  0  0  0  0  0  0
    3.7936    2.2016    5.3499 C   0  0  0  0  0  0  0  0  0  0  0  0
    3.6322    2.2091    6.6917 C   0  0  0  0  0  0  0  0  0  0  0  0
    4.2299    1.1315    7.4803 C   0  0  0  0  0  0  0  0  0  0  0  0
    5.4418    1.1115    7.6862 O   0  0  0  0  0  0  0  0  0  0  0  0
    3.3128   -0.0308    8.0484 C   0  0  0  0  0  0  0  0  0  0  0  0
    4.2132   -1.2952    8.2260 C   0  0  0  0  0  0  0  0  0  0  0  0
    3.0727    0.4212    9.5188 C   0  0  0  0  0  0  0  0  0  0  0  0
    1.9926   -0.5083    7.1599 C   0  0  1  0  0  0  0  0  0  0  0  0
    0.6497   -0.8975    7.9395 C   0  0  1  0  0  0  0  0  0  0  0  0
    0.4531   -0.5374    9.2874 O   0  0  0  0  0  0  0  0  0  0  0  0
   -0.5268   -0.4076    7.1558 C   0  0  0  0  0  0  0  0  0  0  0  0
   -0.8221   -1.0749    6.0445 C   0  0  0  0  0  0  0  0  0  0  0  0
   -0.5070   -0.1372    4.9675 N   0  0  2  0  0  0  0  0  0  0  0  0
    0.8898   -0.3319    4.4535 C   0  0  2  0  0  0  0  0  0  0  0  0
    1.8157    0.1108    5.6381 C   0  0  2  0  0  0  0  0  0  0  0  0
    3.1734   -0.4514    4.9554 C   0  0  0  0  0  0  0  0  0  0  0  0
    3.1803   -1.8587    4.7482 O   0  0  0  0  0  0  0  0  0  0  0  0
    0.9968    1.5581    5.7249 C   0  0  1  0  0  0  0  0  0  0  0  0
    0.5155    1.9793    7.1422 C   0  0  0  0  0  0  0  0  0  0  0  0
   -0.7244    1.0932    7.0387 C   0  0  2  0  0  0  0  0  0  0  0  0
   -2.0535    1.6143    7.6587 C   0  0  0  0  0  0  0  0  0  0  0  0
   -2.7360    2.7085    6.8276 C   0  0  0  0  0  0  0  0  0  0  0  0
   -1.9017    2.1045    9.1134 C   0  0  0  0  0  0  0  0  0  0  0  0
   -0.4806    1.2093    5.5710 C   0  0  2  0  0  0  0  0  0  0  0  0
   -2.5809    1.7573    3.5765 H   0  0  0  0  0  0  0  0  0  0  0  0
   -2.6806    2.9413    2.3010 H   0  0  0  0  0  0  0  0  0  0  0  0
   -2.1582    3.4547    3.8801 H   0  0  0  0  0  0  0  0  0  0  0  0
   -0.7233    2.7485    1.7791 H   0  0  0  0  0  0  0  0  0  0  0  0
   -0.9748    0.2014    2.5938 H   0  0  0  0  0  0  0  0  0  0  0  0
   -0.0814    0.8807    1.3367 H   0  0  0  0  0  0  0  0  0  0  0  0
    2.7105   -0.9699    2.3038 H   0  0  0  0  0  0  0  0  0  0  0  0
    1.9072   -0.0279    1.0752 H   0  0  0  0  0  0  0  0  0  0  0  0
    1.0383   -1.3289    1.8869 H   0  0  0  0  0  0  0  0  0  0  0  0
    3.2507    1.5141    2.5129 H   0  0  0  0  0  0  0  0  0  0  0  0
    2.2508    3.7428    2.0240 H   0  0  0  0  0  0  0  0  0  0  0  0
    1.3421    2.5326    1.3270 H   0  0  0  0  0  0  0  0  0  0  0  0
    0.3221    4.2093    3.3498 H   0  0  0  0  0  0  0  0  0  0  0  0
    1.2385    3.7094    5.4027 H   0  0  0  0  0  0  0  0  0  0  0  0
    2.6298    4.8963    3.7396 H   0  0  0  0  0  0  0  0  0  0  0  0
    4.1400    4.0938    3.3718 H   0  0  0  0  0  0  0  0  0  0  0  0
    3.7676    4.5865    4.9948 H   0  0  0  0  0  0  0  0  0  0  0  0
    4.5894    1.6332    4.9023 H   0  0  0  0  0  0  0  0  0  0  0  0
    2.8502    2.7805    7.1570 H   0  0  0  0  0  0  0  0  0  0  0  0
    3.6921   -2.0804    8.7763 H   0  0  0  0  0  0  0  0  0  0  0  0
    5.1239   -1.0906    8.7898 H   0  0  0  0  0  0  0  0  0  0  0  0
    4.5251   -1.7269    7.2753 H   0  0  0  0  0  0  0  0  0  0  0  0
    2.7849   -0.4064   10.1676 H   0  0  0  0  0  0  0  0  0  0  0  0
    2.3388    1.2161    9.6265 H   0  0  0  0  0  0  0  0  0  0  0  0
    3.9880    0.8065    9.9730 H   0  0  0  0  0  0  0  0  0  0  0  0
    2.2635   -1.5371    6.9298 H   0  0  0  0  0  0  0  0  0  0  0  0
    0.5945   -1.9901    7.9708 H   0  0  0  0  0  0  0  0  0  0  0  0
    1.1778   -0.8672    9.8079 H   0  0  0  0  0  0  0  0  0  0  0  0
   -0.5330   -2.0952    5.8480 H   0  0  0  0  0  0  0  0  0  0  0  0
    0.9345   -1.4072    4.2388 H   0  0  0  0  0  0  0  0  0  0  0  0
    3.4880   -0.0398    4.0139 H   0  0  0  0  0  0  0  0  0  0  0  0
    4.0733   -0.3597    5.5400 H   0  0  0  0  0  0  0  0  0  0  0  0
    3.9996   -2.0926    4.3306 H   0  0  0  0  0  0  0  0  0  0  0  0
    1.1481    1.7549    7.9876 H   0  0  0  0  0  0  0  0  0  0  0  0
    0.2288    3.0287    7.1980 H   0  0  0  0  0  0  0  0  0  0  0  0
   -2.7816    0.8072    7.6537 H   0  0  0  0  0  0  0  0  0  0  0  0
   -2.1004    3.5863    6.7386 H   0  0  0  0  0  0  0  0  0  0  0  0
   -3.6795    3.0210    7.2829 H   0  0  0  0  0  0  0  0  0  0  0  0
   -2.9392    2.3466    5.8216 H   0  0  0  0  0  0  0  0  0  0  0  0
   -1.2552    2.9763    9.1765 H   0  0  0  0  0  0  0  0  0  0  0  0
   -1.4843    1.3480    9.7756 H   0  0  0  0  0  0  0  0  0  0  0  0
   -2.8664    2.4014    9.5257 H   0  0  0  0  0  0  0  0  0  0  0  0
   -1.0786    1.9924    5.1669 H   0  0  0  0  0  0  0  0  0  0  0  0
   -1.1751   -0.1748    4.2095 H   0  0  0  0  0  0  0  0  0  0  0  0
  1  2  1  0
  1 36  1  0
  1 37  1  0
  1 38  1  0
  2  8  1  0
  2  3  1  0
  2 39  1  6
  3  4  1  0
  3 40  1  0
  3 41  1  0
  4 25  1  0
  4  5  1  6
  4  6  1  0
  5 42  1  0
  5 43  1  0
  5 44  1  0
  6 10  1  0
  6  7  1  0
  6 45  1  6
  7  8  1  0
  7 46  1  0
  7 47  1  0
  8  9  1  0
  8 48  1  1
  9 29  1  0
  9 10  1  0
  9 49  1  1
 10 11  1  6
 10 12  1  0
 11 50  1  0
 11 51  1  0
 11 52  1  0
 12 13  2  3
 12 53  1  0
 13 14  1  0
 13 54  1  0
 14 15  2  0
 14 16  1  0
 16 17  1  0
 16 18  1  0
 16 19  1  0
 17 55  1  0
 17 56  1  0
 17 57  1  0
 18 58  1  0
 18 59  1  0
 18 60  1  0
 19 26  1  0
 19 20  1  0
 19 61  1  6
 20 21  1  0
 20 22  1  0
 20 62  1  1
 21 63  1  0
 22 31  1  0
 22 23  2  0
 23 24  1  0
 23 64  1  0
 24 35  1  0
 24 25  1  0
 24 79  1  6
 25 26  1  0
 25 65  1  6
 26 27  1  6
 26 29  1  0
 27 28  1  0
 27 66  1  0
 27 67  1  0
 28 68  1  0
 29 35  1  0
 29 30  1  1
 30 31  1  0
 30 69  1  0
 30 70  1  0
 31 32  1  6
 31 35  1  0
 32 33  1  0
 32 34  1  0
 32 71  1  0
 33 72  1  0
 33 73  1  0
 33 74  1  0
 34 75  1  0
 34 76  1  0
 34 77  1  0
 35 78  1  6
M  CHG  1  24   1
M  END
>  <i_m_ct_stereo_status>  (125) 
1

>  <s_m_source_file>  (125) 
/var/tmp/pbs.5076255.sched01/tmp5gbx45fw/500pp51iot.sdf

>  <i_m_source_file_index>  (125) 
2

>  <i_lp_mmshare_version>  (125) 
48012

>  <i_f3d_flags>  (125) 
0

>  <s_epik_input>  (125) 
W0NAXTEyM1tDQEBIXTRbQ0BASF01W0NASF0oW0NIM10pW0NIMl1bQ0BAXTYoW0NIM10pW0NAQEhdKFtDSDJdNSlDNChbQ0gzXSkvW0NIXT1bQ0hdXEMoPU8pQyhbQ0gzXSkoW0NIM10pW0NIXTdbQ0BAXTEoW0NIMl1bT0hdKVtDQEhdNk44W0NASF0zW0NAQF0oW0NIMl0yKShbQ0hdKFtDSDNdKVtDSDNdKUMoPVtDSF04KVtDQEBIXTdbT0hd

>  <s_epik_cmdline>  (125) 
J2VwaWtfcHl0aG9uJywgJy1waHQnLCAnMi4wJywgJy1waCcsICc3LjAnLCAnLXRuJywgJzgnLCAnLW1hJywgJzIwMCcsICctaW1hZScsICc8aW5maWxlLm1hZT4nLCAnLW9tYWUnLCAnPG91dGZpbGUubWFlPic=

>  <r_epik_Ionization_Penalty>  (125) 
0.906126

>  <r_epik_Ionization_Penalty_Charging>  (125) 
0.891445

>  <r_epik_Ionization_Penalty_Neutral>  (125) 
0.0146812

>  <r_epik_State_Penalty>  (125) 
1.75756

>  <r_epik_Charging_Adjusted_Penalty>  (125) 
2.649

>  <i_epik_Tot_Q>  (125) 
1

>  <i_epik_Tot_abs_Q>  (125) 
1

>  <s_lp_Force_Field>  (125) 
OPLS3e

>  <r_lp_Energy>  (125) 
321.781

>  <b_lp_Chiralities_Consistent>  (125) 
1

>  <s_lp_Variant>  (125) 
31:0-3

>  <s_i_glide_gridfile>  (125) 
pfpi4k_grid

>  <i_i_glide_lignum>  (125) 
2

>  <i_i_glide_rotatable_bonds>  (125) 
4

>  <r_i_docking_score>  (125) 
-1.3732

>  <r_i_glide_ligand_efficiency>  (125) 
-0.0392342

>  <r_i_glide_ligand_efficiency_sa>  (125) 
-0.128338

>  <r_i_glide_ligand_efficiency_ln>  (125) 
-0.301447

>  <r_i_glide_gscore>  (125) 
-1.3732

>  <r_i_glide_lipo>  (125) 
-0.183964

>  <r_i_glide_hbond>  (125) 
0

>  <r_i_glide_metal>  (125) 
-0

>  <r_i_glide_rewards>  (125) 
-0.145323

>  <r_i_glide_evdw>  (125) 
-13.3086

>  <r_i_glide_ecoul>  (125) 
-2.9683

>  <r_i_glide_erotb>  (125) 
0.0884448

>  <r_i_glide_esite>  (125) 
-0.0216777

>  <r_i_glide_emodel>  (125) 
-12.3538

>  <r_i_glide_energy>  (125) 
-16.2769

>  <r_i_glide_einternal>  (125) 
7.67022

>  <r_i_glide_intrahb_reward>  (125) 
-0

>  <i_i_glide_confnum>  (125) 
1

>  <i_i_glide_posenum>  (125) 
26

>  <r_i_glide_eff_state_penalty>  (125) 
0

>  <ligand_id>  (125) 
31

>  <original_smiles>  (125) 
CC1CC2(C)C3CC1C1C3(C)C=CC(=O)C(C)(C)C3C(O)C4=CN5C2C3(CO)C12CC4(C(C)C)C52

>  <smiles>  (125) 
[H]OC([H])([H])C12C3([H])C([H])(O[H])C4=C([H])[N+]5([H])C6([H])C4(C([H])(C([H])([H])[H])C([H])([H])[H])C([H])([H])C16C1([H])C4([H])C([H])([H])C([H])(C1(C([H])([H])[H])C([H])=C([H])C(=O)C3(C([H])([H])[H])C([H])([H])[H])C(C([H])([H])[H])(C([H])([H])C4([H])C([H])([H])[H])C25[H]

$$$$
32:0:0
     RDKit          3D

 15 15  0  0  1  0  0  0  0  0999 V2000
    3.8215    1.2440   -4.8461 C   0  0  0  0  0  0  0  0  0  0  0  0
    2.8704   -0.2599   -4.6689 S   0  0  0  0  0  0  0  0  0  0  0  0
    3.8263   -1.3839   -3.6951 C   0  0  0  0  0  0  0  0  0  0  0  0
    4.5878   -0.9537   -2.5910 C   0  0  0  0  0  0  0  0  0  0  0  0
    5.3947   -1.8459   -1.9322 N   0  0  0  0  0  0  0  0  0  0  0  0
    6.1711   -1.4699   -0.9772 O   0  0  0  0  0  0  0  0  0  0  0  0
    5.3874   -3.1479   -2.3499 C   0  0  0  0  0  0  0  0  0  0  0  0
    4.5808   -3.5255   -3.4444 C   0  0  0  0  0  0  0  0  0  0  0  0
    3.8118   -2.6575   -4.1238 N   0  0  0  0  0  0  0  0  0  0  0  0
    3.2485    2.0002   -5.3728 H   0  0  0  0  0  0  0  0  0  0  0  0
    4.6808    0.9497   -5.4433 H   0  0  0  0  0  0  0  0  0  0  0  0
    4.1601    1.6296   -3.8881 H   0  0  0  0  0  0  0  0  0  0  0  0
    4.6385    0.0665   -2.2407 H   0  0  0  0  0  0  0  0  0  0  0  0
    6.0303   -3.8147   -1.8002 H   0  0  0  0  0  0  0  0  0  0  0  0
    4.5665   -4.5553   -3.7779 H   0  0  0  0  0  0  0  0  0  0  0  0
  1  2  1  0
  1 10  1  0
  1 11  1  0
  1 12  1  0
  2  3  1  0
  3  9  2  0
  3  4  1  0
  4  5  2  0
  4 13  1  0
  5  6  1  0
  5  7  1  0
  7  8  2  0
  7 14  1  0
  8  9  1  0
  8 15  1  0
M  CHG  2   5   1   6  -1
M  END
>  <i_m_ct_stereo_status>  (126) 
1

>  <s_m_source_file>  (126) 
/var/tmp/pbs.5076255.sched01/tmp5gbx45fw/500pp51iot.sdf

>  <i_m_source_file_index>  (126) 
3

>  <i_lp_mmshare_version>  (126) 
48012

>  <i_f3d_flags>  (126) 
0

>  <s_epik_input>  (126) 
W0NIM11TYzFbY0hdW24rXShbTy1dKVtjSF1bY0hdbjE=

>  <s_epik_cmdline>  (126) 
J2VwaWtfcHl0aG9uJywgJy1waHQnLCAnMi4wJywgJy1waCcsICc3LjAnLCAnLXRuJywgJzgnLCAnLW1hJywgJzIwMCcsICctaW1hZScsICc8aW5maWxlLm1hZT4nLCAnLW9tYWUnLCAnPG91dGZpbGUubWFlPic=

>  <r_lp_tautomer_probability>  (126) 
1

>  <r_epik_Ionization_Penalty>  (126) 
8.22589e-05

>  <r_epik_Ionization_Penalty_Charging>  (126) 
4.78716e-07

>  <r_epik_Ionization_Penalty_Neutral>  (126) 
8.17802e-05

>  <r_epik_State_Penalty>  (126) 
-0

>  <r_epik_Charging_Adjusted_Penalty>  (126) 
4.78716e-07

>  <i_epik_Tot_Q>  (126) 
0

>  <i_epik_Tot_abs_Q>  (126) 
2

>  <s_lp_Force_Field>  (126) 
OPLS3e

>  <r_lp_Energy>  (126) 
8.19062

>  <b_lp_Chiralities_Consistent>  (126) 
1

>  <s_lp_Variant>  (126) 
32:0-1

>  <s_i_glide_gridfile>  (126) 
pfpi4k_grid

>  <i_i_glide_lignum>  (126) 
3

>  <i_i_glide_rotatable_bonds>  (126) 
1

>  <r_i_docking_score>  (126) 
-5.66571

>  <r_i_glide_ligand_efficiency>  (126) 
-0.629523

>  <r_i_glide_ligand_efficiency_sa>  (126) 
-1.30946

>  <r_i_glide_ligand_efficiency_ln>  (126) 
-1.77207

>  <r_i_glide_gscore>  (126) 
-5.66571

>  <r_i_glide_lipo>  (126) 
-0.75472

>  <r_i_glide_hbond>  (126) 
-0.439912

>  <r_i_glide_metal>  (126) 
-0

>  <r_i_glide_rewards>  (126) 
-2.55

>  <r_i_glide_evdw>  (126) 
-16.7269

>  <r_i_glide_ecoul>  (126) 
-7.01442

>  <r_i_glide_erotb>  (126) 
0

>  <r_i_glide_esite>  (126) 
-0.0325671

>  <r_i_glide_emodel>  (126) 
-31.4928

>  <r_i_glide_energy>  (126) 
-23.7413

>  <r_i_glide_einternal>  (126) 
0.72736

>  <r_i_glide_intrahb_reward>  (126) 
-0

>  <i_i_glide_confnum>  (126) 
1

>  <i_i_glide_posenum>  (126) 
9

>  <r_i_glide_eff_state_penalty>  (126) 
0

>  <ligand_id>  (126) 
32

>  <original_smiles>  (126) 
CSc1c[n+]([O-])ccn1

>  <smiles>  (126) 
[H]c1nc(SC([H])([H])[H])c([H])[n+]([O-])c1[H]

$$$$
32:0:1
     RDKit          3D

 15 15  0  0  1  0  0  0  0  0999 V2000
    2.0785    0.6218   -5.1218 C   0  0  0  0  0  0  0  0  0  0  0  0
    3.7962    0.2279   -4.7204 S   0  0  0  0  0  0  0  0  0  0  0  0
    3.7080   -1.0434   -3.5111 C   0  0  0  0  0  0  0  0  0  0  0  0
    4.4958   -0.9817   -2.3514 C   0  0  0  0  0  0  0  0  0  0  0  0
    4.4276   -1.9925   -1.4375 N   0  0  0  0  0  0  0  0  0  0  0  0
    5.1646   -1.9753   -0.3806 O   0  0  0  0  0  0  0  0  0  0  0  0
    3.5618   -3.0271   -1.6864 C   0  0  0  0  0  0  0  0  0  0  0  0
    2.7967   -3.0301   -2.8692 C   0  0  0  0  0  0  0  0  0  0  0  0
    2.8761   -2.0569   -3.7940 N   0  0  0  0  0  0  0  0  0  0  0  0
    2.0564    1.4239   -5.8618 H   0  0  0  0  0  0  0  0  0  0  0  0
    1.5134    0.9437   -4.2556 H   0  0  0  0  0  0  0  0  0  0  0  0
    1.5795   -0.2550   -5.5215 H   0  0  0  0  0  0  0  0  0  0  0  0
    5.1855   -0.1897   -2.1107 H   0  0  0  0  0  0  0  0  0  0  0  0
    3.5347   -3.8002   -0.9373 H   0  0  0  0  0  0  0  0  0  0  0  0
    2.1100   -3.8366   -3.0849 H   0  0  0  0  0  0  0  0  0  0  0  0
  1  2  1  0
  1 10  1  0
  1 11  1  0
  1 12  1  0
  2  3  1  0
  3  9  2  0
  3  4  1  0
  4  5  2  0
  4 13  1  0
  5  6  1  0
  5  7  1  0
  7  8  2  0
  7 14  1  0
  8  9  1  0
  8 15  1  0
M  CHG  2   5   1   6  -1
M  END
>  <i_m_ct_stereo_status>  (127) 
1

>  <s_m_source_file>  (127) 
/var/tmp/pbs.5076255.sched01/tmp5gbx45fw/500pp51iot.sdf

>  <i_m_source_file_index>  (127) 
3

>  <i_lp_mmshare_version>  (127) 
48012

>  <i_f3d_flags>  (127) 
0

>  <s_epik_input>  (127) 
W0NIM11TYzFbY0hdW24rXShbTy1dKVtjSF1bY0hdbjE=

>  <s_epik_cmdline>  (127) 
J2VwaWtfcHl0aG9uJywgJy1waHQnLCAnMi4wJywgJy1waCcsICc3LjAnLCAnLXRuJywgJzgnLCAnLW1hJywgJzIwMCcsICctaW1hZScsICc8aW5maWxlLm1hZT4nLCAnLW9tYWUnLCAnPG91dGZpbGUubWFlPic=

>  <r_lp_tautomer_probability>  (127) 
1

>  <r_epik_Ionization_Penalty>  (127) 
8.22589e-05

>  <r_epik_Ionization_Penalty_Charging>  (127) 
4.78716e-07

>  <r_epik_Ionization_Penalty_Neutral>  (127) 
8.17802e-05

>  <r_epik_State_Penalty>  (127) 
-0

>  <r_epik_Charging_Adjusted_Penalty>  (127) 
4.78716e-07

>  <i_epik_Tot_Q>  (127) 
0

>  <i_epik_Tot_abs_Q>  (127) 
2

>  <s_lp_Force_Field>  (127) 
OPLS3e

>  <r_lp_Energy>  (127) 
8.19062

>  <b_lp_Chiralities_Consistent>  (127) 
1

>  <s_lp_Variant>  (127) 
32:0-1

>  <s_i_glide_gridfile>  (127) 
pfpi4k_grid

>  <i_i_glide_lignum>  (127) 
3

>  <i_i_glide_rotatable_bonds>  (127) 
1

>  <r_i_docking_score>  (127) 
-4.54876

>  <r_i_glide_ligand_efficiency>  (127) 
-0.505418

>  <r_i_glide_ligand_efficiency_sa>  (127) 
-1.05131

>  <r_i_glide_ligand_efficiency_ln>  (127) 
-1.42272

>  <r_i_glide_gscore>  (127) 
-4.54876

>  <r_i_glide_lipo>  (127) 
-0.420819

>  <r_i_glide_hbond>  (127) 
0

>  <r_i_glide_metal>  (127) 
-0

>  <r_i_glide_rewards>  (127) 
-2.55

>  <r_i_glide_evdw>  (127) 
-17.8609

>  <r_i_glide_ecoul>  (127) 
-4.35573

>  <r_i_glide_erotb>  (127) 
0

>  <r_i_glide_esite>  (127) 
-0.0315391

>  <r_i_glide_emodel>  (127) 
-28.4204

>  <r_i_glide_energy>  (127) 
-22.2166

>  <r_i_glide_einternal>  (127) 
0.642465

>  <r_i_glide_intrahb_reward>  (127) 
-0

>  <i_i_glide_confnum>  (127) 
2

>  <i_i_glide_posenum>  (127) 
27

>  <r_i_glide_eff_state_penalty>  (127) 
0

>  <ligand_id>  (127) 
32

>  <original_smiles>  (127) 
CSc1c[n+]([O-])ccn1

>  <smiles>  (127) 
[H]c1nc(SC([H])([H])[H])c([H])[n+]([O-])c1[H]

$$$$
32:0:2
     RDKit          3D

 15 15  0  0  1  0  0  0  0  0999 V2000
    3.4463   -0.1682   -4.2758 C   0  0  0  0  0  0  0  0  0  0  0  0
    3.8139   -1.9014   -3.9116 S   0  0  0  0  0  0  0  0  0  0  0  0
    3.8163   -2.0288   -2.1563 C   0  0  0  0  0  0  0  0  0  0  0  0
    3.1403   -3.0809   -1.5083 C   0  0  0  0  0  0  0  0  0  0  0  0
    3.1685   -3.1591   -0.1437 N   0  0  0  0  0  0  0  0  0  0  0  0
    2.5849   -4.1230    0.4774 O   0  0  0  0  0  0  0  0  0  0  0  0
    3.8455   -2.1901    0.5464 C   0  0  0  0  0  0  0  0  0  0  0  0
    4.5089   -1.1614   -0.1596 C   0  0  0  0  0  0  0  0  0  0  0  0
    4.5143   -1.0788   -1.5049 N   0  0  0  0  0  0  0  0  0  0  0  0
    3.3968   -0.0161   -5.3542 H   0  0  0  0  0  0  0  0  0  0  0  0
    4.2101    0.4858   -3.8560 H   0  0  0  0  0  0  0  0  0  0  0  0
    2.4864    0.1039   -3.8399 H   0  0  0  0  0  0  0  0  0  0  0  0
    2.5917   -3.8626   -2.0119 H   0  0  0  0  0  0  0  0  0  0  0  0
    3.8310   -2.2927    1.6229 H   0  0  0  0  0  0  0  0  0  0  0  0
    5.0494   -0.3907    0.3701 H   0  0  0  0  0  0  0  0  0  0  0  0
  1  2  1  0
  1 10  1  0
  1 11  1  0
  1 12  1  0
  2  3  1  0
  3  9  2  0
  3  4  1  0
  4  5  2  0
  4 13  1  0
  5  6  1  0
  5  7  1  0
  7  8  2  0
  7 14  1  0
  8  9  1  0
  8 15  1  0
M  CHG  2   5   1   6  -1
M  END
>  <i_m_ct_stereo_status>  (128) 
1

>  <s_m_source_file>  (128) 
/var/tmp/pbs.5076255.sched01/tmp5gbx45fw/500pp51iot.sdf

>  <i_m_source_file_index>  (128) 
3

>  <i_lp_mmshare_version>  (128) 
48012

>  <i_f3d_flags>  (128) 
0

>  <s_epik_input>  (128) 
W0NIM11TYzFbY0hdW24rXShbTy1dKVtjSF1bY0hdbjE=

>  <s_epik_cmdline>  (128) 
J2VwaWtfcHl0aG9uJywgJy1waHQnLCAnMi4wJywgJy1waCcsICc3LjAnLCAnLXRuJywgJzgnLCAnLW1hJywgJzIwMCcsICctaW1hZScsICc8aW5maWxlLm1hZT4nLCAnLW9tYWUnLCAnPG91dGZpbGUubWFlPic=

>  <r_lp_tautomer_probability>  (128) 
1

>  <r_epik_Ionization_Penalty>  (128) 
8.22589e-05

>  <r_epik_Ionization_Penalty_Charging>  (128) 
4.78716e-07

>  <r_epik_Ionization_Penalty_Neutral>  (128) 
8.17802e-05

>  <r_epik_State_Penalty>  (128) 
-0

>  <r_epik_Charging_Adjusted_Penalty>  (128) 
4.78716e-07

>  <i_epik_Tot_Q>  (128) 
0

>  <i_epik_Tot_abs_Q>  (128) 
2

>  <s_lp_Force_Field>  (128) 
OPLS3e

>  <r_lp_Energy>  (128) 
8.19062

>  <b_lp_Chiralities_Consistent>  (128) 
1

>  <s_lp_Variant>  (128) 
32:0-1

>  <s_i_glide_gridfile>  (128) 
pfpi4k_grid

>  <i_i_glide_lignum>  (128) 
3

>  <i_i_glide_rotatable_bonds>  (128) 
1

>  <r_i_docking_score>  (128) 
-4.36429

>  <r_i_glide_ligand_efficiency>  (128) 
-0.484921

>  <r_i_glide_ligand_efficiency_sa>  (128) 
-1.00868

>  <r_i_glide_ligand_efficiency_ln>  (128) 
-1.36502

>  <r_i_glide_gscore>  (128) 
-4.36429

>  <r_i_glide_lipo>  (128) 
-0.342596

>  <r_i_glide_hbond>  (128) 
0

>  <r_i_glide_metal>  (128) 
-0

>  <r_i_glide_rewards>  (128) 
-2.55

>  <r_i_glide_evdw>  (128) 
-16.571

>  <r_i_glide_ecoul>  (128) 
-4.24617

>  <r_i_glide_erotb>  (128) 
0

>  <r_i_glide_esite>  (128) 
-0.00621585

>  <r_i_glide_emodel>  (128) 
-26.724

>  <r_i_glide_energy>  (128) 
-20.8172

>  <r_i_glide_einternal>  (128) 
0.685349

>  <r_i_glide_intrahb_reward>  (128) 
-0

>  <i_i_glide_confnum>  (128) 
1

>  <i_i_glide_posenum>  (128) 
21

>  <r_i_glide_eff_state_penalty>  (128) 
0

>  <ligand_id>  (128) 
32

>  <original_smiles>  (128) 
CSc1c[n+]([O-])ccn1

>  <smiles>  (128) 
[H]c1nc(SC([H])([H])[H])c([H])[n+]([O-])c1[H]

$$$$
33:0:0
     RDKit          3D

 69 73  0  0  1  0  0  0  0  0999 V2000
    2.4855   -3.4973    4.9920 C   0  0  0  0  0  0  0  0  0  0  0  0
    1.1699   -3.2831    5.5859 N   0  0  0  0  0  0  0  0  0  0  0  0
    0.5687   -3.9688    6.5799 C   0  0  0  0  0  0  0  0  0  0  0  0
    1.3035   -5.3485    7.4259 S   0  0  0  0  0  0  0  0  0  0  0  0
   -0.0375   -6.5593    7.2505 C   0  0  0  0  0  0  0  0  0  0  0  0
    0.1611   -7.4298    6.0027 C   0  0  0  0  0  0  0  0  0  0  0  0
    0.0912   -8.9656    6.2308 C   0  0  0  0  0  0  0  0  0  0  0  0
    0.3528   -9.7708    4.9944 N   0  0  2  0  0  0  0  0  0  0  0  0
    1.6769  -10.4335    4.9739 C   0  0  0  0  0  0  0  0  0  0  0  0
    1.9185  -10.8165    3.4972 C   0  0  2  0  0  0  0  0  0  0  0  0
    3.3269  -10.4910    2.9750 C   0  0  0  0  0  0  0  0  0  0  0  0
    3.2099   -9.1494    2.4168 N   0  0  0  0  0  0  0  0  0  0  0  0
    4.2917   -8.8231    1.4893 C   0  0  0  0  0  0  0  0  0  0  0  0
    5.6089   -8.5377    2.2527 C   0  0  0  0  0  0  0  0  0  0  0  0
    6.4826   -7.6975    1.5043 O   0  0  0  0  0  0  0  0  0  0  0  0
    6.1827   -6.3575    1.3834 C   0  0  0  0  0  0  0  0  0  0  0  0
    7.1586   -5.5469    0.7709 C   0  0  0  0  0  0  0  0  0  0  0  0
    6.9207   -4.1783    0.5593 C   0  0  0  0  0  0  0  0  0  0  0  0
    5.6977   -3.6155    0.9622 C   0  0  0  0  0  0  0  0  0  0  0  0
    5.3661   -1.8798    0.7059 S   0  0  0  0  0  0  0  0  0  0  0  0
    3.7536   -1.8580   -0.1856 C   0  0  0  0  0  0  0  0  0  0  0  0
    5.1667   -1.2663    2.0226 O   0  0  0  0  0  0  0  0  0  0  0  0
    6.3926   -1.3520   -0.2081 O   0  0  0  0  0  0  0  0  0  0  0  0
    4.7206   -4.4101    1.5872 C   0  0  0  0  0  0  0  0  0  0  0  0
    4.9658   -5.7697    1.8099 C   0  0  0  0  0  0  0  0  0  0  0  0
    1.9191   -9.1478    1.7423 C   0  0  0  0  0  0  0  0  0  0  0  0
    0.9818   -9.9379    2.6690 C   0  0  2  0  0  0  0  0  0  0  0  0
    0.2367   -9.0632    3.6888 C   0  0  0  0  0  0  0  0  0  0  0  0
   -0.6311   -3.4689    6.9077 N   0  0  0  0  0  0  0  0  0  0  0  0
   -0.8383   -2.4011    6.0700 N   0  0  0  0  0  0  0  0  0  0  0  0
    0.2545   -2.3297    5.2896 C   0  0  0  0  0  0  0  0  0  0  0  0
    0.3874   -1.3041    4.2635 C   0  0  0  0  0  0  0  0  0  0  0  0
   -0.2314   -0.0960    4.0892 C   0  0  0  0  0  0  0  0  0  0  0  0
    0.2566    0.4960    2.9349 N   0  0  0  0  0  0  0  0  0  0  0  0
    1.1419   -0.3795    2.4722 C   0  0  0  0  0  0  0  0  0  0  0  0
    1.2679   -1.5026    3.2318 O   0  0  0  0  0  0  0  0  0  0  0  0
    3.1132   -4.1248    5.6223 H   0  0  0  0  0  0  0  0  0  0  0  0
    2.9996   -2.5469    4.8606 H   0  0  0  0  0  0  0  0  0  0  0  0
    2.3804   -3.9751    4.0214 H   0  0  0  0  0  0  0  0  0  0  0  0
   -0.0877   -7.1724    8.1496 H   0  0  0  0  0  0  0  0  0  0  0  0
   -0.9945   -6.0407    7.1818 H   0  0  0  0  0  0  0  0  0  0  0  0
   -0.6007   -7.1360    5.2703 H   0  0  0  0  0  0  0  0  0  0  0  0
    1.1364   -7.1963    5.5532 H   0  0  0  0  0  0  0  0  0  0  0  0
    0.7955   -9.2573    7.0218 H   0  0  0  0  0  0  0  0  0  0  0  0
   -0.9008   -9.2423    6.6022 H   0  0  0  0  0  0  0  0  0  0  0  0
    2.4353   -9.7166    5.3094 H   0  0  0  0  0  0  0  0  0  0  0  0
    1.7110  -11.3022    5.6407 H   0  0  0  0  0  0  0  0  0  0  0  0
    1.6765  -11.8717    3.3424 H   0  0  0  0  0  0  0  0  0  0  0  0
    4.1018  -10.5654    3.7350 H   0  0  0  0  0  0  0  0  0  0  0  0
    3.5707  -11.1852    2.1763 H   0  0  0  0  0  0  0  0  0  0  0  0
    4.4372   -9.6014    0.7365 H   0  0  0  0  0  0  0  0  0  0  0  0
    3.9784   -7.9351    0.9385 H   0  0  0  0  0  0  0  0  0  0  0  0
    5.4434   -8.0976    3.2399 H   0  0  0  0  0  0  0  0  0  0  0  0
    6.1237   -9.4860    2.4377 H   0  0  0  0  0  0  0  0  0  0  0  0
    8.0935   -5.9817    0.4462 H   0  0  0  0  0  0  0  0  0  0  0  0
    7.6717   -3.5606    0.0955 H   0  0  0  0  0  0  0  0  0  0  0  0
    3.4687   -0.8211   -0.3843 H   0  0  0  0  0  0  0  0  0  0  0  0
    2.9841   -2.3242    0.4343 H   0  0  0  0  0  0  0  0  0  0  0  0
    3.8551   -2.4043   -1.1257 H   0  0  0  0  0  0  0  0  0  0  0  0
    3.7830   -3.9823    1.8927 H   0  0  0  0  0  0  0  0  0  0  0  0
    4.1918   -6.3440    2.2942 H   0  0  0  0  0  0  0  0  0  0  0  0
    1.5734   -8.1385    1.5285 H   0  0  0  0  0  0  0  0  0  0  0  0
    2.0156   -9.6743    0.7983 H   0  0  0  0  0  0  0  0  0  0  0  0
    0.2673  -10.5390    2.0971 H   0  0  0  0  0  0  0  0  0  0  0  0
   -0.8141   -8.8932    3.4214 H   0  0  0  0  0  0  0  0  0  0  0  0
    0.7623   -8.1014    3.7204 H   0  0  0  0  0  0  0  0  0  0  0  0
   -0.9740    0.3950    4.6960 H   0  0  0  0  0  0  0  0  0  0  0  0
    1.7098   -0.2450    1.5715 H   0  0  0  0  0  0  0  0  0  0  0  0
   -0.3522  -10.5079    4.9961 H   0  0  0  0  0  0  0  0  0  0  0  0
  1  2  1  0
  1 37  1  0
  1 38  1  0
  1 39  1  0
  2 31  1  0
  2  3  1  0
  3  4  1  0
  3 29  2  0
  4  5  1  0
  5  6  1  0
  5 40  1  0
  5 41  1  0
  6  7  1  0
  6 42  1  0
  6 43  1  0
  7  8  1  0
  7 44  1  0
  7 45  1  0
  8 28  1  0
  8  9  1  0
  8 69  1  6
  9 10  1  0
  9 46  1  0
  9 47  1  0
 10 27  1  0
 10 11  1  0
 10 48  1  1
 11 12  1  0
 11 49  1  0
 11 50  1  0
 12 13  1  0
 12 26  1  0
 13 14  1  0
 13 51  1  0
 13 52  1  0
 14 15  1  0
 14 53  1  0
 14 54  1  0
 15 16  1  0
 16 25  1  0
 16 17  2  0
 17 18  1  0
 17 55  1  0
 18 19  2  0
 18 56  1  0
 19 20  1  0
 19 24  1  0
 20 21  1  0
 20 22  2  0
 20 23  2  0
 21 57  1  0
 21 58  1  0
 21 59  1  0
 24 25  2  0
 24 60  1  0
 25 61  1  0
 26 27  1  0
 26 62  1  0
 26 63  1  0
 27 28  1  0
 27 64  1  6
 28 65  1  0
 28 66  1  0
 29 30  1  0
 30 31  2  0
 31 32  1  0
 32 36  1  0
 32 33  2  0
 33 34  1  0
 33 67  1  0
 34 35  2  0
 35 36  1  0
 35 68  1  0
M  CHG  1   8   1
M  END
>  <i_m_ct_stereo_status>  (129) 
1

>  <s_m_source_file>  (129) 
/var/tmp/pbs.5076255.sched01/tmp5gbx45fw/500pp51iot.sdf

>  <i_m_source_file_index>  (129) 
4

>  <i_lp_mmshare_version>  (129) 
48012

>  <i_f3d_flags>  (129) 
0

>  <s_epik_input>  (129) 
bzFbY0hdbltjSF1jMS1jMm5uYyhuMltDSDNdKVNbQ0gyXVtDSDJdW0NIMl1OKFtDSDJdMylbQ0gyXVtDQEhdKFtDQEhdMzQpW0NIMl1OKFtDSDJdNClbQ0gyXVtDSDJdT2M1W2NIXVtjSF1jKFMoPU8pKD1PKVtDSDNdKVtjSF1bY0hdNQ==

>  <s_epik_cmdline>  (129) 
J2VwaWtfcHl0aG9uJywgJy1waHQnLCAnMi4wJywgJy1waCcsICc3LjAnLCAnLXRuJywgJzgnLCAnLW1hJywgJzIwMCcsICctaW1hZScsICc8aW5maWxlLm1hZT4nLCAnLW9tYWUnLCAnPG91dGZpbGUubWFlPic=

>  <r_lp_tautomer_probability>  (129) 
1

>  <r_epik_Ionization_Penalty>  (129) 
0.198605

>  <r_epik_Ionization_Penalty_Charging>  (129) 
0.00328734

>  <r_epik_Ionization_Penalty_Neutral>  (129) 
0.195318

>  <r_epik_State_Penalty>  (129) 
0.232104

>  <r_epik_Charging_Adjusted_Penalty>  (129) 
0.235391

>  <i_epik_Tot_Q>  (129) 
1

>  <i_epik_Tot_abs_Q>  (129) 
1

>  <s_lp_Force_Field>  (129) 
OPLS3e

>  <r_lp_Energy>  (129) 
10.2545

>  <b_lp_Chiralities_Consistent>  (129) 
1

>  <s_lp_Variant>  (129) 
33:0-1

>  <s_i_glide_gridfile>  (129) 
pfpi4k_grid

>  <i_i_glide_lignum>  (129) 
4

>  <i_i_glide_rotatable_bonds>  (129) 
11

>  <r_i_docking_score>  (129) 
-3.59083

>  <r_i_glide_ligand_efficiency>  (129) 
-0.0997453

>  <r_i_glide_ligand_efficiency_sa>  (129) 
-0.329352

>  <r_i_glide_ligand_efficiency_ln>  (129) 
-0.783422

>  <r_i_glide_gscore>  (129) 
-3.59083

>  <r_i_glide_lipo>  (129) 
-0.712863

>  <r_i_glide_hbond>  (129) 
-0.2

>  <r_i_glide_metal>  (129) 
-0

>  <r_i_glide_rewards>  (129) 
-0.0889064

>  <r_i_glide_evdw>  (129) 
-33.6115

>  <r_i_glide_ecoul>  (129) 
-9.44019

>  <r_i_glide_erotb>  (129) 
0.72444

>  <r_i_glide_esite>  (129) 
-0.2169

>  <r_i_glide_emodel>  (129) 
-46.8205

>  <r_i_glide_energy>  (129) 
-43.0517

>  <r_i_glide_einternal>  (129) 
16.1542

>  <r_i_glide_intrahb_reward>  (129) 
-0

>  <i_i_glide_confnum>  (129) 
4

>  <i_i_glide_posenum>  (129) 
11

>  <r_i_glide_eff_state_penalty>  (129) 
0

>  <ligand_id>  (129) 
33

>  <original_smiles>  (129) 
Cn1c(SCCCN2CC3CN(CCOc4ccc(S(C)(=O)=O)cc4)CC3C2)nnc1-c1cnco1

>  <smiles>  (129) 
[H]c1nc([H])c(-c2nnc(SC([H])([H])C([H])([H])C([H])([H])[N+]3([H])C([H])([H])C4([H])C([H])([H])N(C([H])([H])C([H])([H])Oc5c([H])c([H])c(S(=O)(=O)C([H])([H])[H])c([H])c5[H])C([H])([H])C4([H])C3([H])[H])n2C([H])([H])[H])o1

$$$$
33:0:1
     RDKit          3D

 69 73  0  0  1  0  0  0  0  0999 V2000
    3.2793   -5.1766    0.1642 C   0  0  0  0  0  0  0  0  0  0  0  0
    4.6446   -5.4862    0.5742 N   0  0  0  0  0  0  0  0  0  0  0  0
    5.1731   -6.6654    0.9563 C   0  0  0  0  0  0  0  0  0  0  0  0
    4.2188   -8.1493    1.0655 S   0  0  0  0  0  0  0  0  0  0  0  0
    4.9792   -8.9165    2.5269 C   0  0  0  0  0  0  0  0  0  0  0  0
    4.9078   -8.0262    3.7876 C   0  0  0  0  0  0  0  0  0  0  0  0
    3.4687   -7.6604    4.2089 C   0  0  0  0  0  0  0  0  0  0  0  0
    3.4350   -6.9014    5.4863 N   0  0  2  0  0  0  0  0  0  0  0  0
    2.0750   -6.7178    6.0321 C   0  0  0  0  0  0  0  0  0  0  0  0
    2.1922   -5.5722    7.0536 C   0  0  2  0  0  0  0  0  0  0  0  0
    1.0728   -4.5243    6.9978 C   0  0  0  0  0  0  0  0  0  0  0  0
    1.5845   -3.5092    6.0775 N   0  0  0  0  0  0  0  0  0  0  0  0
    0.8809   -2.2299    6.1689 C   0  0  0  0  0  0  0  0  0  0  0  0
   -0.5371   -2.2997    5.5587 C   0  0  0  0  0  0  0  0  0  0  0  0
   -1.3413   -1.2344    6.0625 O   0  0  0  0  0  0  0  0  0  0  0  0
   -1.1403    0.0427    5.5861 C   0  0  0  0  0  0  0  0  0  0  0  0
   -1.4725    1.1119    6.4482 C   0  0  0  0  0  0  0  0  0  0  0  0
   -1.2958    2.4458    6.0375 C   0  0  0  0  0  0  0  0  0  0  0  0
   -0.7965    2.7158    4.7497 C   0  0  0  0  0  0  0  0  0  0  0  0
   -0.5626    4.4059    4.2200 S   0  0  0  0  0  0  0  0  0  0  0  0
    1.0556    4.3845    3.3348 C   0  0  0  0  0  0  0  0  0  0  0  0
   -1.6450    4.7390    3.2814 O   0  0  0  0  0  0  0  0  0  0  0  0
   -0.4013    5.2401    5.4207 O   0  0  0  0  0  0  0  0  0  0  0  0
   -0.4899    1.6596    3.8691 C   0  0  0  0  0  0  0  0  0  0  0  0
   -0.6471    0.3284    4.2886 C   0  0  0  0  0  0  0  0  0  0  0  0
    2.9939   -3.3706    6.4287 C   0  0  0  0  0  0  0  0  0  0  0  0
    3.4577   -4.8126    6.6720 C   0  0  2  0  0  0  0  0  0  0  0  0
    4.0223   -5.5441    5.4400 C   0  0  0  0  0  0  0  0  0  0  0  0
    6.4696   -6.5943    1.2786 N   0  0  0  0  0  0  0  0  0  0  0  0
    6.8177   -5.2795    1.1135 N   0  0  0  0  0  0  0  0  0  0  0  0
    5.7106   -4.6534    0.6941 C   0  0  0  0  0  0  0  0  0  0  0  0
    5.7132   -3.2215    0.4177 C   0  0  0  0  0  0  0  0  0  0  0  0
    6.7224   -2.2923    0.4294 C   0  0  0  0  0  0  0  0  0  0  0  0
    6.1886   -1.0643    0.0526 N   0  0  0  0  0  0  0  0  0  0  0  0
    4.8934   -1.3044   -0.1409 C   0  0  0  0  0  0  0  0  0  0  0  0
    4.5405   -2.6003    0.0680 O   0  0  0  0  0  0  0  0  0  0  0  0
    2.7230   -6.0751   -0.0950 H   0  0  0  0  0  0  0  0  0  0  0  0
    3.2901   -4.5484   -0.7234 H   0  0  0  0  0  0  0  0  0  0  0  0
    2.7520   -4.6499    0.9605 H   0  0  0  0  0  0  0  0  0  0  0  0
    4.4977   -9.8766    2.7141 H   0  0  0  0  0  0  0  0  0  0  0  0
    6.0163   -9.1550    2.2952 H   0  0  0  0  0  0  0  0  0  0  0  0
    5.4194   -8.5406    4.6047 H   0  0  0  0  0  0  0  0  0  0  0  0
    5.4749   -7.1089    3.6286 H   0  0  0  0  0  0  0  0  0  0  0  0
    2.9727   -7.0843    3.4247 H   0  0  0  0  0  0  0  0  0  0  0  0
    2.8968   -8.5830    4.3259 H   0  0  0  0  0  0  0  0  0  0  0  0
    1.4007   -6.4248    5.2252 H   0  0  0  0  0  0  0  0  0  0  0  0
    1.6955   -7.6406    6.4782 H   0  0  0  0  0  0  0  0  0  0  0  0
    2.2856   -5.9884    8.0587 H   0  0  0  0  0  0  0  0  0  0  0  0
    0.1199   -4.9489    6.6858 H   0  0  0  0  0  0  0  0  0  0  0  0
    0.9443   -4.0927    7.9910 H   0  0  0  0  0  0  0  0  0  0  0  0
    0.8331   -1.9018    7.2090 H   0  0  0  0  0  0  0  0  0  0  0  0
    1.4500   -1.4662    5.6349 H   0  0  0  0  0  0  0  0  0  0  0  0
   -0.5034   -2.3510    4.4699 H   0  0  0  0  0  0  0  0  0  0  0  0
   -1.0431   -3.2166    5.8586 H   0  0  0  0  0  0  0  0  0  0  0  0
   -1.8499    0.9291    7.4435 H   0  0  0  0  0  0  0  0  0  0  0  0
   -1.5417    3.2570    6.7071 H   0  0  0  0  0  0  0  0  0  0  0  0
    1.2715    5.3855    2.9586 H   0  0  0  0  0  0  0  0  0  0  0  0
    1.0263    3.7112    2.4795 H   0  0  0  0  0  0  0  0  0  0  0  0
    1.8385    4.0556    4.0197 H   0  0  0  0  0  0  0  0  0  0  0  0
   -0.1315    1.8604    2.8722 H   0  0  0  0  0  0  0  0  0  0  0  0
   -0.3930   -0.4442    3.5801 H   0  0  0  0  0  0  0  0  0  0  0  0
    3.5676   -2.8570    5.6578 H   0  0  0  0  0  0  0  0  0  0  0  0
    3.0869   -2.8075    7.3583 H   0  0  0  0  0  0  0  0  0  0  0  0
    4.1837   -4.8539    7.4862 H   0  0  0  0  0  0  0  0  0  0  0  0
    5.1145   -5.5766    5.4477 H   0  0  0  0  0  0  0  0  0  0  0  0
    3.7012   -5.0392    4.5271 H   0  0  0  0  0  0  0  0  0  0  0  0
    7.7744   -2.4071    0.6585 H   0  0  0  0  0  0  0  0  0  0  0  0
    4.1751   -0.5599   -0.4424 H   0  0  0  0  0  0  0  0  0  0  0  0
    3.9531   -7.4315    6.1715 H   0  0  0  0  0  0  0  0  0  0  0  0
  1  2  1  0
  1 37  1  0
  1 38  1  0
  1 39  1  0
  2 31  1  0
  2  3  1  0
  3  4  1  0
  3 29  2  0
  4  5  1  0
  5  6  1  0
  5 40  1  0
  5 41  1  0
  6  7  1  0
  6 42  1  0
  6 43  1  0
  7  8  1  0
  7 44  1  0
  7 45  1  0
  8 28  1  0
  8  9  1  0
  8 69  1  1
  9 10  1  0
  9 46  1  0
  9 47  1  0
 10 27  1  0
 10 11  1  0
 10 48  1  1
 11 12  1  0
 11 49  1  0
 11 50  1  0
 12 13  1  0
 12 26  1  0
 13 14  1  0
 13 51  1  0
 13 52  1  0
 14 15  1  0
 14 53  1  0
 14 54  1  0
 15 16  1  0
 16 25  1  0
 16 17  2  0
 17 18  1  0
 17 55  1  0
 18 19  2  0
 18 56  1  0
 19 20  1  0
 19 24  1  0
 20 21  1  0
 20 22  2  0
 20 23  2  0
 21 57  1  0
 21 58  1  0
 21 59  1  0
 24 25  2  0
 24 60  1  0
 25 61  1  0
 26 27  1  0
 26 62  1  0
 26 63  1  0
 27 28  1  0
 27 64  1  1
 28 65  1  0
 28 66  1  0
 29 30  1  0
 30 31  2  0
 31 32  1  0
 32 36  1  0
 32 33  2  0
 33 34  1  0
 33 67  1  0
 34 35  2  0
 35 36  1  0
 35 68  1  0
M  CHG  1   8   1
M  END
>  <i_m_ct_stereo_status>  (130) 
1

>  <s_m_source_file>  (130) 
/var/tmp/pbs.5076255.sched01/tmp5gbx45fw/500pp51iot.sdf

>  <i_m_source_file_index>  (130) 
4

>  <i_lp_mmshare_version>  (130) 
48012

>  <i_f3d_flags>  (130) 
0

>  <s_epik_input>  (130) 
bzFbY0hdbltjSF1jMS1jMm5uYyhuMltDSDNdKVNbQ0gyXVtDSDJdW0NIMl1OKFtDSDJdMylbQ0gyXVtDQEhdKFtDQEhdMzQpW0NIMl1OKFtDSDJdNClbQ0gyXVtDSDJdT2M1W2NIXVtjSF1jKFMoPU8pKD1PKVtDSDNdKVtjSF1bY0hdNQ==

>  <s_epik_cmdline>  (130) 
J2VwaWtfcHl0aG9uJywgJy1waHQnLCAnMi4wJywgJy1waCcsICc3LjAnLCAnLXRuJywgJzgnLCAnLW1hJywgJzIwMCcsICctaW1hZScsICc8aW5maWxlLm1hZT4nLCAnLW9tYWUnLCAnPG91dGZpbGUubWFlPic=

>  <r_lp_tautomer_probability>  (130) 
1

>  <r_epik_Ionization_Penalty>  (130) 
0.198605

>  <r_epik_Ionization_Penalty_Charging>  (130) 
0.00328734

>  <r_epik_Ionization_Penalty_Neutral>  (130) 
0.195318

>  <r_epik_State_Penalty>  (130) 
0.232104

>  <r_epik_Charging_Adjusted_Penalty>  (130) 
0.235391

>  <i_epik_Tot_Q>  (130) 
1

>  <i_epik_Tot_abs_Q>  (130) 
1

>  <s_lp_Force_Field>  (130) 
OPLS3e

>  <r_lp_Energy>  (130) 
10.2545

>  <b_lp_Chiralities_Consistent>  (130) 
1

>  <s_lp_Variant>  (130) 
33:0-1

>  <s_i_glide_gridfile>  (130) 
pfpi4k_grid

>  <i_i_glide_lignum>  (130) 
4

>  <i_i_glide_rotatable_bonds>  (130) 
11

>  <r_i_docking_score>  (130) 
-2.92866

>  <r_i_glide_ligand_efficiency>  (130) 
-0.0813516

>  <r_i_glide_ligand_efficiency_sa>  (130) 
-0.268617

>  <r_i_glide_ligand_efficiency_ln>  (130) 
-0.638954

>  <r_i_glide_gscore>  (130) 
-2.92866

>  <r_i_glide_lipo>  (130) 
-0.153541

>  <r_i_glide_hbond>  (130) 
-0.0401253

>  <r_i_glide_metal>  (130) 
-0

>  <r_i_glide_rewards>  (130) 
-0.34944

>  <r_i_glide_evdw>  (130) 
-31.9939

>  <r_i_glide_ecoul>  (130) 
-8.63652

>  <r_i_glide_erotb>  (130) 
0.72444

>  <r_i_glide_esite>  (130) 
-0.214817

>  <r_i_glide_emodel>  (130) 
-48.3329

>  <r_i_glide_energy>  (130) 
-40.6304

>  <r_i_glide_einternal>  (130) 
5.36463

>  <r_i_glide_intrahb_reward>  (130) 
-0

>  <i_i_glide_confnum>  (130) 
2

>  <i_i_glide_posenum>  (130) 
3

>  <r_i_glide_eff_state_penalty>  (130) 
0

>  <ligand_id>  (130) 
33

>  <original_smiles>  (130) 
Cn1c(SCCCN2CC3CN(CCOc4ccc(S(C)(=O)=O)cc4)CC3C2)nnc1-c1cnco1

>  <smiles>  (130) 
[H]c1nc([H])c(-c2nnc(SC([H])([H])C([H])([H])C([H])([H])[N+]3([H])C([H])([H])C4([H])C([H])([H])N(C([H])([H])C([H])([H])Oc5c([H])c([H])c(S(=O)(=O)C([H])([H])[H])c([H])c5[H])C([H])([H])C4([H])C3([H])[H])n2C([H])([H])[H])o1

$$$$
33:0:2
     RDKit          3D

 69 73  0  0  1  0  0  0  0  0999 V2000
   -1.8439    0.6297    6.6016 C   0  0  0  0  0  0  0  0  0  0  0  0
   -1.5891    1.9490    6.0554 N   0  0  0  0  0  0  0  0  0  0  0  0
   -1.1886    2.3053    4.8224 C   0  0  0  0  0  0  0  0  0  0  0  0
   -0.8103    1.1190    3.5551 S   0  0  0  0  0  0  0  0  0  0  0  0
    0.2415    2.0988    2.4196 C   0  0  0  0  0  0  0  0  0  0  0  0
    1.6975    1.6171    2.4261 C   0  0  0  0  0  0  0  0  0  0  0  0
    1.9318    0.3822    1.5382 C   0  0  0  0  0  0  0  0  0  0  0  0
    3.3410   -0.0719    1.5547 N   0  0  2  0  0  0  0  0  0  0  0  0
    3.7329   -0.8807    0.3903 C   0  0  0  0  0  0  0  0  0  0  0  0
    5.0236   -1.6029    0.8037 C   0  0  2  0  0  0  0  0  0  0  0  0
    5.0982   -3.0751    0.3980 C   0  0  0  0  0  0  0  0  0  0  0  0
    4.5592   -3.7667    1.5566 N   0  0  0  0  0  0  0  0  0  0  0  0
    4.9298   -5.1754    1.6042 C   0  0  0  0  0  0  0  0  0  0  0  0
    4.3208   -5.9588    0.4033 C   0  0  0  0  0  0  0  0  0  0  0  0
    4.5437   -7.3561    0.5174 O   0  0  0  0  0  0  0  0  0  0  0  0
    3.8773   -8.0661    1.4851 C   0  0  0  0  0  0  0  0  0  0  0  0
    4.1411   -9.4520    1.5320 C   0  0  0  0  0  0  0  0  0  0  0  0
    3.5298  -10.2615    2.5079 C   0  0  0  0  0  0  0  0  0  0  0  0
    2.6970   -9.6828    3.4775 C   0  0  0  0  0  0  0  0  0  0  0  0
    1.9377  -10.6887    4.7326 S   0  0  0  0  0  0  0  0  0  0  0  0
    3.3674  -11.5511    5.4928 C   0  0  0  0  0  0  0  0  0  0  0  0
    1.3476   -9.7957    5.7337 O   0  0  0  0  0  0  0  0  0  0  0  0
    1.0906  -11.6890    4.0431 O   0  0  0  0  0  0  0  0  0  0  0  0
    2.4304   -8.2966    3.4512 C   0  0  0  0  0  0  0  0  0  0  0  0
    2.9711   -7.5077    2.4265 C   0  0  0  0  0  0  0  0  0  0  0  0
    5.0833   -3.0724    2.7236 C   0  0  0  0  0  0  0  0  0  0  0  0
    5.0192   -1.5965    2.3303 C   0  0  2  0  0  0  0  0  0  0  0  0
    3.7312   -0.8588    2.7347 C   0  0  0  0  0  0  0  0  0  0  0  0
   -1.1016    3.6302    4.6565 N   0  0  0  0  0  0  0  0  0  0  0  0
   -1.3842    4.1666    5.8716 N   0  0  0  0  0  0  0  0  0  0  0  0
   -1.6910    3.1501    6.6799 C   0  0  0  0  0  0  0  0  0  0  0  0
   -2.0833    3.3920    8.0621 C   0  0  0  0  0  0  0  0  0  0  0  0
   -2.2807    4.5697    8.7386 C   0  0  0  0  0  0  0  0  0  0  0  0
   -2.6606    4.2401   10.0503 N   0  0  0  0  0  0  0  0  0  0  0  0
   -2.6618    2.9046   10.0662 C   0  0  0  0  0  0  0  0  0  0  0  0
   -2.3169    2.3324    8.8886 O   0  0  0  0  0  0  0  0  0  0  0  0
   -1.9619   -0.1137    5.8118 H   0  0  0  0  0  0  0  0  0  0  0  0
   -2.7790    0.6624    7.1545 H   0  0  0  0  0  0  0  0  0  0  0  0
   -1.0273    0.3406    7.2654 H   0  0  0  0  0  0  0  0  0  0  0  0
   -0.1828    2.0933    1.4130 H   0  0  0  0  0  0  0  0  0  0  0  0
    0.2798    3.1487    2.6880 H   0  0  0  0  0  0  0  0  0  0  0  0
    2.3151    2.4437    2.0618 H   0  0  0  0  0  0  0  0  0  0  0  0
    2.0185    1.4405    3.4566 H   0  0  0  0  0  0  0  0  0  0  0  0
    1.2569   -0.4307    1.8221 H   0  0  0  0  0  0  0  0  0  0  0  0
    1.6519    0.6386    0.5180 H   0  0  0  0  0  0  0  0  0  0  0  0
    2.9437   -1.6149    0.1888 H   0  0  0  0  0  0  0  0  0  0  0  0
    3.8877   -0.2845   -0.5117 H   0  0  0  0  0  0  0  0  0  0  0  0
    5.8913   -1.0604    0.4254 H   0  0  0  0  0  0  0  0  0  0  0  0
    4.5454   -3.2969   -0.5163 H   0  0  0  0  0  0  0  0  0  0  0  0
    6.1394   -3.3707    0.2677 H   0  0  0  0  0  0  0  0  0  0  0  0
    6.0171   -5.3219    1.6279 H   0  0  0  0  0  0  0  0  0  0  0  0
    4.5660   -5.5147    2.5700 H   0  0  0  0  0  0  0  0  0  0  0  0
    3.2581   -5.7730    0.2365 H   0  0  0  0  0  0  0  0  0  0  0  0
    4.8127   -5.6610   -0.5231 H   0  0  0  0  0  0  0  0  0  0  0  0
    4.7952   -9.9015    0.8001 H   0  0  0  0  0  0  0  0  0  0  0  0
    3.6944  -11.3311    2.4974 H   0  0  0  0  0  0  0  0  0  0  0  0
    3.0187  -12.2099    6.2884 H   0  0  0  0  0  0  0  0  0  0  0  0
    4.0481  -10.8126    5.9129 H   0  0  0  0  0  0  0  0  0  0  0  0
    3.8696  -12.1576    4.7424 H   0  0  0  0  0  0  0  0  0  0  0  0
    1.7997   -7.8488    4.1982 H   0  0  0  0  0  0  0  0  0  0  0  0
    2.6806   -6.4685    2.4154 H   0  0  0  0  0  0  0  0  0  0  0  0
    4.5447   -3.3101    3.6419 H   0  0  0  0  0  0  0  0  0  0  0  0
    6.1249   -3.3586    2.8536 H   0  0  0  0  0  0  0  0  0  0  0  0
    5.8899   -1.0601    2.7106 H   0  0  0  0  0  0  0  0  0  0  0  0
    3.8697   -0.2405    3.6243 H   0  0  0  0  0  0  0  0  0  0  0  0
    2.9455   -1.5919    2.9495 H   0  0  0  0  0  0  0  0  0  0  0  0
   -2.2047    5.5961    8.4374 H   0  0  0  0  0  0  0  0  0  0  0  0
   -2.9269    2.3088   10.9136 H   0  0  0  0  0  0  0  0  0  0  0  0
    3.9357    0.7664    1.5386 H   0  0  0  0  0  0  0  0  0  0  0  0
  1  2  1  0
  1 37  1  0
  1 38  1  0
  1 39  1  0
  2 31  1  0
  2  3  1  0
  3  4  1  0
  3 29  2  0
  4  5  1  0
  5  6  1  0
  5 40  1  0
  5 41  1  0
  6  7  1  0
  6 42  1  0
  6 43  1  0
  7  8  1  0
  7 44  1  0
  7 45  1  0
  8 28  1  0
  8  9  1  0
  8 69  1  6
  9 10  1  0
  9 46  1  0
  9 47  1  0
 10 27  1  0
 10 11  1  0
 10 48  1  6
 11 12  1  0
 11 49  1  0
 11 50  1  0
 12 13  1  0
 12 26  1  0
 13 14  1  0
 13 51  1  0
 13 52  1  0
 14 15  1  0
 14 53  1  0
 14 54  1  0
 15 16  1  0
 16 25  1  0
 16 17  2  0
 17 18  1  0
 17 55  1  0
 18 19  2  0
 18 56  1  0
 19 20  1  0
 19 24  1  0
 20 21  1  0
 20 22  2  0
 20 23  2  0
 21 57  1  0
 21 58  1  0
 21 59  1  0
 24 25  2  0
 24 60  1  0
 25 61  1  0
 26 27  1  0
 26 62  1  0
 26 63  1  0
 27 28  1  0
 27 64  1  1
 28 65  1  0
 28 66  1  0
 29 30  1  0
 30 31  2  0
 31 32  1  0
 32 36  1  0
 32 33  2  0
 33 34  1  0
 33 67  1  0
 34 35  2  0
 35 36  1  0
 35 68  1  0
M  CHG  1   8   1
M  END
>  <i_m_ct_stereo_status>  (131) 
1

>  <s_m_source_file>  (131) 
/var/tmp/pbs.5076255.sched01/tmp5gbx45fw/500pp51iot.sdf

>  <i_m_source_file_index>  (131) 
4

>  <i_lp_mmshare_version>  (131) 
48012

>  <i_f3d_flags>  (131) 
0

>  <s_epik_input>  (131) 
bzFbY0hdbltjSF1jMS1jMm5uYyhuMltDSDNdKVNbQ0gyXVtDSDJdW0NIMl1OKFtDSDJdMylbQ0gyXVtDQEhdKFtDQEhdMzQpW0NIMl1OKFtDSDJdNClbQ0gyXVtDSDJdT2M1W2NIXVtjSF1jKFMoPU8pKD1PKVtDSDNdKVtjSF1bY0hdNQ==

>  <s_epik_cmdline>  (131) 
J2VwaWtfcHl0aG9uJywgJy1waHQnLCAnMi4wJywgJy1waCcsICc3LjAnLCAnLXRuJywgJzgnLCAnLW1hJywgJzIwMCcsICctaW1hZScsICc8aW5maWxlLm1hZT4nLCAnLW9tYWUnLCAnPG91dGZpbGUubWFlPic=

>  <r_lp_tautomer_probability>  (131) 
1

>  <r_epik_Ionization_Penalty>  (131) 
0.198605

>  <r_epik_Ionization_Penalty_Charging>  (131) 
0.00328734

>  <r_epik_Ionization_Penalty_Neutral>  (131) 
0.195318

>  <r_epik_State_Penalty>  (131) 
0.232104

>  <r_epik_Charging_Adjusted_Penalty>  (131) 
0.235391

>  <i_epik_Tot_Q>  (131) 
1

>  <i_epik_Tot_abs_Q>  (131) 
1

>  <s_lp_Force_Field>  (131) 
OPLS3e

>  <r_lp_Energy>  (131) 
10.2545

>  <b_lp_Chiralities_Consistent>  (131) 
1

>  <s_lp_Variant>  (131) 
33:0-1

>  <s_i_glide_gridfile>  (131) 
pfpi4k_grid

>  <i_i_glide_lignum>  (131) 
4

>  <i_i_glide_rotatable_bonds>  (131) 
11

>  <r_i_docking_score>  (131) 
-2.44978

>  <r_i_glide_ligand_efficiency>  (131) 
-0.0680494

>  <r_i_glide_ligand_efficiency_sa>  (131) 
-0.224694

>  <r_i_glide_ligand_efficiency_ln>  (131) 
-0.534476

>  <r_i_glide_gscore>  (131) 
-2.44978

>  <r_i_glide_lipo>  (131) 
-0.420315

>  <r_i_glide_hbond>  (131) 
0

>  <r_i_glide_metal>  (131) 
-0

>  <r_i_glide_rewards>  (131) 
-0.0689286

>  <r_i_glide_evdw>  (131) 
-37.1312

>  <r_i_glide_ecoul>  (131) 
-4.32229

>  <r_i_glide_erotb>  (131) 
0.72444

>  <r_i_glide_esite>  (131) 
-0.180074

>  <r_i_glide_emodel>  (131) 
-47.3384

>  <r_i_glide_energy>  (131) 
-41.4535

>  <r_i_glide_einternal>  (131) 
4.7982

>  <r_i_glide_intrahb_reward>  (131) 
-0

>  <i_i_glide_confnum>  (131) 
2

>  <i_i_glide_posenum>  (131) 
24

>  <r_i_glide_eff_state_penalty>  (131) 
0

>  <ligand_id>  (131) 
33

>  <original_smiles>  (131) 
Cn1c(SCCCN2CC3CN(CCOc4ccc(S(C)(=O)=O)cc4)CC3C2)nnc1-c1cnco1

>  <smiles>  (131) 
[H]c1nc([H])c(-c2nnc(SC([H])([H])C([H])([H])C([H])([H])[N+]3([H])C([H])([H])C4([H])C([H])([H])N(C([H])([H])C([H])([H])Oc5c([H])c([H])c(S(=O)(=O)C([H])([H])[H])c([H])c5[H])C([H])([H])C4([H])C3([H])[H])n2C([H])([H])[H])o1

$$$$
33:1:0
     RDKit          3D

 69 73  0  0  1  0  0  0  0  0999 V2000
    2.7664   -3.7658    5.7640 C   0  0  0  0  0  0  0  0  0  0  0  0
    1.3750   -3.3110    5.8100 N   0  0  0  0  0  0  0  0  0  0  0  0
    0.4083   -3.6655    6.6774 C   0  0  0  0  0  0  0  0  0  0  0  0
    0.6703   -4.8190    7.9769 S   0  0  0  0  0  0  0  0  0  0  0  0
   -0.1807   -6.2634    7.2882 C   0  0  0  0  0  0  0  0  0  0  0  0
    0.7416   -7.0624    6.3586 C   0  0  0  0  0  0  0  0  0  0  0  0
    0.0440   -8.2673    5.6963 C   0  0  0  0  0  0  0  0  0  0  0  0
    0.9095   -8.9340    4.6712 N   0  0  1  0  0  0  0  0  0  0  0  0
    1.5158  -10.2285    5.0687 C   0  0  0  0  0  0  0  0  0  0  0  0
    1.9571  -10.8864    3.7591 C   0  0  2  0  0  0  0  0  0  0  0  0
    3.4175  -10.6149    3.4027 C   0  0  0  0  0  0  0  0  0  0  0  0
    3.3498   -9.4025    2.5988 N   0  0  0  0  0  0  0  0  0  0  0  0
    4.5616   -9.2180    1.8096 C   0  0  0  0  0  0  0  0  0  0  0  0
    5.6902   -8.6871    2.7450 C   0  0  0  0  0  0  0  0  0  0  0  0
    6.7461   -8.0360    2.0508 O   0  0  0  0  0  0  0  0  0  0  0  0
    6.5325   -6.7905    1.4941 C   0  0  0  0  0  0  0  0  0  0  0  0
    7.6961   -6.0775    1.0970 C   0  0  0  0  0  0  0  0  0  0  0  0
    7.5712   -4.8179    0.4733 C   0  0  0  0  0  0  0  0  0  0  0  0
    6.2875   -4.3125    0.1742 C   0  0  0  0  0  0  0  0  0  0  0  0
    6.0553   -2.7430   -0.6445 S   0  0  0  0  0  0  0  0  0  0  0  0
    5.2361   -3.1932   -2.2218 C   0  0  0  0  0  0  0  0  0  0  0  0
    5.1250   -1.9613    0.1559 O   0  0  0  0  0  0  0  0  0  0  0  0
    7.4076   -2.2139   -0.9832 O   0  0  0  0  0  0  0  0  0  0  0  0
    5.1258   -5.0139    0.5493 C   0  0  0  0  0  0  0  0  0  0  0  0
    5.2540   -6.1974    1.2753 C   0  0  0  0  0  0  0  0  0  0  0  0
    2.1900   -9.5707    1.7383 C   0  0  0  0  0  0  0  0  0  0  0  0
    1.1512  -10.2128    2.6558 C   0  0  2  0  0  0  0  0  0  0  0  0
    0.2568   -9.1981    3.3666 C   0  0  0  0  0  0  0  0  0  0  0  0
   -0.7599   -3.0583    6.4543 N   0  0  0  0  0  0  0  0  0  0  0  0
   -0.5399   -2.2634    5.3447 N   0  0  0  0  0  0  0  0  0  0  0  0
    0.7401   -2.4477    4.9940 C   0  0  0  0  0  0  0  0  0  0  0  0
    1.3420   -1.7592    3.8489 C   0  0  0  0  0  0  0  0  0  0  0  0
    2.5512   -1.8391    3.2100 C   0  0  0  0  0  0  0  0  0  0  0  0
    2.5535   -0.8915    2.2050 N   0  0  0  0  0  0  0  0  0  0  0  0
    1.3744   -0.2891    2.2474 C   0  0  0  0  0  0  0  0  0  0  0  0
    0.5884   -0.7737    3.2490 O   0  0  0  0  0  0  0  0  0  0  0  0
    3.0774   -4.2082    6.7129 H   0  0  0  0  0  0  0  0  0  0  0  0
    3.4226   -2.9098    5.5918 H   0  0  0  0  0  0  0  0  0  0  0  0
    2.9080   -4.4952    4.9563 H   0  0  0  0  0  0  0  0  0  0  0  0
   -0.5257   -6.8919    8.1124 H   0  0  0  0  0  0  0  0  0  0  0  0
   -1.0656   -5.8946    6.7696 H   0  0  0  0  0  0  0  0  0  0  0  0
    1.1136   -6.3933    5.5865 H   0  0  0  0  0  0  0  0  0  0  0  0
    1.6095   -7.4102    6.9188 H   0  0  0  0  0  0  0  0  0  0  0  0
   -0.2855   -8.9896    6.4439 H   0  0  0  0  0  0  0  0  0  0  0  0
   -0.8726   -7.9178    5.2199 H   0  0  0  0  0  0  0  0  0  0  0  0
    2.3219  -10.0900    5.7908 H   0  0  0  0  0  0  0  0  0  0  0  0
    0.7547  -10.8442    5.5366 H   0  0  0  0  0  0  0  0  0  0  0  0
    1.7924  -11.9533    3.8044 H   0  0  0  0  0  0  0  0  0  0  0  0
    4.0752  -10.4888    4.2727 H   0  0  0  0  0  0  0  0  0  0  0  0
    3.8089  -11.4124    2.7645 H   0  0  0  0  0  0  0  0  0  0  0  0
    4.8951  -10.1072    1.2560 H   0  0  0  0  0  0  0  0  0  0  0  0
    4.2756   -8.5412    1.0205 H   0  0  0  0  0  0  0  0  0  0  0  0
    5.3770   -8.0230    3.5651 H   0  0  0  0  0  0  0  0  0  0  0  0
    6.1457   -9.5448    3.2663 H   0  0  0  0  0  0  0  0  0  0  0  0
    8.6893   -6.4872    1.3001 H   0  0  0  0  0  0  0  0  0  0  0  0
    8.4548   -4.2369    0.2108 H   0  0  0  0  0  0  0  0  0  0  0  0
    5.0655   -2.2870   -2.7944 H   0  0  0  0  0  0  0  0  0  0  0  0
    4.2787   -3.6734   -2.0150 H   0  0  0  0  0  0  0  0  0  0  0  0
    5.8688   -3.8770   -2.7810 H   0  0  0  0  0  0  0  0  0  0  0  0
    4.1365   -4.6408    0.3104 H   0  0  0  0  0  0  0  0  0  0  0  0
    4.3060   -6.5810    1.5960 H   0  0  0  0  0  0  0  0  0  0  0  0
    1.8575   -8.6425    1.2705 H   0  0  0  0  0  0  0  0  0  0  0  0
    2.4759  -10.2457    0.9319 H   0  0  0  0  0  0  0  0  0  0  0  0
    0.5302  -10.9066    2.1040 H   0  0  0  0  0  0  0  0  0  0  0  0
   -0.7166   -9.6399    3.5587 H   0  0  0  0  0  0  0  0  0  0  0  0
    0.1023   -8.2772    2.8039 H   0  0  0  0  0  0  0  0  0  0  0  0
    3.4186   -2.4727    3.3845 H   0  0  0  0  0  0  0  0  0  0  0  0
    1.0725    0.5050    1.5618 H   0  0  0  0  0  0  0  0  0  0  0  0
    1.6835   -8.3233    4.4613 H   0  0  0  0  0  0  0  0  0  0  0  0
  1  2  1  0
  1 37  1  0
  1 38  1  0
  1 39  1  0
  2 31  1  0
  2  3  1  0
  3  4  1  0
  3 29  2  0
  4  5  1  0
  5  6  1  0
  5 40  1  0
  5 41  1  0
  6  7  1  0
  6 42  1  0
  6 43  1  0
  7  8  1  0
  7 44  1  0
  7 45  1  0
  8 28  1  0
  8  9  1  0
  8 69  1  6
  9 10  1  0
  9 46  1  0
  9 47  1  0
 10 27  1  0
 10 11  1  0
 10 48  1  1
 11 12  1  0
 11 49  1  0
 11 50  1  0
 12 13  1  0
 12 26  1  0
 13 14  1  0
 13 51  1  0
 13 52  1  0
 14 15  1  0
 14 53  1  0
 14 54  1  0
 15 16  1  0
 16 25  1  0
 16 17  2  0
 17 18  1  0
 17 55  1  0
 18 19  2  0
 18 56  1  0
 19 20  1  0
 19 24  1  0
 20 21  1  0
 20 22  2  0
 20 23  2  0
 21 57  1  0
 21 58  1  0
 21 59  1  0
 24 25  2  0
 24 60  1  0
 25 61  1  0
 26 27  1  0
 26 62  1  0
 26 63  1  0
 27 28  1  0
 27 64  1  6
 28 65  1  0
 28 66  1  0
 29 30  1  0
 30 31  2  0
 31 32  1  0
 32 36  1  0
 32 33  2  0
 33 34  1  0
 33 67  1  0
 34 35  2  0
 35 36  1  0
 35 68  1  0
M  CHG  1   8   1
M  END
>  <i_m_ct_stereo_status>  (132) 
1

>  <s_m_source_file>  (132) 
/var/tmp/pbs.5076255.sched01/tmp5gbx45fw/500pp51iot.sdf

>  <i_m_source_file_index>  (132) 
5

>  <i_lp_mmshare_version>  (132) 
48012

>  <i_f3d_flags>  (132) 
0

>  <s_epik_input>  (132) 
bzFbY0hdbltjSF1jMS1jMm5uYyhuMltDSDNdKVNbQ0gyXVtDSDJdW0NIMl1OKFtDSDJdMylbQ0gyXVtDQEhdKFtDQEhdMzQpW0NIMl1OKFtDSDJdNClbQ0gyXVtDSDJdT2M1W2NIXVtjSF1jKFMoPU8pKD1PKVtDSDNdKVtjSF1bY0hdNQ==

>  <s_epik_cmdline>  (132) 
J2VwaWtfcHl0aG9uJywgJy1waHQnLCAnMi4wJywgJy1waCcsICc3LjAnLCAnLXRuJywgJzgnLCAnLW1hJywgJzIwMCcsICctaW1hZScsICc8aW5maWxlLm1hZT4nLCAnLW9tYWUnLCAnPG91dGZpbGUubWFlPic=

>  <r_lp_tautomer_probability>  (132) 
1

>  <r_epik_Ionization_Penalty>  (132) 
0.198605

>  <r_epik_Ionization_Penalty_Charging>  (132) 
0.00328734

>  <r_epik_Ionization_Penalty_Neutral>  (132) 
0.195318

>  <r_epik_State_Penalty>  (132) 
0.232104

>  <r_epik_Charging_Adjusted_Penalty>  (132) 
0.235391

>  <i_epik_Tot_Q>  (132) 
1

>  <i_epik_Tot_abs_Q>  (132) 
1

>  <s_lp_Force_Field>  (132) 
OPLS3e

>  <r_lp_Energy>  (132) 
10.2828

>  <b_lp_Chiralities_Consistent>  (132) 
1

>  <s_lp_Variant>  (132) 
33:0-2

>  <s_i_glide_gridfile>  (132) 
pfpi4k_grid

>  <i_i_glide_lignum>  (132) 
5

>  <i_i_glide_rotatable_bonds>  (132) 
11

>  <r_i_docking_score>  (132) 
-3.28742

>  <r_i_glide_ligand_efficiency>  (132) 
-0.0913173

>  <r_i_glide_ligand_efficiency_sa>  (132) 
-0.301523

>  <r_i_glide_ligand_efficiency_ln>  (132) 
-0.717227

>  <r_i_glide_gscore>  (132) 
-3.28742

>  <r_i_glide_lipo>  (132) 
-0.925635

>  <r_i_glide_hbond>  (132) 
0

>  <r_i_glide_metal>  (132) 
-0

>  <r_i_glide_rewards>  (132) 
-0.0069291

>  <r_i_glide_evdw>  (132) 
-35.0443

>  <r_i_glide_ecoul>  (132) 
-7.64649

>  <r_i_glide_erotb>  (132) 
0.72444

>  <r_i_glide_esite>  (132) 
-0.18011

>  <r_i_glide_emodel>  (132) 
-49.7125

>  <r_i_glide_energy>  (132) 
-42.6908

>  <r_i_glide_einternal>  (132) 
5.59123

>  <r_i_glide_intrahb_reward>  (132) 
-0

>  <i_i_glide_confnum>  (132) 
10

>  <i_i_glide_posenum>  (132) 
22

>  <r_i_glide_eff_state_penalty>  (132) 
0

>  <ligand_id>  (132) 
33

>  <original_smiles>  (132) 
Cn1c(SCCCN2CC3CN(CCOc4ccc(S(C)(=O)=O)cc4)CC3C2)nnc1-c1cnco1

>  <smiles>  (132) 
[H]c1nc([H])c(-c2nnc(SC([H])([H])C([H])([H])C([H])([H])[N+]3([H])C([H])([H])C4([H])C([H])([H])N(C([H])([H])C([H])([H])Oc5c([H])c([H])c(S(=O)(=O)C([H])([H])[H])c([H])c5[H])C([H])([H])C4([H])C3([H])[H])n2C([H])([H])[H])o1

$$$$
33:1:1
     RDKit          3D

 69 73  0  0  1  0  0  0  0  0999 V2000
    0.0234    6.1404    3.4047 C   0  0  0  0  0  0  0  0  0  0  0  0
   -0.1853    5.1182    4.4318 N   0  0  0  0  0  0  0  0  0  0  0  0
    0.5305    4.8583    5.5415 C   0  0  0  0  0  0  0  0  0  0  0  0
    2.0574    5.6820    5.8871 S   0  0  0  0  0  0  0  0  0  0  0  0
    2.8034    4.5394    7.0988 C   0  0  0  0  0  0  0  0  0  0  0  0
    3.1632    3.1791    6.4553 C   0  0  0  0  0  0  0  0  0  0  0  0
    3.7169    2.1486    7.4356 C   0  0  0  0  0  0  0  0  0  0  0  0
    3.8319    0.8079    6.7966 N   0  0  1  0  0  0  0  0  0  0  0  0
    4.6656   -0.1673    7.5268 C   0  0  0  0  0  0  0  0  0  0  0  0
    4.2885   -1.5334    6.9542 C   0  0  2  0  0  0  0  0  0  0  0  0
    5.1816   -2.0018    5.8006 C   0  0  0  0  0  0  0  0  0  0  0  0
    4.5204   -1.4670    4.6143 N   0  0  0  0  0  0  0  0  0  0  0  0
    4.9985   -2.0576    3.3664 C   0  0  0  0  0  0  0  0  0  0  0  0
    5.8497   -1.0315    2.5963 C   0  0  0  0  0  0  0  0  0  0  0  0
    6.5157   -1.6565    1.4971 O   0  0  0  0  0  0  0  0  0  0  0  0
    5.8474   -1.8642    0.3097 C   0  0  0  0  0  0  0  0  0  0  0  0
    6.4715   -2.7120   -0.6381 C   0  0  0  0  0  0  0  0  0  0  0  0
    5.8580   -2.9742   -1.8819 C   0  0  0  0  0  0  0  0  0  0  0  0
    4.6184   -2.3765   -2.1745 C   0  0  0  0  0  0  0  0  0  0  0  0
    3.8210   -2.6879   -3.7319 S   0  0  0  0  0  0  0  0  0  0  0  0
    2.0919   -3.0905   -3.2902 C   0  0  0  0  0  0  0  0  0  0  0  0
    3.8182   -1.4323   -4.4965 O   0  0  0  0  0  0  0  0  0  0  0  0
    4.4234   -3.8916   -4.3175 O   0  0  0  0  0  0  0  0  0  0  0  0
    3.9979   -1.5109   -1.2610 C   0  0  0  0  0  0  0  0  0  0  0  0
    4.6006   -1.2672   -0.0176 C   0  0  0  0  0  0  0  0  0  0  0  0
    3.1078   -1.7226    4.8459 C   0  0  0  0  0  0  0  0  0  0  0  0
    2.9103   -1.3492    6.3165 C   0  0  2  0  0  0  0  0  0  0  0  0
    2.5495    0.1141    6.5385 C   0  0  0  0  0  0  0  0  0  0  0  0
    0.0008    3.8935    6.3023 N   0  0  0  0  0  0  0  0  0  0  0  0
   -1.0482    3.3914    5.5775 N   0  0  0  0  0  0  0  0  0  0  0  0
   -1.1430    4.1577    4.4872 C   0  0  0  0  0  0  0  0  0  0  0  0
   -2.2245    3.9898    3.5331 C   0  0  0  0  0  0  0  0  0  0  0  0
   -3.0868    2.9345    3.3204 C   0  0  0  0  0  0  0  0  0  0  0  0
   -4.0636    3.3424    2.4156 N   0  0  0  0  0  0  0  0  0  0  0  0
   -3.7693    4.5999    2.0960 C   0  0  0  0  0  0  0  0  0  0  0  0
   -2.6245    5.0231    2.7166 O   0  0  0  0  0  0  0  0  0  0  0  0
    0.7016    6.9270    3.7452 H   0  0  0  0  0  0  0  0  0  0  0  0
   -0.9095    6.6222    3.1483 H   0  0  0  0  0  0  0  0  0  0  0  0
    0.4218    5.7062    2.4857 H   0  0  0  0  0  0  0  0  0  0  0  0
    3.7017    5.0034    7.5208 H   0  0  0  0  0  0  0  0  0  0  0  0
    2.1158    4.4278    7.9400 H   0  0  0  0  0  0  0  0  0  0  0  0
    2.2753    2.7495    6.0010 H   0  0  0  0  0  0  0  0  0  0  0  0
    3.8404    3.3435    5.6091 H   0  0  0  0  0  0  0  0  0  0  0  0
    4.6889    2.4814    7.7606 H   0  0  0  0  0  0  0  0  0  0  0  0
    3.0934    2.0876    8.3306 H   0  0  0  0  0  0  0  0  0  0  0  0
    5.7243    0.0510    7.4460 H   0  0  0  0  0  0  0  0  0  0  0  0
    4.3964   -0.1335    8.5829 H   0  0  0  0  0  0  0  0  0  0  0  0
    4.2689   -2.2808    7.7525 H   0  0  0  0  0  0  0  0  0  0  0  0
    6.2177   -1.6682    5.9064 H   0  0  0  0  0  0  0  0  0  0  0  0
    5.1683   -3.0954    5.7724 H   0  0  0  0  0  0  0  0  0  0  0  0
    5.5738   -2.9657    3.5570 H   0  0  0  0  0  0  0  0  0  0  0  0
    4.1633   -2.3613    2.7324 H   0  0  0  0  0  0  0  0  0  0  0  0
    5.2839   -0.1411    2.3199 H   0  0  0  0  0  0  0  0  0  0  0  0
    6.6253   -0.6248    3.2350 H   0  0  0  0  0  0  0  0  0  0  0  0
    7.4237   -3.1812   -0.4085 H   0  0  0  0  0  0  0  0  0  0  0  0
    6.3355   -3.6255   -2.6089 H   0  0  0  0  0  0  0  0  0  0  0  0
    1.5388   -3.2967   -4.2015 H   0  0  0  0  0  0  0  0  0  0  0  0
    1.6455   -2.2531   -2.7655 H   0  0  0  0  0  0  0  0  0  0  0  0
    2.0851   -3.9600   -2.6433 H   0  0  0  0  0  0  0  0  0  0  0  0
    3.0498   -1.0448   -1.4928 H   0  0  0  0  0  0  0  0  0  0  0  0
    4.0572   -0.6107    0.6490 H   0  0  0  0  0  0  0  0  0  0  0  0
    2.4677   -1.1476    4.1691 H   0  0  0  0  0  0  0  0  0  0  0  0
    2.9012   -2.7884    4.7173 H   0  0  0  0  0  0  0  0  0  0  0  0
    2.1509   -1.9888    6.7721 H   0  0  0  0  0  0  0  0  0  0  0  0
    1.9288    0.1970    7.4290 H   0  0  0  0  0  0  0  0  0  0  0  0
    1.9998    0.5370    5.7061 H   0  0  0  0  0  0  0  0  0  0  0  0
   -3.0725    1.9622    3.7802 H   0  0  0  0  0  0  0  0  0  0  0  0
   -4.2814    5.1964    1.3462 H   0  0  0  0  0  0  0  0  0  0  0  0
    4.2807    0.9035    5.8942 H   0  0  0  0  0  0  0  0  0  0  0  0
  1  2  1  0
  1 37  1  0
  1 38  1  0
  1 39  1  0
  2 31  1  0
  2  3  1  0
  3  4  1  0
  3 29  2  0
  4  5  1  0
  5  6  1  0
  5 40  1  0
  5 41  1  0
  6  7  1  0
  6 42  1  0
  6 43  1  0
  7  8  1  0
  7 44  1  0
  7 45  1  0
  8 28  1  0
  8  9  1  0
  8 69  1  6
  9 10  1  0
  9 46  1  0
  9 47  1  0
 10 27  1  0
 10 11  1  0
 10 48  1  1
 11 12  1  0
 11 49  1  0
 11 50  1  0
 12 13  1  0
 12 26  1  0
 13 14  1  0
 13 51  1  0
 13 52  1  0
 14 15  1  0
 14 53  1  0
 14 54  1  0
 15 16  1  0
 16 25  1  0
 16 17  2  0
 17 18  1  0
 17 55  1  0
 18 19  2  0
 18 56  1  0
 19 20  1  0
 19 24  1  0
 20 21  1  0
 20 22  2  0
 20 23  2  0
 21 57  1  0
 21 58  1  0
 21 59  1  0
 24 25  2  0
 24 60  1  0
 25 61  1  0
 26 27  1  0
 26 62  1  0
 26 63  1  0
 27 28  1  0
 27 64  1  1
 28 65  1  0
 28 66  1  0
 29 30  1  0
 30 31  2  0
 31 32  1  0
 32 36  1  0
 32 33  2  0
 33 34  1  0
 33 67  1  0
 34 35  2  0
 35 36  1  0
 35 68  1  0
M  CHG  1   8   1
M  END
>  <i_m_ct_stereo_status>  (133) 
1

>  <s_m_source_file>  (133) 
/var/tmp/pbs.5076255.sched01/tmp5gbx45fw/500pp51iot.sdf

>  <i_m_source_file_index>  (133) 
5

>  <i_lp_mmshare_version>  (133) 
48012

>  <i_f3d_flags>  (133) 
0

>  <s_epik_input>  (133) 
bzFbY0hdbltjSF1jMS1jMm5uYyhuMltDSDNdKVNbQ0gyXVtDSDJdW0NIMl1OKFtDSDJdMylbQ0gyXVtDQEhdKFtDQEhdMzQpW0NIMl1OKFtDSDJdNClbQ0gyXVtDSDJdT2M1W2NIXVtjSF1jKFMoPU8pKD1PKVtDSDNdKVtjSF1bY0hdNQ==

>  <s_epik_cmdline>  (133) 
J2VwaWtfcHl0aG9uJywgJy1waHQnLCAnMi4wJywgJy1waCcsICc3LjAnLCAnLXRuJywgJzgnLCAnLW1hJywgJzIwMCcsICctaW1hZScsICc8aW5maWxlLm1hZT4nLCAnLW9tYWUnLCAnPG91dGZpbGUubWFlPic=

>  <r_lp_tautomer_probability>  (133) 
1

>  <r_epik_Ionization_Penalty>  (133) 
0.198605

>  <r_epik_Ionization_Penalty_Charging>  (133) 
0.00328734

>  <r_epik_Ionization_Penalty_Neutral>  (133) 
0.195318

>  <r_epik_State_Penalty>  (133) 
0.232104

>  <r_epik_Charging_Adjusted_Penalty>  (133) 
0.235391

>  <i_epik_Tot_Q>  (133) 
1

>  <i_epik_Tot_abs_Q>  (133) 
1

>  <s_lp_Force_Field>  (133) 
OPLS3e

>  <r_lp_Energy>  (133) 
10.2828

>  <b_lp_Chiralities_Consistent>  (133) 
1

>  <s_lp_Variant>  (133) 
33:0-2

>  <s_i_glide_gridfile>  (133) 
pfpi4k_grid

>  <i_i_glide_lignum>  (133) 
5

>  <i_i_glide_rotatable_bonds>  (133) 
11

>  <r_i_docking_score>  (133) 
-3.27427

>  <r_i_glide_ligand_efficiency>  (133) 
-0.0909521

>  <r_i_glide_ligand_efficiency_sa>  (133) 
-0.300317

>  <r_i_glide_ligand_efficiency_ln>  (133) 
-0.714358

>  <r_i_glide_gscore>  (133) 
-3.27427

>  <r_i_glide_lipo>  (133) 
-0.578114

>  <r_i_glide_hbond>  (133) 
-0.16

>  <r_i_glide_metal>  (133) 
-0

>  <r_i_glide_rewards>  (133) 
-0.222356

>  <r_i_glide_evdw>  (133) 
-32.4892

>  <r_i_glide_ecoul>  (133) 
-7.74018

>  <r_i_glide_erotb>  (133) 
0.72444

>  <r_i_glide_esite>  (133) 
-0.252756

>  <r_i_glide_emodel>  (133) 
-47.1785

>  <r_i_glide_energy>  (133) 
-40.2294

>  <r_i_glide_einternal>  (133) 
6.03403

>  <r_i_glide_intrahb_reward>  (133) 
-0

>  <i_i_glide_confnum>  (133) 
7

>  <i_i_glide_posenum>  (133) 
21

>  <r_i_glide_eff_state_penalty>  (133) 
0

>  <ligand_id>  (133) 
33

>  <original_smiles>  (133) 
Cn1c(SCCCN2CC3CN(CCOc4ccc(S(C)(=O)=O)cc4)CC3C2)nnc1-c1cnco1

>  <smiles>  (133) 
[H]c1nc([H])c(-c2nnc(SC([H])([H])C([H])([H])C([H])([H])[N+]3([H])C([H])([H])C4([H])C([H])([H])N(C([H])([H])C([H])([H])Oc5c([H])c([H])c(S(=O)(=O)C([H])([H])[H])c([H])c5[H])C([H])([H])C4([H])C3([H])[H])n2C([H])([H])[H])o1

$$$$
33:1:2
     RDKit          3D

 69 73  0  0  1  0  0  0  0  0999 V2000
    2.0183   -7.8256    6.5128 C   0  0  0  0  0  0  0  0  0  0  0  0
    1.2996   -7.1886    5.4137 N   0  0  0  0  0  0  0  0  0  0  0  0
    1.3652   -7.4450    4.0903 C   0  0  0  0  0  0  0  0  0  0  0  0
    2.4775   -8.6383    3.3846 S   0  0  0  0  0  0  0  0  0  0  0  0
    2.6194   -7.9842    1.6937 C   0  0  0  0  0  0  0  0  0  0  0  0
    3.3195   -6.6077    1.6817 C   0  0  0  0  0  0  0  0  0  0  0  0
    3.4970   -6.0037    0.2746 C   0  0  0  0  0  0  0  0  0  0  0  0
    4.0809   -4.6352    0.3279 N   0  0  1  0  0  0  0  0  0  0  0  0
    5.4634   -4.5535    0.8388 C   0  0  0  0  0  0  0  0  0  0  0  0
    5.9856   -3.1804    0.3822 C   0  0  2  0  0  0  0  0  0  0  0  0
    5.7972   -2.0717    1.4190 C   0  0  0  0  0  0  0  0  0  0  0  0
    4.4752   -1.5379    1.1138 N   0  0  0  0  0  0  0  0  0  0  0  0
    4.2017   -0.2458    1.7344 C   0  0  0  0  0  0  0  0  0  0  0  0
    4.2105   -0.3497    3.2724 C   0  0  0  0  0  0  0  0  0  0  0  0
    4.0403    0.9556    3.8294 O   0  0  0  0  0  0  0  0  0  0  0  0
    2.7645    1.4440    3.9913 C   0  0  0  0  0  0  0  0  0  0  0  0
    1.7027    0.6107    4.3986 C   0  0  0  0  0  0  0  0  0  0  0  0
    0.4091    1.1242    4.5318 C   0  0  0  0  0  0  0  0  0  0  0  0
    0.1753    2.4928    4.3117 C   0  0  0  0  0  0  0  0  0  0  0  0
   -1.4891    3.1031    4.4953 S   0  0  0  0  0  0  0  0  0  0  0  0
   -2.2410    2.8322    2.8467 C   0  0  0  0  0  0  0  0  0  0  0  0
   -2.1879    2.2494    5.4660 O   0  0  0  0  0  0  0  0  0  0  0  0
   -1.4197    4.5490    4.7242 O   0  0  0  0  0  0  0  0  0  0  0  0
    1.2273    3.3512    3.9331 C   0  0  0  0  0  0  0  0  0  0  0  0
    2.5296    2.8299    3.7838 C   0  0  0  0  0  0  0  0  0  0  0  0
    4.4433   -1.4528   -0.3394 C   0  0  0  0  0  0  0  0  0  0  0  0
    5.0885   -2.7688   -0.7880 C   0  0  2  0  0  0  0  0  0  0  0  0
    4.0922   -3.9257   -0.9657 C   0  0  0  0  0  0  0  0  0  0  0  0
    0.5336   -6.6877    3.3617 N   0  0  0  0  0  0  0  0  0  0  0  0
   -0.0650   -5.8434    4.2525 N   0  0  0  0  0  0  0  0  0  0  0  0
    0.4041   -6.1678    5.4630 C   0  0  0  0  0  0  0  0  0  0  0  0
   -0.0443   -5.4602    6.6582 C   0  0  0  0  0  0  0  0  0  0  0  0
   -0.8535   -4.3635    6.8240 C   0  0  0  0  0  0  0  0  0  0  0  0
   -0.9852   -4.1114    8.1874 N   0  0  0  0  0  0  0  0  0  0  0  0
   -0.2360   -5.0500    8.7651 C   0  0  0  0  0  0  0  0  0  0  0  0
    0.3607   -5.8991    7.8897 O   0  0  0  0  0  0  0  0  0  0  0  0
    2.4412   -8.7859    6.2154 H   0  0  0  0  0  0  0  0  0  0  0  0
    1.3360   -8.0350    7.3345 H   0  0  0  0  0  0  0  0  0  0  0  0
    2.8166   -7.1764    6.8760 H   0  0  0  0  0  0  0  0  0  0  0  0
    3.1868   -8.7021    1.1035 H   0  0  0  0  0  0  0  0  0  0  0  0
    1.6307   -7.9446    1.2374 H   0  0  0  0  0  0  0  0  0  0  0  0
    2.7564   -5.8878    2.2751 H   0  0  0  0  0  0  0  0  0  0  0  0
    4.2877   -6.7126    2.1767 H   0  0  0  0  0  0  0  0  0  0  0  0
    4.1132   -6.6660   -0.3394 H   0  0  0  0  0  0  0  0  0  0  0  0
    2.5156   -5.9341   -0.2025 H   0  0  0  0  0  0  0  0  0  0  0  0
    5.5095   -4.6867    1.9225 H   0  0  0  0  0  0  0  0  0  0  0  0
    6.0588   -5.3446    0.3722 H   0  0  0  0  0  0  0  0  0  0  0  0
    7.0348   -3.2636    0.0987 H   0  0  0  0  0  0  0  0  0  0  0  0
    5.8778   -2.4488    2.4372 H   0  0  0  0  0  0  0  0  0  0  0  0
    6.5528   -1.2997    1.2752 H   0  0  0  0  0  0  0  0  0  0  0  0
    4.9124    0.5096    1.3968 H   0  0  0  0  0  0  0  0  0  0  0  0
    3.2127    0.0891    1.4108 H   0  0  0  0  0  0  0  0  0  0  0  0
    3.4719   -1.0811    3.5858 H   0  0  0  0  0  0  0  0  0  0  0  0
    5.1700   -0.7173    3.6515 H   0  0  0  0  0  0  0  0  0  0  0  0
    1.8410   -0.4311    4.6331 H   0  0  0  0  0  0  0  0  0  0  0  0
   -0.3948    0.4743    4.8190 H   0  0  0  0  0  0  0  0  0  0  0  0
   -3.2789    3.1695    2.8679 H   0  0  0  0  0  0  0  0  0  0  0  0
   -2.2047    1.7679    2.6111 H   0  0  0  0  0  0  0  0  0  0  0  0
   -1.6723    3.3885    2.0992 H   0  0  0  0  0  0  0  0  0  0  0  0
    1.0329    4.4021    3.7565 H   0  0  0  0  0  0  0  0  0  0  0  0
    3.3424    3.4881    3.4959 H   0  0  0  0  0  0  0  0  0  0  0  0
    3.4368   -1.3084   -0.7305 H   0  0  0  0  0  0  0  0  0  0  0  0
    5.0612   -0.6188   -0.6712 H   0  0  0  0  0  0  0  0  0  0  0  0
    5.6562   -2.6264   -1.7075 H   0  0  0  0  0  0  0  0  0  0  0  0
    4.4795   -4.6029   -1.7332 H   0  0  0  0  0  0  0  0  0  0  0  0
    3.0947   -3.5936   -1.2677 H   0  0  0  0  0  0  0  0  0  0  0  0
   -1.3569   -3.7499    6.0940 H   0  0  0  0  0  0  0  0  0  0  0  0
   -0.1113   -5.1659    9.8270 H   0  0  0  0  0  0  0  0  0  0  0  0
    3.5160   -4.0582    0.9441 H   0  0  0  0  0  0  0  0  0  0  0  0
  1  2  1  0
  1 37  1  0
  1 38  1  0
  1 39  1  0
  2 31  1  0
  2  3  1  0
  3  4  1  0
  3 29  2  0
  4  5  1  0
  5  6  1  0
  5 40  1  0
  5 41  1  0
  6  7  1  0
  6 42  1  0
  6 43  1  0
  7  8  1  0
  7 44  1  0
  7 45  1  0
  8 28  1  0
  8  9  1  0
  8 69  1  1
  9 10  1  0
  9 46  1  0
  9 47  1  0
 10 27  1  0
 10 11  1  0
 10 48  1  6
 11 12  1  0
 11 49  1  0
 11 50  1  0
 12 13  1  0
 12 26  1  0
 13 14  1  0
 13 51  1  0
 13 52  1  0
 14 15  1  0
 14 53  1  0
 14 54  1  0
 15 16  1  0
 16 25  1  0
 16 17  2  0
 17 18  1  0
 17 55  1  0
 18 19  2  0
 18 56  1  0
 19 20  1  0
 19 24  1  0
 20 21  1  0
 20 22  2  0
 20 23  2  0
 21 57  1  0
 21 58  1  0
 21 59  1  0
 24 25  2  0
 24 60  1  0
 25 61  1  0
 26 27  1  0
 26 62  1  0
 26 63  1  0
 27 28  1  0
 27 64  1  6
 28 65  1  0
 28 66  1  0
 29 30  1  0
 30 31  2  0
 31 32  1  0
 32 36  1  0
 32 33  2  0
 33 34  1  0
 33 67  1  0
 34 35  2  0
 35 36  1  0
 35 68  1  0
M  CHG  1   8   1
M  END
>  <i_m_ct_stereo_status>  (134) 
1

>  <s_m_source_file>  (134) 
/var/tmp/pbs.5076255.sched01/tmp5gbx45fw/500pp51iot.sdf

>  <i_m_source_file_index>  (134) 
5

>  <i_lp_mmshare_version>  (134) 
48012

>  <i_f3d_flags>  (134) 
0

>  <s_epik_input>  (134) 
bzFbY0hdbltjSF1jMS1jMm5uYyhuMltDSDNdKVNbQ0gyXVtDSDJdW0NIMl1OKFtDSDJdMylbQ0gyXVtDQEhdKFtDQEhdMzQpW0NIMl1OKFtDSDJdNClbQ0gyXVtDSDJdT2M1W2NIXVtjSF1jKFMoPU8pKD1PKVtDSDNdKVtjSF1bY0hdNQ==

>  <s_epik_cmdline>  (134) 
J2VwaWtfcHl0aG9uJywgJy1waHQnLCAnMi4wJywgJy1waCcsICc3LjAnLCAnLXRuJywgJzgnLCAnLW1hJywgJzIwMCcsICctaW1hZScsICc8aW5maWxlLm1hZT4nLCAnLW9tYWUnLCAnPG91dGZpbGUubWFlPic=

>  <r_lp_tautomer_probability>  (134) 
1

>  <r_epik_Ionization_Penalty>  (134) 
0.198605

>  <r_epik_Ionization_Penalty_Charging>  (134) 
0.00328734

>  <r_epik_Ionization_Penalty_Neutral>  (134) 
0.195318

>  <r_epik_State_Penalty>  (134) 
0.232104

>  <r_epik_Charging_Adjusted_Penalty>  (134) 
0.235391

>  <i_epik_Tot_Q>  (134) 
1

>  <i_epik_Tot_abs_Q>  (134) 
1

>  <s_lp_Force_Field>  (134) 
OPLS3e

>  <r_lp_Energy>  (134) 
10.2828

>  <b_lp_Chiralities_Consistent>  (134) 
1

>  <s_lp_Variant>  (134) 
33:0-2

>  <s_i_glide_gridfile>  (134) 
pfpi4k_grid

>  <i_i_glide_lignum>  (134) 
5

>  <i_i_glide_rotatable_bonds>  (134) 
11

>  <r_i_docking_score>  (134) 
-2.65202

>  <r_i_glide_ligand_efficiency>  (134) 
-0.0736671

>  <r_i_glide_ligand_efficiency_sa>  (134) 
-0.243243

>  <r_i_glide_ligand_efficiency_ln>  (134) 
-0.578598

>  <r_i_glide_gscore>  (134) 
-2.65202

>  <r_i_glide_lipo>  (134) 
-0.42614

>  <r_i_glide_hbond>  (134) 
0

>  <r_i_glide_metal>  (134) 
-0

>  <r_i_glide_rewards>  (134) 
0

>  <r_i_glide_evdw>  (134) 
-32.2061

>  <r_i_glide_ecoul>  (134) 
-7.64942

>  <r_i_glide_erotb>  (134) 
0.72444

>  <r_i_glide_esite>  (134) 
-0.192597

>  <r_i_glide_emodel>  (134) 
-46.2586

>  <r_i_glide_energy>  (134) 
-39.8555

>  <r_i_glide_einternal>  (134) 
4.54672

>  <r_i_glide_intrahb_reward>  (134) 
-0

>  <i_i_glide_confnum>  (134) 
9

>  <i_i_glide_posenum>  (134) 
1

>  <r_i_glide_eff_state_penalty>  (134) 
0

>  <ligand_id>  (134) 
33

>  <original_smiles>  (134) 
Cn1c(SCCCN2CC3CN(CCOc4ccc(S(C)(=O)=O)cc4)CC3C2)nnc1-c1cnco1

>  <smiles>  (134) 
[H]c1nc([H])c(-c2nnc(SC([H])([H])C([H])([H])C([H])([H])[N+]3([H])C([H])([H])C4([H])C([H])([H])N(C([H])([H])C([H])([H])Oc5c([H])c([H])c(S(=O)(=O)C([H])([H])[H])c([H])c5[H])C([H])([H])C4([H])C3([H])[H])n2C([H])([H])[H])o1

$$$$
33:2:0
     RDKit          3D

 70 74  0  0  1  0  0  0  0  0999 V2000
    0.5448  -10.2666    5.7346 C   0  0  0  0  0  0  0  0  0  0  0  0
    0.2977   -8.8342    5.5524 N   0  0  0  0  0  0  0  0  0  0  0  0
   -0.0705   -8.1841    4.4341 C   0  0  0  0  0  0  0  0  0  0  0  0
   -0.3153   -8.9764    2.8799 S   0  0  0  0  0  0  0  0  0  0  0  0
    1.4135   -9.4154    2.5077 C   0  0  0  0  0  0  0  0  0  0  0  0
    2.2121   -8.1627    2.1498 C   0  0  0  0  0  0  0  0  0  0  0  0
    3.6929   -8.4149    1.7564 C   0  0  0  0  0  0  0  0  0  0  0  0
    4.4605   -7.1742    1.4554 N   0  0  2  0  0  0  0  0  0  0  0  0
    4.7267   -6.2851    2.6078 C   0  0  0  0  0  0  0  0  0  0  0  0
    5.1065   -4.9230    1.9945 C   0  0  2  0  0  0  0  0  0  0  0  0
    4.4785   -3.6651    2.6367 C   0  0  0  0  0  0  0  0  0  0  0  0
    4.0919   -2.7986    1.5048 N   0  0  2  0  0  0  0  0  0  0  0  0
    3.1162   -1.7313    1.8403 C   0  0  0  0  0  0  0  0  0  0  0  0
    3.3712   -0.4243    1.0479 C   0  0  0  0  0  0  0  0  0  0  0  0
    3.4078    0.7030    1.9209 O   0  0  0  0  0  0  0  0  0  0  0  0
    2.2284    1.2139    2.4243 C   0  0  0  0  0  0  0  0  0  0  0  0
    2.3296    2.3298    3.2864 C   0  0  0  0  0  0  0  0  0  0  0  0
    1.1765    2.9098    3.8542 C   0  0  0  0  0  0  0  0  0  0  0  0
   -0.0892    2.3727    3.5529 C   0  0  0  0  0  0  0  0  0  0  0  0
   -1.5702    3.0766    4.2699 S   0  0  0  0  0  0  0  0  0  0  0  0
   -2.7393    3.2009    2.8670 C   0  0  0  0  0  0  0  0  0  0  0  0
   -2.1062    2.1059    5.2319 O   0  0  0  0  0  0  0  0  0  0  0  0
   -1.2820    4.4545    4.7082 O   0  0  0  0  0  0  0  0  0  0  0  0
   -0.2058    1.2509    2.7071 C   0  0  0  0  0  0  0  0  0  0  0  0
    0.9447    0.6858    2.1311 C   0  0  0  0  0  0  0  0  0  0  0  0
    3.6638   -3.7140    0.4312 C   0  0  0  0  0  0  0  0  0  0  0  0
    4.5897   -4.9441    0.5537 C   0  0  2  0  0  0  0  0  0  0  0  0
    3.9304   -6.3163    0.3683 C   0  0  0  0  0  0  0  0  0  0  0  0
   -0.2245   -6.8595    4.6129 N   0  0  0  0  0  0  0  0  0  0  0  0
    0.0914   -6.6359    5.9285 N   0  0  0  0  0  0  0  0  0  0  0  0
    0.3785   -7.8413    6.4494 C   0  0  0  0  0  0  0  0  0  0  0  0
    0.7177   -7.9940    7.8723 C   0  0  0  0  0  0  0  0  0  0  0  0
    1.0776   -9.0606    8.6443 C   0  0  0  0  0  0  0  0  0  0  0  0
    1.2601   -8.6068    9.9493 N   0  0  0  0  0  0  0  0  0  0  0  0
    1.0333   -7.3005    9.8927 C   0  0  0  0  0  0  0  0  0  0  0  0
    0.6746   -6.8627    8.6537 O   0  0  0  0  0  0  0  0  0  0  0  0
    0.2585  -10.8400    4.8581 H   0  0  0  0  0  0  0  0  0  0  0  0
   -0.0510  -10.6409    6.5620 H   0  0  0  0  0  0  0  0  0  0  0  0
    1.5999  -10.4322    5.9432 H   0  0  0  0  0  0  0  0  0  0  0  0
    1.8726   -9.9275    3.3522 H   0  0  0  0  0  0  0  0  0  0  0  0
    1.4202  -10.0962    1.6594 H   0  0  0  0  0  0  0  0  0  0  0  0
    1.6555   -7.6974    1.3338 H   0  0  0  0  0  0  0  0  0  0  0  0
    2.1583   -7.4905    3.0073 H   0  0  0  0  0  0  0  0  0  0  0  0
    4.2023   -8.9657    2.5483 H   0  0  0  0  0  0  0  0  0  0  0  0
    3.7359   -9.0787    0.8935 H   0  0  0  0  0  0  0  0  0  0  0  0
    3.8349   -6.1481    3.2117 H   0  0  0  0  0  0  0  0  0  0  0  0
    5.5004   -6.6871    3.2666 H   0  0  0  0  0  0  0  0  0  0  0  0
    6.1939   -4.8288    1.9631 H   0  0  0  0  0  0  0  0  0  0  0  0
    3.5875   -3.9218    3.2113 H   0  0  0  0  0  0  0  0  0  0  0  0
    5.1772   -3.1658    3.3101 H   0  0  0  0  0  0  0  0  0  0  0  0
    2.0885   -2.0599    1.6806 H   0  0  0  0  0  0  0  0  0  0  0  0
    3.1793   -1.5052    2.9044 H   0  0  0  0  0  0  0  0  0  0  0  0
    4.3423   -0.4466    0.5473 H   0  0  0  0  0  0  0  0  0  0  0  0
    2.6496   -0.2820    0.2395 H   0  0  0  0  0  0  0  0  0  0  0  0
    3.3006    2.7496    3.5149 H   0  0  0  0  0  0  0  0  0  0  0  0
    1.2585    3.7566    4.5215 H   0  0  0  0  0  0  0  0  0  0  0  0
   -3.6836    3.6167    3.2124 H   0  0  0  0  0  0  0  0  0  0  0  0
   -2.9267    2.2115    2.4551 H   0  0  0  0  0  0  0  0  0  0  0  0
   -2.2953    3.8320    2.0969 H   0  0  0  0  0  0  0  0  0  0  0  0
   -1.1724    0.8279    2.4832 H   0  0  0  0  0  0  0  0  0  0  0  0
    0.8048   -0.1511    1.4637 H   0  0  0  0  0  0  0  0  0  0  0  0
    2.6250   -3.9971    0.6064 H   0  0  0  0  0  0  0  0  0  0  0  0
    3.7171   -3.2471   -0.5521 H   0  0  0  0  0  0  0  0  0  0  0  0
    5.4326   -4.8501   -0.1327 H   0  0  0  0  0  0  0  0  0  0  0  0
    4.1238   -6.7455   -0.6163 H   0  0  0  0  0  0  0  0  0  0  0  0
    2.8618   -6.1511    0.4629 H   0  0  0  0  0  0  0  0  0  0  0  0
    1.2225  -10.1138    8.4079 H   0  0  0  0  0  0  0  0  0  0  0  0
    1.0983   -6.6425   10.7495 H   0  0  0  0  0  0  0  0  0  0  0  0
    5.3699   -7.4812    1.1422 H   0  0  0  0  0  0  0  0  0  0  0  0
    4.9445   -2.3561    1.1997 H   0  0  0  0  0  0  0  0  0  0  0  0
  1  2  1  0
  1 37  1  0
  1 38  1  0
  1 39  1  0
  2 31  1  0
  2  3  1  0
  3  4  1  0
  3 29  2  0
  4  5  1  0
  5  6  1  0
  5 40  1  0
  5 41  1  0
  6  7  1  0
  6 42  1  0
  6 43  1  0
  7  8  1  0
  7 44  1  0
  7 45  1  0
  8 28  1  0
  8  9  1  0
  8 69  1  6
  9 10  1  0
  9 46  1  0
  9 47  1  0
 10 27  1  0
 10 11  1  0
 10 48  1  6
 11 12  1  0
 11 49  1  0
 11 50  1  0
 12 13  1  0
 12 26  1  0
 12 70  1  6
 13 14  1  0
 13 51  1  0
 13 52  1  0
 14 15  1  0
 14 53  1  0
 14 54  1  0
 15 16  1  0
 16 25  1  0
 16 17  2  0
 17 18  1  0
 17 55  1  0
 18 19  2  0
 18 56  1  0
 19 20  1  0
 19 24  1  0
 20 21  1  0
 20 22  2  0
 20 23  2  0
 21 57  1  0
 21 58  1  0
 21 59  1  0
 24 25  2  0
 24 60  1  0
 25 61  1  0
 26 27  1  0
 26 62  1  0
 26 63  1  0
 27 28  1  0
 27 64  1  6
 28 65  1  0
 28 66  1  0
 29 30  1  0
 30 31  2  0
 31 32  1  0
 32 36  1  0
 32 33  2  0
 33 34  1  0
 33 67  1  0
 34 35  2  0
 35 36  1  0
 35 68  1  0
M  CHG  2   8   1  12   1
M  END
>  <i_m_ct_stereo_status>  (135) 
1

>  <s_m_source_file>  (135) 
/var/tmp/pbs.5076255.sched01/tmp5gbx45fw/500pp51iot.sdf

>  <i_m_source_file_index>  (135) 
6

>  <i_lp_mmshare_version>  (135) 
48012

>  <i_f3d_flags>  (135) 
0

>  <s_epik_input>  (135) 
bzFbY0hdbltjSF1jMS1jMm5uYyhuMltDSDNdKVNbQ0gyXVtDSDJdW0NIMl1OKFtDSDJdMylbQ0gyXVtDQEhdKFtDQEhdMzQpW0NIMl1OKFtDSDJdNClbQ0gyXVtDSDJdT2M1W2NIXVtjSF1jKFMoPU8pKD1PKVtDSDNdKVtjSF1bY0hdNQ==

>  <s_epik_cmdline>  (135) 
J2VwaWtfcHl0aG9uJywgJy1waHQnLCAnMi4wJywgJy1waCcsICc3LjAnLCAnLXRuJywgJzgnLCAnLW1hJywgJzIwMCcsICctaW1hZScsICc8aW5maWxlLm1hZT4nLCAnLW9tYWUnLCAnPG91dGZpbGUubWFlPic=

>  <r_lp_tautomer_probability>  (135) 
1

>  <r_epik_Ionization_Penalty>  (135) 
0.917358

>  <r_epik_Ionization_Penalty_Charging>  (135) 
0.917357

>  <r_epik_Ionization_Penalty_Neutral>  (135) 
3.87321e-07

>  <r_epik_State_Penalty>  (135) 
0.826619

>  <r_epik_Charging_Adjusted_Penalty>  (135) 
1.74398

>  <i_epik_Tot_Q>  (135) 
2

>  <i_epik_Tot_abs_Q>  (135) 
2

>  <s_lp_Force_Field>  (135) 
OPLS3e

>  <r_lp_Energy>  (135) 
29.8339

>  <b_lp_Chiralities_Consistent>  (135) 
1

>  <s_lp_Variant>  (135) 
33:0-3

>  <s_i_glide_gridfile>  (135) 
pfpi4k_grid

>  <i_i_glide_lignum>  (135) 
6

>  <i_i_glide_rotatable_bonds>  (135) 
11

>  <r_i_docking_score>  (135) 
-3.29845

>  <r_i_glide_ligand_efficiency>  (135) 
-0.0916237

>  <r_i_glide_ligand_efficiency_sa>  (135) 
-0.302535

>  <r_i_glide_ligand_efficiency_ln>  (135) 
-0.719633

>  <r_i_glide_gscore>  (135) 
-3.29845

>  <r_i_glide_lipo>  (135) 
-0.298072

>  <r_i_glide_hbond>  (135) 
0

>  <r_i_glide_metal>  (135) 
-0

>  <r_i_glide_rewards>  (135) 
0

>  <r_i_glide_evdw>  (135) 
-37.9851

>  <r_i_glide_ecoul>  (135) 
-10.4185

>  <r_i_glide_erotb>  (135) 
0.721926

>  <r_i_glide_esite>  (135) 
-0.260278

>  <r_i_glide_emodel>  (135) 
-53.2685

>  <r_i_glide_energy>  (135) 
-48.4036

>  <r_i_glide_einternal>  (135) 
12.7405

>  <r_i_glide_intrahb_reward>  (135) 
-0

>  <i_i_glide_confnum>  (135) 
2

>  <i_i_glide_posenum>  (135) 
34

>  <r_i_glide_eff_state_penalty>  (135) 
0

>  <ligand_id>  (135) 
33

>  <original_smiles>  (135) 
Cn1c(SCCCN2CC3CN(CCOc4ccc(S(C)(=O)=O)cc4)CC3C2)nnc1-c1cnco1

>  <smiles>  (135) 
[H]c1nc([H])c(-c2nnc(SC([H])([H])C([H])([H])C([H])([H])[N+]3([H])C([H])([H])C4([H])C([H])(C([H])([H])[N+]([H])(C([H])([H])C([H])([H])Oc5c([H])c([H])c(S(=O)(=O)C([H])([H])[H])c([H])c5[H])C4([H])[H])C3([H])[H])n2C([H])([H])[H])o1

$$$$
33:2:1
     RDKit          3D

 70 74  0  0  1  0  0  0  0  0999 V2000
    2.4840   -8.2203    5.5705 C   0  0  0  0  0  0  0  0  0  0  0  0
    1.4998   -7.6823    4.6416 N   0  0  0  0  0  0  0  0  0  0  0  0
    1.1162   -8.1397    3.4331 C   0  0  0  0  0  0  0  0  0  0  0  0
    1.8018   -9.5883    2.6744 S   0  0  0  0  0  0  0  0  0  0  0  0
    3.5109   -9.0315    2.4033 C   0  0  0  0  0  0  0  0  0  0  0  0
    3.5484   -7.7034    1.6366 C   0  0  0  0  0  0  0  0  0  0  0  0
    4.8830   -7.4563    0.9001 C   0  0  0  0  0  0  0  0  0  0  0  0
    5.2385   -6.0195    0.7830 N   0  0  2  0  0  0  0  0  0  0  0  0
    5.6019   -5.3469    2.0553 C   0  0  0  0  0  0  0  0  0  0  0  0
    5.4860   -3.8458    1.7514 C   0  0  2  0  0  0  0  0  0  0  0  0
    4.7903   -2.9852    2.8165 C   0  0  0  0  0  0  0  0  0  0  0  0
    3.9463   -2.0279    2.0659 N   0  0  2  0  0  0  0  0  0  0  0  0
    2.8783   -1.3560    2.8546 C   0  0  0  0  0  0  0  0  0  0  0  0
    3.4105   -0.6201    4.1148 C   0  0  0  0  0  0  0  0  0  0  0  0
    2.3710   -0.4716    5.0758 O   0  0  0  0  0  0  0  0  0  0  0  0
    1.4201    0.5000    4.8867 C   0  0  0  0  0  0  0  0  0  0  0  0
    0.3204    0.4774    5.7708 C   0  0  0  0  0  0  0  0  0  0  0  0
   -0.7165    1.4151    5.6302 C   0  0  0  0  0  0  0  0  0  0  0  0
   -0.6376    2.3788    4.6094 C   0  0  0  0  0  0  0  0  0  0  0  0
   -1.9239    3.5772    4.4262 S   0  0  0  0  0  0  0  0  0  0  0  0
   -2.3713    3.5088    2.6532 C   0  0  0  0  0  0  0  0  0  0  0  0
   -3.0694    3.1219    5.2239 O   0  0  0  0  0  0  0  0  0  0  0  0
   -1.3330    4.8969    4.6714 O   0  0  0  0  0  0  0  0  0  0  0  0
    0.4662    2.4364    3.7426 C   0  0  0  0  0  0  0  0  0  0  0  0
    1.4942    1.4947    3.8770 C   0  0  0  0  0  0  0  0  0  0  0  0
    3.4486   -2.7829    0.8938 C   0  0  0  0  0  0  0  0  0  0  0  0
    4.6109   -3.7209    0.4987 C   0  0  2  0  0  0  0  0  0  0  0  0
    4.2430   -5.1599    0.1004 C   0  0  0  0  0  0  0  0  0  0  0  0
    0.1650   -7.3946    2.8546 N   0  0  0  0  0  0  0  0  0  0  0  0
   -0.1100   -6.3891    3.7457 N   0  0  0  0  0  0  0  0  0  0  0  0
    0.7092   -6.5851    4.7863 C   0  0  0  0  0  0  0  0  0  0  0  0
    0.7160   -5.6950    5.9315 C   0  0  0  0  0  0  0  0  0  0  0  0
   -0.2974   -5.0041    6.5530 C   0  0  0  0  0  0  0  0  0  0  0  0
    0.2591   -4.2594    7.5876 N   0  0  0  0  0  0  0  0  0  0  0  0
    1.5588   -4.5538    7.5548 C   0  0  0  0  0  0  0  0  0  0  0  0
    1.9008   -5.4290    6.5687 O   0  0  0  0  0  0  0  0  0  0  0  0
    2.8280   -9.2077    5.2619 H   0  0  0  0  0  0  0  0  0  0  0  0
    2.0501   -8.3308    6.5615 H   0  0  0  0  0  0  0  0  0  0  0  0
    3.3420   -7.5529    5.6286 H   0  0  0  0  0  0  0  0  0  0  0  0
    4.0244   -8.8935    3.3556 H   0  0  0  0  0  0  0  0  0  0  0  0
    4.0580   -9.8167    1.8776 H   0  0  0  0  0  0  0  0  0  0  0  0
    2.7330   -7.6546    0.9051 H   0  0  0  0  0  0  0  0  0  0  0  0
    3.3227   -6.9233    2.3741 H   0  0  0  0  0  0  0  0  0  0  0  0
    5.7105   -7.9874    1.3683 H   0  0  0  0  0  0  0  0  0  0  0  0
    4.7921   -7.8878   -0.0939 H   0  0  0  0  0  0  0  0  0  0  0  0
    4.9052   -5.5958    2.8573 H   0  0  0  0  0  0  0  0  0  0  0  0
    6.6003   -5.6389    2.3958 H   0  0  0  0  0  0  0  0  0  0  0  0
    6.4745   -3.4398    1.5315 H   0  0  0  0  0  0  0  0  0  0  0  0
    4.1490   -3.5869    3.4656 H   0  0  0  0  0  0  0  0  0  0  0  0
    5.5367   -2.4846    3.4340 H   0  0  0  0  0  0  0  0  0  0  0  0
    2.3679   -0.6437    2.2061 H   0  0  0  0  0  0  0  0  0  0  0  0
    2.1232   -2.0855    3.1481 H   0  0  0  0  0  0  0  0  0  0  0  0
    4.1541   -1.2147    4.6501 H   0  0  0  0  0  0  0  0  0  0  0  0
    3.9256    0.3180    3.8735 H   0  0  0  0  0  0  0  0  0  0  0  0
    0.2667   -0.2642    6.5564 H   0  0  0  0  0  0  0  0  0  0  0  0
   -1.5589    1.4092    6.3029 H   0  0  0  0  0  0  0  0  0  0  0  0
   -3.1724    4.2152    2.4403 H   0  0  0  0  0  0  0  0  0  0  0  0
   -2.6672    2.4975    2.3813 H   0  0  0  0  0  0  0  0  0  0  0  0
   -1.4821    3.7964    2.0941 H   0  0  0  0  0  0  0  0  0  0  0  0
    0.5305    3.1922    2.9750 H   0  0  0  0  0  0  0  0  0  0  0  0
    2.3181    1.5663    3.1828 H   0  0  0  0  0  0  0  0  0  0  0  0
    2.5724   -3.3640    1.1904 H   0  0  0  0  0  0  0  0  0  0  0  0
    3.1511   -2.1210    0.0766 H   0  0  0  0  0  0  0  0  0  0  0  0
    5.2101   -3.2593   -0.2898 H   0  0  0  0  0  0  0  0  0  0  0  0
    4.2642   -5.3008   -0.9812 H   0  0  0  0  0  0  0  0  0  0  0  0
    3.2375   -5.3878    0.4505 H   0  0  0  0  0  0  0  0  0  0  0  0
   -1.3550   -4.9764    6.3467 H   0  0  0  0  0  0  0  0  0  0  0  0
    2.2805   -4.1346    8.2380 H   0  0  0  0  0  0  0  0  0  0  0  0
    6.0689   -5.9791    0.2070 H   0  0  0  0  0  0  0  0  0  0  0  0
    4.5616   -1.3095    1.7035 H   0  0  0  0  0  0  0  0  0  0  0  0
  1  2  1  0
  1 37  1  0
  1 38  1  0
  1 39  1  0
  2 31  1  0
  2  3  1  0
  3  4  1  0
  3 29  2  0
  4  5  1  0
  5  6  1  0
  5 40  1  0
  5 41  1  0
  6  7  1  0
  6 42  1  0
  6 43  1  0
  7  8  1  0
  7 44  1  0
  7 45  1  0
  8 28  1  0
  8  9  1  0
  8 69  1  6
  9 10  1  0
  9 46  1  0
  9 47  1  0
 10 27  1  0
 10 11  1  0
 10 48  1  6
 11 12  1  0
 11 49  1  0
 11 50  1  0
 12 13  1  0
 12 26  1  0
 12 70  1  6
 13 14  1  0
 13 51  1  0
 13 52  1  0
 14 15  1  0
 14 53  1  0
 14 54  1  0
 15 16  1  0
 16 25  1  0
 16 17  2  0
 17 18  1  0
 17 55  1  0
 18 19  2  0
 18 56  1  0
 19 20  1  0
 19 24  1  0
 20 21  1  0
 20 22  2  0
 20 23  2  0
 21 57  1  0
 21 58  1  0
 21 59  1  0
 24 25  2  0
 24 60  1  0
 25 61  1  0
 26 27  1  0
 26 62  1  0
 26 63  1  0
 27 28  1  0
 27 64  1  6
 28 65  1  0
 28 66  1  0
 29 30  1  0
 30 31  2  0
 31 32  1  0
 32 36  1  0
 32 33  2  0
 33 34  1  0
 33 67  1  0
 34 35  2  0
 35 36  1  0
 35 68  1  0
M  CHG  2   8   1  12   1
M  END
>  <i_m_ct_stereo_status>  (136) 
1

>  <s_m_source_file>  (136) 
/var/tmp/pbs.5076255.sched01/tmp5gbx45fw/500pp51iot.sdf

>  <i_m_source_file_index>  (136) 
6

>  <i_lp_mmshare_version>  (136) 
48012

>  <i_f3d_flags>  (136) 
0

>  <s_epik_input>  (136) 
bzFbY0hdbltjSF1jMS1jMm5uYyhuMltDSDNdKVNbQ0gyXVtDSDJdW0NIMl1OKFtDSDJdMylbQ0gyXVtDQEhdKFtDQEhdMzQpW0NIMl1OKFtDSDJdNClbQ0gyXVtDSDJdT2M1W2NIXVtjSF1jKFMoPU8pKD1PKVtDSDNdKVtjSF1bY0hdNQ==

>  <s_epik_cmdline>  (136) 
J2VwaWtfcHl0aG9uJywgJy1waHQnLCAnMi4wJywgJy1waCcsICc3LjAnLCAnLXRuJywgJzgnLCAnLW1hJywgJzIwMCcsICctaW1hZScsICc8aW5maWxlLm1hZT4nLCAnLW9tYWUnLCAnPG91dGZpbGUubWFlPic=

>  <r_lp_tautomer_probability>  (136) 
1

>  <r_epik_Ionization_Penalty>  (136) 
0.917358

>  <r_epik_Ionization_Penalty_Charging>  (136) 
0.917357

>  <r_epik_Ionization_Penalty_Neutral>  (136) 
3.87321e-07

>  <r_epik_State_Penalty>  (136) 
0.826619

>  <r_epik_Charging_Adjusted_Penalty>  (136) 
1.74398

>  <i_epik_Tot_Q>  (136) 
2

>  <i_epik_Tot_abs_Q>  (136) 
2

>  <s_lp_Force_Field>  (136) 
OPLS3e

>  <r_lp_Energy>  (136) 
29.8339

>  <b_lp_Chiralities_Consistent>  (136) 
1

>  <s_lp_Variant>  (136) 
33:0-3

>  <s_i_glide_gridfile>  (136) 
pfpi4k_grid

>  <i_i_glide_lignum>  (136) 
6

>  <i_i_glide_rotatable_bonds>  (136) 
11

>  <r_i_docking_score>  (136) 
-2.58263

>  <r_i_glide_ligand_efficiency>  (136) 
-0.0717397

>  <r_i_glide_ligand_efficiency_sa>  (136) 
-0.236879

>  <r_i_glide_ligand_efficiency_ln>  (136) 
-0.56346

>  <r_i_glide_gscore>  (136) 
-2.58263

>  <r_i_glide_lipo>  (136) 
-0.304672

>  <r_i_glide_hbond>  (136) 
0

>  <r_i_glide_metal>  (136) 
-0

>  <r_i_glide_rewards>  (136) 
0

>  <r_i_glide_evdw>  (136) 
-25.7835

>  <r_i_glide_ecoul>  (136) 
-9.56773

>  <r_i_glide_erotb>  (136) 
0.721926

>  <r_i_glide_esite>  (136) 
-0.275545

>  <r_i_glide_emodel>  (136) 
-36.7551

>  <r_i_glide_energy>  (136) 
-35.3513

>  <r_i_glide_einternal>  (136) 
14.2616

>  <r_i_glide_intrahb_reward>  (136) 
-0

>  <i_i_glide_confnum>  (136) 
2

>  <i_i_glide_posenum>  (136) 
19

>  <r_i_glide_eff_state_penalty>  (136) 
0

>  <ligand_id>  (136) 
33

>  <original_smiles>  (136) 
Cn1c(SCCCN2CC3CN(CCOc4ccc(S(C)(=O)=O)cc4)CC3C2)nnc1-c1cnco1

>  <smiles>  (136) 
[H]c1nc([H])c(-c2nnc(SC([H])([H])C([H])([H])C([H])([H])[N+]3([H])C([H])([H])C4([H])C([H])(C([H])([H])[N+]([H])(C([H])([H])C([H])([H])Oc5c([H])c([H])c(S(=O)(=O)C([H])([H])[H])c([H])c5[H])C4([H])[H])C3([H])[H])n2C([H])([H])[H])o1

$$$$
33:2:2
     RDKit          3D

 70 74  0  0  1  0  0  0  0  0999 V2000
    2.8296   -9.2440    1.8182 C   0  0  0  0  0  0  0  0  0  0  0  0
    2.5155   -8.3662    2.9534 N   0  0  0  0  0  0  0  0  0  0  0  0
    1.9467   -7.1441    2.9538 C   0  0  0  0  0  0  0  0  0  0  0  0
    1.4763   -6.3511    1.4556 S   0  0  0  0  0  0  0  0  0  0  0  0
    3.0219   -5.4529    1.1700 C   0  0  0  0  0  0  0  0  0  0  0  0
    2.9424   -4.0578    1.8491 C   0  0  0  0  0  0  0  0  0  0  0  0
    4.2070   -3.1762    1.5696 C   0  0  0  0  0  0  0  0  0  0  0  0
    3.9870   -1.7090    1.6996 N   0  0  2  0  0  0  0  0  0  0  0  0
    3.6165   -1.2251    3.0525 C   0  0  0  0  0  0  0  0  0  0  0  0
    3.0373    0.1779    2.8327 C   0  0  2  0  0  0  0  0  0  0  0  0
    1.7578    0.5325    3.6197 C   0  0  0  0  0  0  0  0  0  0  0  0
    0.8970    1.2464    2.6500 N   0  0  2  0  0  0  0  0  0  0  0  0
   -0.5360    1.3406    3.0001 C   0  0  0  0  0  0  0  0  0  0  0  0
   -0.7564    2.2836    4.1881 C   0  0  0  0  0  0  0  0  0  0  0  0
   -2.1318    2.6570    4.2194 O   0  0  0  0  0  0  0  0  0  0  0  0
   -2.5723    3.5823    3.2923 C   0  0  0  0  0  0  0  0  0  0  0  0
   -3.8579    3.3835    2.7891 C   0  0  0  0  0  0  0  0  0  0  0  0
   -4.5085    4.3722    2.0279 C   0  0  0  0  0  0  0  0  0  0  0  0
   -3.8035    5.5456    1.7034 C   0  0  0  0  0  0  0  0  0  0  0  0
   -4.5033    6.7286    0.5491 S   0  0  0  0  0  0  0  0  0  0  0  0
   -3.0877    7.1893   -0.5368 C   0  0  0  0  0  0  0  0  0  0  0  0
   -5.4693    6.0075   -0.3057 O   0  0  0  0  0  0  0  0  0  0  0  0
   -4.9292    7.9077    1.3092 O   0  0  0  0  0  0  0  0  0  0  0  0
   -2.4633    5.7172    2.0835 C   0  0  0  0  0  0  0  0  0  0  0  0
   -1.8675    4.7459    2.9273 C   0  0  0  0  0  0  0  0  0  0  0  0
    1.1430    0.5815    1.3652 C   0  0  0  0  0  0  0  0  0  0  0  0
    2.6559    0.2707    1.3522 C   0  0  2  0  0  0  0  0  0  0  0  0
    3.0640   -1.0691    0.7155 C   0  0  0  0  0  0  0  0  0  0  0  0
    1.7992   -6.6154    4.1714 N   0  0  0  0  0  0  0  0  0  0  0  0
    2.3219   -7.5407    5.0299 N   0  0  0  0  0  0  0  0  0  0  0  0
    2.7333   -8.5649    4.2692 C   0  0  0  0  0  0  0  0  0  0  0  0
    3.3429   -9.7543    4.8604 C   0  0  0  0  0  0  0  0  0  0  0  0
    3.9964  -10.8431    4.3316 C   0  0  0  0  0  0  0  0  0  0  0  0
    4.3768  -11.6564    5.3910 N   0  0  0  0  0  0  0  0  0  0  0  0
    3.8889  -11.0659    6.4788 C   0  0  0  0  0  0  0  0  0  0  0  0
    3.2816   -9.8779    6.2206 O   0  0  0  0  0  0  0  0  0  0  0  0
    2.4007   -8.8728    0.8910 H   0  0  0  0  0  0  0  0  0  0  0  0
    2.4271  -10.2301    1.9947 H   0  0  0  0  0  0  0  0  0  0  0  0
    3.9038   -9.3152    1.7065 H   0  0  0  0  0  0  0  0  0  0  0  0
    3.8866   -6.0346    1.4987 H   0  0  0  0  0  0  0  0  0  0  0  0
    3.1048   -5.2964    0.0923 H   0  0  0  0  0  0  0  0  0  0  0  0
    2.0068   -3.6344    1.4810 H   0  0  0  0  0  0  0  0  0  0  0  0
    2.8287   -4.1828    2.9451 H   0  0  0  0  0  0  0  0  0  0  0  0
    4.9997   -3.4717    2.2342 H   0  0  0  0  0  0  0  0  0  0  0  0
    4.6052   -3.3549    0.5889 H   0  0  0  0  0  0  0  0  0  0  0  0
    2.8498   -1.8700    3.4732 H   0  0  0  0  0  0  0  0  0  0  0  0
    4.4731   -1.2236    3.7255 H   0  0  0  0  0  0  0  0  0  0  0  0
    3.8124    0.9353    3.0204 H   0  0  0  0  0  0  0  0  0  0  0  0
    1.2469   -0.3820    3.9368 H   0  0  0  0  0  0  0  0  0  0  0  0
    1.9771    1.1399    4.4955 H   0  0  0  0  0  0  0  0  0  0  0  0
   -1.0659    1.7171    2.1338 H   0  0  0  0  0  0  0  0  0  0  0  0
   -0.9779    0.3634    3.2084 H   0  0  0  0  0  0  0  0  0  0  0  0
   -0.5221    1.7720    5.1287 H   0  0  0  0  0  0  0  0  0  0  0  0
   -0.1037    3.1695    4.1762 H   0  0  0  0  0  0  0  0  0  0  0  0
   -4.3523    2.4630    3.0249 H   0  0  0  0  0  0  0  0  0  0  0  0
   -5.5209    4.2060    1.6853 H   0  0  0  0  0  0  0  0  0  0  0  0
   -3.4480    7.8848   -1.2845 H   0  0  0  0  0  0  0  0  0  0  0  0
   -2.6870    6.3023   -1.0285 H   0  0  0  0  0  0  0  0  0  0  0  0
   -2.3068    7.6750    0.0457 H   0  0  0  0  0  0  0  0  0  0  0  0
   -1.8925    6.5980    1.8462 H   0  0  0  0  0  0  0  0  0  0  0  0
   -0.9009    4.9559    3.3726 H   0  0  0  0  0  0  0  0  0  0  0  0
    0.5406   -0.3307    1.3447 H   0  0  0  0  0  0  0  0  0  0  0  0
    0.7786    1.1826    0.5417 H   0  0  0  0  0  0  0  0  0  0  0  0
    3.2511    1.0799    0.9206 H   0  0  0  0  0  0  0  0  0  0  0  0
    3.5120   -0.9560   -0.2828 H   0  0  0  0  0  0  0  0  0  0  0  0
    2.1789   -1.6587    0.6091 H   0  0  0  0  0  0  0  0  0  0  0  0
    4.2473  -11.1265    3.3107 H   0  0  0  0  0  0  0  0  0  0  0  0
    4.0134  -11.4698    7.4790 H   0  0  0  0  0  0  0  0  0  0  0  0
    4.8845   -1.2737    1.5172 H   0  0  0  0  0  0  0  0  0  0  0  0
    1.2533    2.1930    2.5305 H   0  0  0  0  0  0  0  0  0  0  0  0
  1  2  1  0
  1 37  1  0
  1 38  1  0
  1 39  1  0
  2 31  1  0
  2  3  1  0
  3  4  1  0
  3 29  2  0
  4  5  1  0
  5  6  1  0
  5 40  1  0
  5 41  1  0
  6  7  1  0
  6 42  1  0
  6 43  1  0
  7  8  1  0
  7 44  1  0
  7 45  1  0
  8 28  1  0
  8  9  1  0
  8 69  1  6
  9 10  1  0
  9 46  1  0
  9 47  1  0
 10 27  1  0
 10 11  1  0
 10 48  1  6
 11 12  1  0
 11 49  1  0
 11 50  1  0
 12 13  1  0
 12 26  1  0
 12 70  1  6
 13 14  1  0
 13 51  1  0
 13 52  1  0
 14 15  1  0
 14 53  1  0
 14 54  1  0
 15 16  1  0
 16 25  1  0
 16 17  2  0
 17 18  1  0
 17 55  1  0
 18 19  2  0
 18 56  1  0
 19 20  1  0
 19 24  1  0
 20 21  1  0
 20 22  2  0
 20 23  2  0
 21 57  1  0
 21 58  1  0
 21 59  1  0
 24 25  2  0
 24 60  1  0
 25 61  1  0
 26 27  1  0
 26 62  1  0
 26 63  1  0
 27 28  1  0
 27 64  1  6
 28 65  1  0
 28 66  1  0
 29 30  1  0
 30 31  2  0
 31 32  1  0
 32 36  1  0
 32 33  2  0
 33 34  1  0
 33 67  1  0
 34 35  2  0
 35 36  1  0
 35 68  1  0
M  CHG  2   8   1  12   1
M  END
>  <i_m_ct_stereo_status>  (137) 
1

>  <s_m_source_file>  (137) 
/var/tmp/pbs.5076255.sched01/tmp5gbx45fw/500pp51iot.sdf

>  <i_m_source_file_index>  (137) 
6

>  <i_lp_mmshare_version>  (137) 
48012

>  <i_f3d_flags>  (137) 
0

>  <s_epik_input>  (137) 
bzFbY0hdbltjSF1jMS1jMm5uYyhuMltDSDNdKVNbQ0gyXVtDSDJdW0NIMl1OKFtDSDJdMylbQ0gyXVtDQEhdKFtDQEhdMzQpW0NIMl1OKFtDSDJdNClbQ0gyXVtDSDJdT2M1W2NIXVtjSF1jKFMoPU8pKD1PKVtDSDNdKVtjSF1bY0hdNQ==

>  <s_epik_cmdline>  (137) 
J2VwaWtfcHl0aG9uJywgJy1waHQnLCAnMi4wJywgJy1waCcsICc3LjAnLCAnLXRuJywgJzgnLCAnLW1hJywgJzIwMCcsICctaW1hZScsICc8aW5maWxlLm1hZT4nLCAnLW9tYWUnLCAnPG91dGZpbGUubWFlPic=

>  <r_lp_tautomer_probability>  (137) 
1

>  <r_epik_Ionization_Penalty>  (137) 
0.917358

>  <r_epik_Ionization_Penalty_Charging>  (137) 
0.917357

>  <r_epik_Ionization_Penalty_Neutral>  (137) 
3.87321e-07

>  <r_epik_State_Penalty>  (137) 
0.826619

>  <r_epik_Charging_Adjusted_Penalty>  (137) 
1.74398

>  <i_epik_Tot_Q>  (137) 
2

>  <i_epik_Tot_abs_Q>  (137) 
2

>  <s_lp_Force_Field>  (137) 
OPLS3e

>  <r_lp_Energy>  (137) 
29.8339

>  <b_lp_Chiralities_Consistent>  (137) 
1

>  <s_lp_Variant>  (137) 
33:0-3

>  <s_i_glide_gridfile>  (137) 
pfpi4k_grid

>  <i_i_glide_lignum>  (137) 
6

>  <i_i_glide_rotatable_bonds>  (137) 
11

>  <r_i_docking_score>  (137) 
-2.5285

>  <r_i_glide_ligand_efficiency>  (137) 
-0.0702362

>  <r_i_glide_ligand_efficiency_sa>  (137) 
-0.231915

>  <r_i_glide_ligand_efficiency_ln>  (137) 
-0.551651

>  <r_i_glide_gscore>  (137) 
-2.5285

>  <r_i_glide_lipo>  (137) 
-0.264404

>  <r_i_glide_hbond>  (137) 
0

>  <r_i_glide_metal>  (137) 
-0

>  <r_i_glide_rewards>  (137) 
-0.308431

>  <r_i_glide_evdw>  (137) 
-21.6322

>  <r_i_glide_ecoul>  (137) 
-10.1774

>  <r_i_glide_erotb>  (137) 
0.721926

>  <r_i_glide_esite>  (137) 
-0.0693668

>  <r_i_glide_emodel>  (137) 
-32.4055

>  <r_i_glide_energy>  (137) 
-31.8096

>  <r_i_glide_einternal>  (137) 
14.0538

>  <r_i_glide_intrahb_reward>  (137) 
-0

>  <i_i_glide_confnum>  (137) 
2

>  <i_i_glide_posenum>  (137) 
1

>  <r_i_glide_eff_state_penalty>  (137) 
0

>  <ligand_id>  (137) 
33

>  <original_smiles>  (137) 
Cn1c(SCCCN2CC3CN(CCOc4ccc(S(C)(=O)=O)cc4)CC3C2)nnc1-c1cnco1

>  <smiles>  (137) 
[H]c1nc([H])c(-c2nnc(SC([H])([H])C([H])([H])C([H])([H])[N+]3([H])C([H])([H])C4([H])C([H])(C([H])([H])[N+]([H])(C([H])([H])C([H])([H])Oc5c([H])c([H])c(S(=O)(=O)C([H])([H])[H])c([H])c5[H])C4([H])[H])C3([H])[H])n2C([H])([H])[H])o1

$$$$
33:4:0
     RDKit          3D

 69 73  0  0  1  0  0  0  0  0999 V2000
    3.4923   -7.6753    2.6572 C   0  0  0  0  0  0  0  0  0  0  0  0
    2.6166   -6.9502    1.7288 N   0  0  0  0  0  0  0  0  0  0  0  0
    2.9046   -5.9159    0.9141 C   0  0  0  0  0  0  0  0  0  0  0  0
    4.5129   -5.2024    0.8316 S   0  0  0  0  0  0  0  0  0  0  0  0
    4.0676   -3.4738    0.4697 C   0  0  0  0  0  0  0  0  0  0  0  0
    3.3413   -2.8099    1.6543 C   0  0  0  0  0  0  0  0  0  0  0  0
    3.1571   -1.2913    1.4733 C   0  0  0  0  0  0  0  0  0  0  0  0
    2.4166   -0.6777    2.5770 N   0  0  0  0  0  0  0  0  0  0  0  0
    1.0060   -1.0410    2.5781 C   0  0  0  0  0  0  0  0  0  0  0  0
    0.3644    0.0108    3.4842 C   0  0  2  0  0  0  0  0  0  0  0  0
   -1.0128    0.5395    3.0735 C   0  0  0  0  0  0  0  0  0  0  0  0
   -0.9671    1.9995    3.2808 N   0  0  2  0  0  0  0  0  0  0  0  0
   -2.0051    2.7491    2.5254 C   0  0  0  0  0  0  0  0  0  0  0  0
   -3.1375    3.2885    3.3912 C   0  0  0  0  0  0  0  0  0  0  0  0
   -4.2832    3.5943    2.5836 O   0  0  0  0  0  0  0  0  0  0  0  0
   -4.4490    4.8646    2.0787 C   0  0  0  0  0  0  0  0  0  0  0  0
   -5.7569    5.2768    1.7380 C   0  0  0  0  0  0  0  0  0  0  0  0
   -6.0016    6.5321    1.1424 C   0  0  0  0  0  0  0  0  0  0  0  0
   -4.9183    7.4016    0.9271 C   0  0  0  0  0  0  0  0  0  0  0  0
   -5.2001    8.9877    0.1599 S   0  0  0  0  0  0  0  0  0  0  0  0
   -5.0426    8.6601   -1.6306 C   0  0  0  0  0  0  0  0  0  0  0  0
   -6.5872    9.3826    0.4392 O   0  0  0  0  0  0  0  0  0  0  0  0
   -4.0939    9.8798    0.5354 O   0  0  0  0  0  0  0  0  0  0  0  0
   -3.6123    7.0350    1.2882 C   0  0  0  0  0  0  0  0  0  0  0  0
   -3.3936    5.7863    1.9031 C   0  0  0  0  0  0  0  0  0  0  0  0
    0.4291    2.3872    2.9694 C   0  0  0  0  0  0  0  0  0  0  0  0
    1.2957    1.2056    3.4221 C   0  0  2  0  0  0  0  0  0  0  0  0
    2.4207    0.7787    2.4776 C   0  0  0  0  0  0  0  0  0  0  0  0
    1.8617   -5.4904    0.1939 N   0  0  0  0  0  0  0  0  0  0  0  0
    0.8060   -6.2645    0.5914 N   0  0  0  0  0  0  0  0  0  0  0  0
    1.2995   -7.1311    1.4776 C   0  0  0  0  0  0  0  0  0  0  0  0
    0.4531   -8.1410    2.1037 C   0  0  0  0  0  0  0  0  0  0  0  0
   -0.9052   -8.3101    2.1241 C   0  0  0  0  0  0  0  0  0  0  0  0
   -1.1750   -9.4342    2.8711 N   0  0  0  0  0  0  0  0  0  0  0  0
    0.0052   -9.8889    3.2748 C   0  0  0  0  0  0  0  0  0  0  0  0
    1.0473   -9.1428    2.8308 O   0  0  0  0  0  0  0  0  0  0  0  0
    4.3598   -7.0808    2.9477 H   0  0  0  0  0  0  0  0  0  0  0  0
    3.8200   -8.6180    2.2096 H   0  0  0  0  0  0  0  0  0  0  0  0
    2.9582   -7.8952    3.5796 H   0  0  0  0  0  0  0  0  0  0  0  0
    4.9747   -2.9240    0.2125 H   0  0  0  0  0  0  0  0  0  0  0  0
    3.4474   -3.4376   -0.4244 H   0  0  0  0  0  0  0  0  0  0  0  0
    2.3718   -3.2885    1.7864 H   0  0  0  0  0  0  0  0  0  0  0  0
    3.8996   -3.0022    2.5700 H   0  0  0  0  0  0  0  0  0  0  0  0
    4.1463   -0.8344    1.4249 H   0  0  0  0  0  0  0  0  0  0  0  0
    2.6662   -1.0844    0.5198 H   0  0  0  0  0  0  0  0  0  0  0  0
    0.6207   -0.9590    1.5639 H   0  0  0  0  0  0  0  0  0  0  0  0
    0.8405   -2.0555    2.9474 H   0  0  0  0  0  0  0  0  0  0  0  0
    0.3179   -0.3519    4.5081 H   0  0  0  0  0  0  0  0  0  0  0  0
   -1.1810    0.3517    2.0122 H   0  0  0  0  0  0  0  0  0  0  0  0
   -1.8192    0.0869    3.6514 H   0  0  0  0  0  0  0  0  0  0  0  0
   -1.5174    3.6170    2.0790 H   0  0  0  0  0  0  0  0  0  0  0  0
   -2.4386    2.1373    1.7267 H   0  0  0  0  0  0  0  0  0  0  0  0
   -3.4346    2.5353    4.1134 H   0  0  0  0  0  0  0  0  0  0  0  0
   -2.7942    4.1313    3.9941 H   0  0  0  0  0  0  0  0  0  0  0  0
   -6.5858    4.6233    1.9576 H   0  0  0  0  0  0  0  0  0  0  0  0
   -7.0050    6.8234    0.8637 H   0  0  0  0  0  0  0  0  0  0  0  0
   -5.2194    9.5909   -2.1691 H   0  0  0  0  0  0  0  0  0  0  0  0
   -5.7794    7.9163   -1.9290 H   0  0  0  0  0  0  0  0  0  0  0  0
   -4.0415    8.2868   -1.8405 H   0  0  0  0  0  0  0  0  0  0  0  0
   -2.7693    7.6882    1.1004 H   0  0  0  0  0  0  0  0  0  0  0  0
   -2.3750    5.5332    2.1338 H   0  0  0  0  0  0  0  0  0  0  0  0
    0.5325    2.5158    1.8934 H   0  0  0  0  0  0  0  0  0  0  0  0
    0.6951    3.3307    3.4507 H   0  0  0  0  0  0  0  0  0  0  0  0
    1.6819    1.3960    4.4198 H   0  0  0  0  0  0  0  0  0  0  0  0
    3.3854    1.1984    2.7726 H   0  0  0  0  0  0  0  0  0  0  0  0
    2.1932    1.0799    1.4541 H   0  0  0  0  0  0  0  0  0  0  0  0
   -1.7175   -7.7442    1.6812 H   0  0  0  0  0  0  0  0  0  0  0  0
    0.1328  -10.7610    3.9066 H   0  0  0  0  0  0  0  0  0  0  0  0
   -1.0984    2.1744    4.2644 H   0  0  0  0  0  0  0  0  0  0  0  0
  1  2  1  0
  1 37  1  0
  1 38  1  0
  1 39  1  0
  2 31  1  0
  2  3  1  0
  3  4  1  0
  3 29  2  0
  4  5  1  0
  5  6  1  0
  5 40  1  0
  5 41  1  0
  6  7  1  0
  6 42  1  0
  6 43  1  0
  7  8  1  0
  7 44  1  0
  7 45  1  0
  8 28  1  0
  8  9  1  0
  9 10  1  0
  9 46  1  0
  9 47  1  0
 10 27  1  0
 10 11  1  0
 10 48  1  1
 11 12  1  0
 11 49  1  0
 11 50  1  0
 12 13  1  0
 12 26  1  0
 12 69  1  1
 13 14  1  0
 13 51  1  0
 13 52  1  0
 14 15  1  0
 14 53  1  0
 14 54  1  0
 15 16  1  0
 16 25  1  0
 16 17  2  0
 17 18  1  0
 17 55  1  0
 18 19  2  0
 18 56  1  0
 19 20  1  0
 19 24  1  0
 20 21  1  0
 20 22  2  0
 20 23  2  0
 21 57  1  0
 21 58  1  0
 21 59  1  0
 24 25  2  0
 24 60  1  0
 25 61  1  0
 26 27  1  0
 26 62  1  0
 26 63  1  0
 27 28  1  0
 27 64  1  1
 28 65  1  0
 28 66  1  0
 29 30  1  0
 30 31  2  0
 31 32  1  0
 32 36  1  0
 32 33  2  0
 33 34  1  0
 33 67  1  0
 34 35  2  0
 35 36  1  0
 35 68  1  0
M  CHG  1  12   1
M  END
>  <i_m_ct_stereo_status>  (138) 
1

>  <s_m_source_file>  (138) 
/var/tmp/pbs.5076255.sched01/tmp5gbx45fw/500pp51iot.sdf

>  <i_m_source_file_index>  (138) 
8

>  <i_lp_mmshare_version>  (138) 
48012

>  <i_f3d_flags>  (138) 
0

>  <s_epik_input>  (138) 
bzFbY0hdbltjSF1jMS1jMm5uYyhuMltDSDNdKVNbQ0gyXVtDSDJdW0NIMl1OKFtDSDJdMylbQ0gyXVtDQEhdKFtDQEhdMzQpW0NIMl1OKFtDSDJdNClbQ0gyXVtDSDJdT2M1W2NIXVtjSF1jKFMoPU8pKD1PKVtDSDNdKVtjSF1bY0hdNQ==

>  <s_epik_cmdline>  (138) 
J2VwaWtfcHl0aG9uJywgJy1waHQnLCAnMi4wJywgJy1waCcsICc3LjAnLCAnLXRuJywgJzgnLCAnLW1hJywgJzIwMCcsICctaW1hZScsICc8aW5maWxlLm1hZT4nLCAnLW9tYWUnLCAnPG91dGZpbGUubWFlPic=

>  <r_epik_Ionization_Penalty>  (138) 
0.86407

>  <r_epik_Ionization_Penalty_Charging>  (138) 
0.0257394

>  <r_epik_Ionization_Penalty_Neutral>  (138) 
0.838331

>  <r_epik_State_Penalty>  (138) 
1.54522

>  <r_epik_Charging_Adjusted_Penalty>  (138) 
1.57096

>  <i_epik_Tot_Q>  (138) 
1

>  <i_epik_Tot_abs_Q>  (138) 
1

>  <s_lp_Force_Field>  (138) 
OPLS3e

>  <r_lp_Energy>  (138) 
10.974

>  <b_lp_Chiralities_Consistent>  (138) 
1

>  <s_lp_Variant>  (138) 
33:0-5

>  <s_i_glide_gridfile>  (138) 
pfpi4k_grid

>  <i_i_glide_lignum>  (138) 
8

>  <i_i_glide_rotatable_bonds>  (138) 
11

>  <r_i_docking_score>  (138) 
-3.72428

>  <r_i_glide_ligand_efficiency>  (138) 
-0.103452

>  <r_i_glide_ligand_efficiency_sa>  (138) 
-0.341592

>  <r_i_glide_ligand_efficiency_ln>  (138) 
-0.812537

>  <r_i_glide_gscore>  (138) 
-3.72428

>  <r_i_glide_lipo>  (138) 
-0.770564

>  <r_i_glide_hbond>  (138) 
0

>  <r_i_glide_metal>  (138) 
-0

>  <r_i_glide_rewards>  (138) 
-0.41031

>  <r_i_glide_evdw>  (138) 
-39.3927

>  <r_i_glide_ecoul>  (138) 
-6.64079

>  <r_i_glide_erotb>  (138) 
0.72444

>  <r_i_glide_esite>  (138) 
-0.30209

>  <r_i_glide_emodel>  (138) 
-53.7854

>  <r_i_glide_energy>  (138) 
-46.0335

>  <r_i_glide_einternal>  (138) 
4.53167

>  <r_i_glide_intrahb_reward>  (138) 
-0

>  <i_i_glide_confnum>  (138) 
3

>  <i_i_glide_posenum>  (138) 
33

>  <r_i_glide_eff_state_penalty>  (138) 
0

>  <ligand_id>  (138) 
33

>  <original_smiles>  (138) 
Cn1c(SCCCN2CC3CN(CCOc4ccc(S(C)(=O)=O)cc4)CC3C2)nnc1-c1cnco1

>  <smiles>  (138) 
[H]c1nc([H])c(-c2nnc(SC([H])([H])C([H])([H])C([H])([H])N3C([H])([H])C4([H])C([H])(C3([H])[H])C([H])([H])[N+]([H])(C([H])([H])C([H])([H])Oc3c([H])c([H])c(S(=O)(=O)C([H])([H])[H])c([H])c3[H])C4([H])[H])n2C([H])([H])[H])o1

$$$$
33:4:1
     RDKit          3D

 69 73  0  0  1  0  0  0  0  0999 V2000
    4.5268   -8.7833    1.4530 C   0  0  0  0  0  0  0  0  0  0  0  0
    3.4442   -7.7828    1.3817 N   0  0  0  0  0  0  0  0  0  0  0  0
    3.4730   -6.5423    0.8450 C   0  0  0  0  0  0  0  0  0  0  0  0
    4.9429   -5.8291    0.1703 S   0  0  0  0  0  0  0  0  0  0  0  0
    4.3633   -4.1452   -0.2258 C   0  0  0  0  0  0  0  0  0  0  0  0
    4.0475   -3.3236    1.0481 C   0  0  0  0  0  0  0  0  0  0  0  0
    3.6600   -1.8699    0.7499 C   0  0  0  0  0  0  0  0  0  0  0  0
    3.1927   -1.1782    1.9554 N   0  0  0  0  0  0  0  0  0  0  0  0
    1.8394   -1.5590    2.3578 C   0  0  0  0  0  0  0  0  0  0  0  0
    1.4238   -0.4309    3.3051 C   0  0  2  0  0  0  0  0  0  0  0  0
   -0.0305    0.0431    3.2210 C   0  0  0  0  0  0  0  0  0  0  0  0
    0.0225    1.5197    3.2612 N   0  0  2  0  0  0  0  0  0  0  0  0
   -1.1956    2.2003    2.7371 C   0  0  0  0  0  0  0  0  0  0  0  0
   -1.5829    3.4045    3.6072 C   0  0  0  0  0  0  0  0  0  0  0  0
   -2.9254    3.7651    3.2733 O   0  0  0  0  0  0  0  0  0  0  0  0
   -3.1951    4.8570    2.4818 C   0  0  0  0  0  0  0  0  0  0  0  0
   -4.5275    4.9919    2.0033 C   0  0  0  0  0  0  0  0  0  0  0  0
   -4.8911    6.0511    1.1286 C   0  0  0  0  0  0  0  0  0  0  0  0
   -3.9103    6.9830    0.7376 C   0  0  0  0  0  0  0  0  0  0  0  0
   -4.3210    8.3320   -0.3735 S   0  0  0  0  0  0  0  0  0  0  0  0
   -4.2471    9.8033    0.7085 C   0  0  0  0  0  0  0  0  0  0  0  0
   -3.2612    8.4690   -1.3900 O   0  0  0  0  0  0  0  0  0  0  0  0
   -5.7211    8.1623   -0.7767 O   0  0  0  0  0  0  0  0  0  0  0  0
   -2.5965    6.8956    1.2302 C   0  0  0  0  0  0  0  0  0  0  0  0
   -2.2391    5.8462    2.0783 C   0  0  0  0  0  0  0  0  0  0  0  0
    1.2796    1.8926    2.5743 C   0  0  0  0  0  0  0  0  0  0  0  0
    2.2666    0.7627    2.8950 C   0  0  2  0  0  0  0  0  0  0  0  0
    3.1195    0.2588    1.7332 C   0  0  0  0  0  0  0  0  0  0  0  0
    2.2755   -5.9465    0.8350 N   0  0  0  0  0  0  0  0  0  0  0  0
    1.4309   -6.7942    1.4957 N   0  0  0  0  0  0  0  0  0  0  0  0
    2.1644   -7.8827    1.7857 C   0  0  0  0  0  0  0  0  0  0  0  0
    1.5400   -9.0253    2.4324 C   0  0  0  0  0  0  0  0  0  0  0  0
    0.2638   -9.2457    2.8558 C   0  0  0  0  0  0  0  0  0  0  0  0
    0.2392  -10.5193    3.3965 N   0  0  0  0  0  0  0  0  0  0  0  0
    1.4719  -10.9979    3.2845 C   0  0  0  0  0  0  0  0  0  0  0  0
    2.3156  -10.1311    2.6766 O   0  0  0  0  0  0  0  0  0  0  0  0
    5.5193   -8.3301    1.4043 H   0  0  0  0  0  0  0  0  0  0  0  0
    4.4143   -9.5250    0.6500 H   0  0  0  0  0  0  0  0  0  0  0  0
    4.5000   -9.3040    2.4096 H   0  0  0  0  0  0  0  0  0  0  0  0
    5.1256   -3.6389   -0.8248 H   0  0  0  0  0  0  0  0  0  0  0  0
    3.4937   -4.2208   -0.8790 H   0  0  0  0  0  0  0  0  0  0  0  0
    3.2214   -3.7495    1.6058 H   0  0  0  0  0  0  0  0  0  0  0  0
    4.8959   -3.3744    1.7319 H   0  0  0  0  0  0  0  0  0  0  0  0
    4.5456   -1.3711    0.3539 H   0  0  0  0  0  0  0  0  0  0  0  0
    2.8933   -1.8389   -0.0285 H   0  0  0  0  0  0  0  0  0  0  0  0
    1.1921   -1.5846    1.4818 H   0  0  0  0  0  0  0  0  0  0  0  0
    1.8185   -2.5356    2.8454 H   0  0  0  0  0  0  0  0  0  0  0  0
    1.6606   -0.6968    4.3302 H   0  0  0  0  0  0  0  0  0  0  0  0
   -0.4509   -0.2383    2.2615 H   0  0  0  0  0  0  0  0  0  0  0  0
   -0.6691   -0.3595    4.0120 H   0  0  0  0  0  0  0  0  0  0  0  0
   -1.0444    2.5157    1.7007 H   0  0  0  0  0  0  0  0  0  0  0  0
   -2.0443    1.5097    2.7106 H   0  0  0  0  0  0  0  0  0  0  0  0
   -1.5888    3.1442    4.6673 H   0  0  0  0  0  0  0  0  0  0  0  0
   -0.8092    4.1665    3.5379 H   0  0  0  0  0  0  0  0  0  0  0  0
   -5.2920    4.2797    2.2832 H   0  0  0  0  0  0  0  0  0  0  0  0
   -5.9003    6.1270    0.7488 H   0  0  0  0  0  0  0  0  0  0  0  0
   -4.4897   10.6927    0.1269 H   0  0  0  0  0  0  0  0  0  0  0  0
   -3.2434    9.9068    1.1230 H   0  0  0  0  0  0  0  0  0  0  0  0
   -4.9757    9.6837    1.5066 H   0  0  0  0  0  0  0  0  0  0  0  0
   -1.8518    7.6020    0.8986 H   0  0  0  0  0  0  0  0  0  0  0  0
   -1.1913    5.8533    2.3605 H   0  0  0  0  0  0  0  0  0  0  0  0
    1.0997    1.9225    1.4995 H   0  0  0  0  0  0  0  0  0  0  0  0
    1.6247    2.8816    2.8866 H   0  0  0  0  0  0  0  0  0  0  0  0
    2.8950    1.0510    3.7310 H   0  0  0  0  0  0  0  0  0  0  0  0
    4.1146    0.7038    1.7193 H   0  0  0  0  0  0  0  0  0  0  0  0
    2.6202    0.4489    0.7851 H   0  0  0  0  0  0  0  0  0  0  0  0
   -0.6282   -8.6259    2.8138 H   0  0  0  0  0  0  0  0  0  0  0  0
    1.8042  -11.9712    3.6252 H   0  0  0  0  0  0  0  0  0  0  0  0
    0.1252    1.7680    4.2376 H   0  0  0  0  0  0  0  0  0  0  0  0
  1  2  1  0
  1 37  1  0
  1 38  1  0
  1 39  1  0
  2 31  1  0
  2  3  1  0
  3  4  1  0
  3 29  2  0
  4  5  1  0
  5  6  1  0
  5 40  1  0
  5 41  1  0
  6  7  1  0
  6 42  1  0
  6 43  1  0
  7  8  1  0
  7 44  1  0
  7 45  1  0
  8 28  1  0
  8  9  1  0
  9 10  1  0
  9 46  1  0
  9 47  1  0
 10 27  1  0
 10 11  1  0
 10 48  1  1
 11 12  1  0
 11 49  1  0
 11 50  1  0
 12 13  1  0
 12 26  1  0
 12 69  1  1
 13 14  1  0
 13 51  1  0
 13 52  1  0
 14 15  1  0
 14 53  1  0
 14 54  1  0
 15 16  1  0
 16 25  1  0
 16 17  2  0
 17 18  1  0
 17 55  1  0
 18 19  2  0
 18 56  1  0
 19 20  1  0
 19 24  1  0
 20 21  1  0
 20 22  2  0
 20 23  2  0
 21 57  1  0
 21 58  1  0
 21 59  1  0
 24 25  2  0
 24 60  1  0
 25 61  1  0
 26 27  1  0
 26 62  1  0
 26 63  1  0
 27 28  1  0
 27 64  1  1
 28 65  1  0
 28 66  1  0
 29 30  1  0
 30 31  2  0
 31 32  1  0
 32 36  1  0
 32 33  2  0
 33 34  1  0
 33 67  1  0
 34 35  2  0
 35 36  1  0
 35 68  1  0
M  CHG  1  12   1
M  END
>  <i_m_ct_stereo_status>  (139) 
1

>  <s_m_source_file>  (139) 
/var/tmp/pbs.5076255.sched01/tmp5gbx45fw/500pp51iot.sdf

>  <i_m_source_file_index>  (139) 
8

>  <i_lp_mmshare_version>  (139) 
48012

>  <i_f3d_flags>  (139) 
0

>  <s_epik_input>  (139) 
bzFbY0hdbltjSF1jMS1jMm5uYyhuMltDSDNdKVNbQ0gyXVtDSDJdW0NIMl1OKFtDSDJdMylbQ0gyXVtDQEhdKFtDQEhdMzQpW0NIMl1OKFtDSDJdNClbQ0gyXVtDSDJdT2M1W2NIXVtjSF1jKFMoPU8pKD1PKVtDSDNdKVtjSF1bY0hdNQ==

>  <s_epik_cmdline>  (139) 
J2VwaWtfcHl0aG9uJywgJy1waHQnLCAnMi4wJywgJy1waCcsICc3LjAnLCAnLXRuJywgJzgnLCAnLW1hJywgJzIwMCcsICctaW1hZScsICc8aW5maWxlLm1hZT4nLCAnLW9tYWUnLCAnPG91dGZpbGUubWFlPic=

>  <r_epik_Ionization_Penalty>  (139) 
0.86407

>  <r_epik_Ionization_Penalty_Charging>  (139) 
0.0257394

>  <r_epik_Ionization_Penalty_Neutral>  (139) 
0.838331

>  <r_epik_State_Penalty>  (139) 
1.54522

>  <r_epik_Charging_Adjusted_Penalty>  (139) 
1.57096

>  <i_epik_Tot_Q>  (139) 
1

>  <i_epik_Tot_abs_Q>  (139) 
1

>  <s_lp_Force_Field>  (139) 
OPLS3e

>  <r_lp_Energy>  (139) 
10.974

>  <b_lp_Chiralities_Consistent>  (139) 
1

>  <s_lp_Variant>  (139) 
33:0-5

>  <s_i_glide_gridfile>  (139) 
pfpi4k_grid

>  <i_i_glide_lignum>  (139) 
8

>  <i_i_glide_rotatable_bonds>  (139) 
11

>  <r_i_docking_score>  (139) 
-3.47129

>  <r_i_glide_ligand_efficiency>  (139) 
-0.0964247

>  <r_i_glide_ligand_efficiency_sa>  (139) 
-0.318387

>  <r_i_glide_ligand_efficiency_ln>  (139) 
-0.757342

>  <r_i_glide_gscore>  (139) 
-3.47129

>  <r_i_glide_lipo>  (139) 
-0.69578

>  <r_i_glide_hbond>  (139) 
0

>  <r_i_glide_metal>  (139) 
-0

>  <r_i_glide_rewards>  (139) 
-0.321558

>  <r_i_glide_evdw>  (139) 
-33.4588

>  <r_i_glide_ecoul>  (139) 
-8.77256

>  <r_i_glide_erotb>  (139) 
0.72444

>  <r_i_glide_esite>  (139) 
-0.189567

>  <r_i_glide_emodel>  (139) 
-49.1178

>  <r_i_glide_energy>  (139) 
-42.2313

>  <r_i_glide_einternal>  (139) 
5.27549

>  <r_i_glide_intrahb_reward>  (139) 
-0

>  <i_i_glide_confnum>  (139) 
3

>  <i_i_glide_posenum>  (139) 
23

>  <r_i_glide_eff_state_penalty>  (139) 
0

>  <ligand_id>  (139) 
33

>  <original_smiles>  (139) 
Cn1c(SCCCN2CC3CN(CCOc4ccc(S(C)(=O)=O)cc4)CC3C2)nnc1-c1cnco1

>  <smiles>  (139) 
[H]c1nc([H])c(-c2nnc(SC([H])([H])C([H])([H])C([H])([H])N3C([H])([H])C4([H])C([H])(C3([H])[H])C([H])([H])[N+]([H])(C([H])([H])C([H])([H])Oc3c([H])c([H])c(S(=O)(=O)C([H])([H])[H])c([H])c3[H])C4([H])[H])n2C([H])([H])[H])o1

$$$$
33:4:2
     RDKit          3D

 69 73  0  0  1  0  0  0  0  0999 V2000
    4.4894   -7.8258    1.7850 C   0  0  0  0  0  0  0  0  0  0  0  0
    3.3945   -6.9168    1.4433 N   0  0  0  0  0  0  0  0  0  0  0  0
    3.4505   -5.6912    0.8782 C   0  0  0  0  0  0  0  0  0  0  0  0
    4.9845   -4.8795    0.5027 S   0  0  0  0  0  0  0  0  0  0  0  0
    4.4173   -3.1588    0.2891 C   0  0  0  0  0  0  0  0  0  0  0  0
    3.8925   -2.5420    1.6018 C   0  0  0  0  0  0  0  0  0  0  0  0
    3.6227   -1.0309    1.4929 C   0  0  0  0  0  0  0  0  0  0  0  0
    2.7795   -0.5350    2.5808 N   0  0  0  0  0  0  0  0  0  0  0  0
    1.4001   -1.0062    2.4976 C   0  0  0  0  0  0  0  0  0  0  0  0
    0.6395   -0.0513    3.4173 C   0  0  2  0  0  0  0  0  0  0  0  0
   -0.7589    0.3837    2.9542 C   0  0  0  0  0  0  0  0  0  0  0  0
   -0.8342    1.8312    3.2407 N   0  0  2  0  0  0  0  0  0  0  0  0
   -1.9012    2.5442    2.4839 C   0  0  0  0  0  0  0  0  0  0  0  0
   -2.8107    3.4166    3.3680 C   0  0  0  0  0  0  0  0  0  0  0  0
   -4.0032    3.7216    2.6296 O   0  0  0  0  0  0  0  0  0  0  0  0
   -4.2054    4.9785    2.0787 C   0  0  0  0  0  0  0  0  0  0  0  0
   -5.5069    5.2843    1.6518 C   0  0  0  0  0  0  0  0  0  0  0  0
   -5.8004    6.5074    1.0127 C   0  0  0  0  0  0  0  0  0  0  0  0
   -4.7745    7.4538    0.8386 C   0  0  0  0  0  0  0  0  0  0  0  0
   -5.1099    9.0005    0.0105 S   0  0  0  0  0  0  0  0  0  0  0  0
   -5.0028    8.5833   -1.7736 C   0  0  0  0  0  0  0  0  0  0  0  0
   -6.5012    9.3725    0.3145 O   0  0  0  0  0  0  0  0  0  0  0  0
   -4.0188    9.9340    0.3032 O   0  0  0  0  0  0  0  0  0  0  0  0
   -3.4685    7.1707    1.2785 C   0  0  0  0  0  0  0  0  0  0  0  0
   -3.1931    5.9438    1.9043 C   0  0  0  0  0  0  0  0  0  0  0  0
    0.5347    2.3450    2.9954 C   0  0  0  0  0  0  0  0  0  0  0  0
    1.4748    1.2162    3.4465 C   0  0  2  0  0  0  0  0  0  0  0  0
    2.6684    0.9177    2.5365 C   0  0  0  0  0  0  0  0  0  0  0  0
    2.2445   -5.1650    0.6386 N   0  0  0  0  0  0  0  0  0  0  0  0
    1.3412   -6.0574    1.1467 N   0  0  0  0  0  0  0  0  0  0  0  0
    2.0598   -7.0920    1.5950 C   0  0  0  0  0  0  0  0  0  0  0  0
    1.4088   -8.2689    2.1406 C   0  0  0  0  0  0  0  0  0  0  0  0
    0.1015   -8.5166    2.4769 C   0  0  0  0  0  0  0  0  0  0  0  0
    0.0259   -9.8173    2.9459 N   0  0  0  0  0  0  0  0  0  0  0  0
    1.2685  -10.2848    2.8810 C   0  0  0  0  0  0  0  0  0  0  0  0
    2.1550   -9.3963    2.3666 O   0  0  0  0  0  0  0  0  0  0  0  0
    5.4355   -7.3005    1.9266 H   0  0  0  0  0  0  0  0  0  0  0  0
    4.6043   -8.5790    1.0013 H   0  0  0  0  0  0  0  0  0  0  0  0
    4.2812   -8.3321    2.7246 H   0  0  0  0  0  0  0  0  0  0  0  0
    5.2441   -2.5715   -0.1116 H   0  0  0  0  0  0  0  0  0  0  0  0
    3.6491   -3.1374   -0.4825 H   0  0  0  0  0  0  0  0  0  0  0  0
    2.9770   -3.0483    1.8877 H   0  0  0  0  0  0  0  0  0  0  0  0
    4.5932   -2.7390    2.4129 H   0  0  0  0  0  0  0  0  0  0  0  0
    4.5852   -0.5174    1.5216 H   0  0  0  0  0  0  0  0  0  0  0  0
    3.1626   -0.7953    0.5317 H   0  0  0  0  0  0  0  0  0  0  0  0
    1.0444   -0.9247    1.4733 H   0  0  0  0  0  0  0  0  0  0  0  0
    1.2908   -2.0358    2.8330 H   0  0  0  0  0  0  0  0  0  0  0  0
    0.5809   -0.4601    4.4254 H   0  0  0  0  0  0  0  0  0  0  0  0
   -0.8551    0.2279    1.8755 H   0  0  0  0  0  0  0  0  0  0  0  0
   -1.5630   -0.1545    3.4671 H   0  0  0  0  0  0  0  0  0  0  0  0
   -1.4244    3.2110    1.7755 H   0  0  0  0  0  0  0  0  0  0  0  0
   -2.5221    1.8409    1.9187 H   0  0  0  0  0  0  0  0  0  0  0  0
   -3.1010    2.8581    4.2643 H   0  0  0  0  0  0  0  0  0  0  0  0
   -2.2518    4.2813    3.7430 H   0  0  0  0  0  0  0  0  0  0  0  0
   -6.2937    4.5593    1.7989 H   0  0  0  0  0  0  0  0  0  0  0  0
   -6.7997    6.7242    0.6539 H   0  0  0  0  0  0  0  0  0  0  0  0
   -5.2131    9.4851   -2.3521 H   0  0  0  0  0  0  0  0  0  0  0  0
   -5.7397    7.8149   -2.0117 H   0  0  0  0  0  0  0  0  0  0  0  0
   -4.0029    8.2116   -2.0054 H   0  0  0  0  0  0  0  0  0  0  0  0
   -2.6613    7.8731    1.1186 H   0  0  0  0  0  0  0  0  0  0  0  0
   -2.1626    5.7458    2.1547 H   0  0  0  0  0  0  0  0  0  0  0  0
    0.6874    2.5198    1.9268 H   0  0  0  0  0  0  0  0  0  0  0  0
    0.7033    3.2883    3.5240 H   0  0  0  0  0  0  0  0  0  0  0  0
    1.8005    1.3948    4.4701 H   0  0  0  0  0  0  0  0  0  0  0  0
    3.5762    1.4002    2.8929 H   0  0  0  0  0  0  0  0  0  0  0  0
    2.4647    1.2428    1.5172 H   0  0  0  0  0  0  0  0  0  0  0  0
   -0.7785   -7.8872    2.4012 H   0  0  0  0  0  0  0  0  0  0  0  0
    1.5685  -11.2770    3.1744 H   0  0  0  0  0  0  0  0  0  0  0  0
   -1.0305    1.9250    4.2247 H   0  0  0  0  0  0  0  0  0  0  0  0
  1  2  1  0
  1 37  1  0
  1 38  1  0
  1 39  1  0
  2 31  1  0
  2  3  1  0
  3  4  1  0
  3 29  2  0
  4  5  1  0
  5  6  1  0
  5 40  1  0
  5 41  1  0
  6  7  1  0
  6 42  1  0
  6 43  1  0
  7  8  1  0
  7 44  1  0
  7 45  1  0
  8 28  1  0
  8  9  1  0
  9 10  1  0
  9 46  1  0
  9 47  1  0
 10 27  1  0
 10 11  1  0
 10 48  1  1
 11 12  1  0
 11 49  1  0
 11 50  1  0
 12 13  1  0
 12 26  1  0
 12 69  1  1
 13 14  1  0
 13 51  1  0
 13 52  1  0
 14 15  1  0
 14 53  1  0
 14 54  1  0
 15 16  1  0
 16 25  1  0
 16 17  2  0
 17 18  1  0
 17 55  1  0
 18 19  2  0
 18 56  1  0
 19 20  1  0
 19 24  1  0
 20 21  1  0
 20 22  2  0
 20 23  2  0
 21 57  1  0
 21 58  1  0
 21 59  1  0
 24 25  2  0
 24 60  1  0
 25 61  1  0
 26 27  1  0
 26 62  1  0
 26 63  1  0
 27 28  1  0
 27 64  1  1
 28 65  1  0
 28 66  1  0
 29 30  1  0
 30 31  2  0
 31 32  1  0
 32 36  1  0
 32 33  2  0
 33 34  1  0
 33 67  1  0
 34 35  2  0
 35 36  1  0
 35 68  1  0
M  CHG  1  12   1
M  END
>  <i_m_ct_stereo_status>  (140) 
1

>  <s_m_source_file>  (140) 
/var/tmp/pbs.5076255.sched01/tmp5gbx45fw/500pp51iot.sdf

>  <i_m_source_file_index>  (140) 
8

>  <i_lp_mmshare_version>  (140) 
48012

>  <i_f3d_flags>  (140) 
0

>  <s_epik_input>  (140) 
bzFbY0hdbltjSF1jMS1jMm5uYyhuMltDSDNdKVNbQ0gyXVtDSDJdW0NIMl1OKFtDSDJdMylbQ0gyXVtDQEhdKFtDQEhdMzQpW0NIMl1OKFtDSDJdNClbQ0gyXVtDSDJdT2M1W2NIXVtjSF1jKFMoPU8pKD1PKVtDSDNdKVtjSF1bY0hdNQ==

>  <s_epik_cmdline>  (140) 
J2VwaWtfcHl0aG9uJywgJy1waHQnLCAnMi4wJywgJy1waCcsICc3LjAnLCAnLXRuJywgJzgnLCAnLW1hJywgJzIwMCcsICctaW1hZScsICc8aW5maWxlLm1hZT4nLCAnLW9tYWUnLCAnPG91dGZpbGUubWFlPic=

>  <r_epik_Ionization_Penalty>  (140) 
0.86407

>  <r_epik_Ionization_Penalty_Charging>  (140) 
0.0257394

>  <r_epik_Ionization_Penalty_Neutral>  (140) 
0.838331

>  <r_epik_State_Penalty>  (140) 
1.54522

>  <r_epik_Charging_Adjusted_Penalty>  (140) 
1.57096

>  <i_epik_Tot_Q>  (140) 
1

>  <i_epik_Tot_abs_Q>  (140) 
1

>  <s_lp_Force_Field>  (140) 
OPLS3e

>  <r_lp_Energy>  (140) 
10.974

>  <b_lp_Chiralities_Consistent>  (140) 
1

>  <s_lp_Variant>  (140) 
33:0-5

>  <s_i_glide_gridfile>  (140) 
pfpi4k_grid

>  <i_i_glide_lignum>  (140) 
8

>  <i_i_glide_rotatable_bonds>  (140) 
11

>  <r_i_docking_score>  (140) 
-3.44912

>  <r_i_glide_ligand_efficiency>  (140) 
-0.095809

>  <r_i_glide_ligand_efficiency_sa>  (140) 
-0.316354

>  <r_i_glide_ligand_efficiency_ln>  (140) 
-0.752505

>  <r_i_glide_gscore>  (140) 
-3.44912

>  <r_i_glide_lipo>  (140) 
-0.941942

>  <r_i_glide_hbond>  (140) 
0

>  <r_i_glide_metal>  (140) 
-0

>  <r_i_glide_rewards>  (140) 
-0.479614

>  <r_i_glide_evdw>  (140) 
-36.9675

>  <r_i_glide_ecoul>  (140) 
-4.65038

>  <r_i_glide_erotb>  (140) 
0.72444

>  <r_i_glide_esite>  (140) 
-0.206076

>  <r_i_glide_emodel>  (140) 
-48.5171

>  <r_i_glide_energy>  (140) 
-41.6179

>  <r_i_glide_einternal>  (140) 
5.50816

>  <r_i_glide_intrahb_reward>  (140) 
-0

>  <i_i_glide_confnum>  (140) 
3

>  <i_i_glide_posenum>  (140) 
38

>  <r_i_glide_eff_state_penalty>  (140) 
0

>  <ligand_id>  (140) 
33

>  <original_smiles>  (140) 
Cn1c(SCCCN2CC3CN(CCOc4ccc(S(C)(=O)=O)cc4)CC3C2)nnc1-c1cnco1

>  <smiles>  (140) 
[H]c1nc([H])c(-c2nnc(SC([H])([H])C([H])([H])C([H])([H])N3C([H])([H])C4([H])C([H])(C3([H])[H])C([H])([H])[N+]([H])(C([H])([H])C([H])([H])Oc3c([H])c([H])c(S(=O)(=O)C([H])([H])[H])c([H])c3[H])C4([H])[H])n2C([H])([H])[H])o1

$$$$
33:5:0
     RDKit          3D

 69 73  0  0  1  0  0  0  0  0999 V2000
    2.2917   -9.5153    1.7842 C   0  0  0  0  0  0  0  0  0  0  0  0
    2.4535   -8.6513    2.9456 N   0  0  0  0  0  0  0  0  0  0  0  0
    3.5891   -8.2552    3.5583 C   0  0  0  0  0  0  0  0  0  0  0  0
    5.2187   -8.7291    3.0394 S   0  0  0  0  0  0  0  0  0  0  0  0
    5.2678   -7.9659    1.3868 C   0  0  0  0  0  0  0  0  0  0  0  0
    5.2011   -6.4287    1.4311 C   0  0  0  0  0  0  0  0  0  0  0  0
    4.8116   -5.8247    0.0665 C   0  0  0  0  0  0  0  0  0  0  0  0
    4.9055   -4.3689    0.0320 N   0  0  0  0  0  0  0  0  0  0  0  0
    6.2596   -3.8700    0.2511 C   0  0  0  0  0  0  0  0  0  0  0  0
    6.2134   -2.4316   -0.2716 C   0  0  2  0  0  0  0  0  0  0  0  0
    5.8245   -1.3912    0.7917 C   0  0  0  0  0  0  0  0  0  0  0  0
    4.3665   -1.2134    0.6551 N   0  0  1  0  0  0  0  0  0  0  0  0
    3.8243    0.0425    1.2328 C   0  0  0  0  0  0  0  0  0  0  0  0
    3.8331    0.0329    2.7887 C   0  0  0  0  0  0  0  0  0  0  0  0
    3.5016    1.2994    3.3506 O   0  0  0  0  0  0  0  0  0  0  0  0
    2.2000    1.7401    3.3258 C   0  0  0  0  0  0  0  0  0  0  0  0
    1.9493    2.9981    3.9159 C   0  0  0  0  0  0  0  0  0  0  0  0
    0.6416    3.5180    3.9475 C   0  0  0  0  0  0  0  0  0  0  0  0
   -0.4111    2.7875    3.3590 C   0  0  0  0  0  0  0  0  0  0  0  0
   -2.0735    3.4302    3.4231 S   0  0  0  0  0  0  0  0  0  0  0  0
   -2.6141    3.0167    5.1378 C   0  0  0  0  0  0  0  0  0  0  0  0
   -2.0093    4.8926    3.2885 O   0  0  0  0  0  0  0  0  0  0  0  0
   -2.9122    2.6639    2.4953 O   0  0  0  0  0  0  0  0  0  0  0  0
   -0.1747    1.5307    2.7743 C   0  0  0  0  0  0  0  0  0  0  0  0
    1.1248    1.0044    2.7650 C   0  0  0  0  0  0  0  0  0  0  0  0
    4.0669   -1.3810   -0.7787 C   0  0  0  0  0  0  0  0  0  0  0  0
    5.0727   -2.4242   -1.2909 C   0  0  2  0  0  0  0  0  0  0  0  0
    4.5422   -3.8617   -1.2883 C   0  0  0  0  0  0  0  0  0  0  0  0
    3.3797   -7.4577    4.6102 N   0  0  0  0  0  0  0  0  0  0  0  0
    2.0154   -7.2991    4.6857 N   0  0  0  0  0  0  0  0  0  0  0  0
    1.4990   -8.0313    3.6891 C   0  0  0  0  0  0  0  0  0  0  0  0
    0.0591   -8.0949    3.4540 C   0  0  0  0  0  0  0  0  0  0  0  0
   -1.0003   -7.4342    4.0232 C   0  0  0  0  0  0  0  0  0  0  0  0
   -2.1656   -7.8431    3.3847 N   0  0  0  0  0  0  0  0  0  0  0  0
   -1.7696   -8.7688    2.5186 C   0  0  0  0  0  0  0  0  0  0  0  0
   -0.4220   -8.9332    2.4831 O   0  0  0  0  0  0  0  0  0  0  0  0
    3.1967  -10.0886    1.5857 H   0  0  0  0  0  0  0  0  0  0  0  0
    2.0413   -8.9134    0.9100 H   0  0  0  0  0  0  0  0  0  0  0  0
    1.5048  -10.2467    1.9537 H   0  0  0  0  0  0  0  0  0  0  0  0
    6.1974   -8.2776    0.9095 H   0  0  0  0  0  0  0  0  0  0  0  0
    4.4733   -8.3714    0.7658 H   0  0  0  0  0  0  0  0  0  0  0  0
    4.4760   -6.0917    2.1719 H   0  0  0  0  0  0  0  0  0  0  0  0
    6.1722   -6.0695    1.7739 H   0  0  0  0  0  0  0  0  0  0  0  0
    5.4238   -6.2447   -0.7232 H   0  0  0  0  0  0  0  0  0  0  0  0
    3.7868   -6.1185   -0.1647 H   0  0  0  0  0  0  0  0  0  0  0  0
    6.5630   -3.9214    1.2957 H   0  0  0  0  0  0  0  0  0  0  0  0
    6.9760   -4.4460   -0.3333 H   0  0  0  0  0  0  0  0  0  0  0  0
    7.1720   -2.1646   -0.7169 H   0  0  0  0  0  0  0  0  0  0  0  0
    6.1163   -1.6893    1.8012 H   0  0  0  0  0  0  0  0  0  0  0  0
    6.3168   -0.4418    0.5672 H   0  0  0  0  0  0  0  0  0  0  0  0
    4.3610    0.9138    0.8546 H   0  0  0  0  0  0  0  0  0  0  0  0
    2.8085    0.1468    0.8537 H   0  0  0  0  0  0  0  0  0  0  0  0
    3.2004   -0.7552    3.2109 H   0  0  0  0  0  0  0  0  0  0  0  0
    4.8451   -0.1822    3.1466 H   0  0  0  0  0  0  0  0  0  0  0  0
    2.7588    3.5680    4.3542 H   0  0  0  0  0  0  0  0  0  0  0  0
    0.4401    4.4721    4.4081 H   0  0  0  0  0  0  0  0  0  0  0  0
   -3.6423    3.3478    5.2820 H   0  0  0  0  0  0  0  0  0  0  0  0
   -1.9619    3.5070    5.8608 H   0  0  0  0  0  0  0  0  0  0  0  0
   -2.5576    1.9366    5.2812 H   0  0  0  0  0  0  0  0  0  0  0  0
   -0.9767    0.9677    2.3246 H   0  0  0  0  0  0  0  0  0  0  0  0
    1.2549    0.0339    2.3150 H   0  0  0  0  0  0  0  0  0  0  0  0
    3.0252   -1.6606   -0.9543 H   0  0  0  0  0  0  0  0  0  0  0  0
    4.2471   -0.4313   -1.2875 H   0  0  0  0  0  0  0  0  0  0  0  0
    5.4158   -2.1447   -2.2882 H   0  0  0  0  0  0  0  0  0  0  0  0
    5.0572   -4.4275   -2.0673 H   0  0  0  0  0  0  0  0  0  0  0  0
    3.4715   -3.9233   -1.4828 H   0  0  0  0  0  0  0  0  0  0  0  0
   -1.0165   -6.7018    4.8184 H   0  0  0  0  0  0  0  0  0  0  0  0
   -2.4290   -9.3113    1.8624 H   0  0  0  0  0  0  0  0  0  0  0  0
    3.9311   -2.0063    1.1081 H   0  0  0  0  0  0  0  0  0  0  0  0
  1  2  1  0
  1 37  1  0
  1 38  1  0
  1 39  1  0
  2 31  1  0
  2  3  1  0
  3  4  1  0
  3 29  2  0
  4  5  1  0
  5  6  1  0
  5 40  1  0
  5 41  1  0
  6  7  1  0
  6 42  1  0
  6 43  1  0
  7  8  1  0
  7 44  1  0
  7 45  1  0
  8 28  1  0
  8  9  1  0
  9 10  1  0
  9 46  1  0
  9 47  1  0
 10 27  1  0
 10 11  1  0
 10 48  1  6
 11 12  1  0
 11 49  1  0
 11 50  1  0
 12 13  1  0
 12 26  1  0
 12 69  1  1
 13 14  1  0
 13 51  1  0
 13 52  1  0
 14 15  1  0
 14 53  1  0
 14 54  1  0
 15 16  1  0
 16 25  1  0
 16 17  2  0
 17 18  1  0
 17 55  1  0
 18 19  2  0
 18 56  1  0
 19 20  1  0
 19 24  1  0
 20 21  1  0
 20 22  2  0
 20 23  2  0
 21 57  1  0
 21 58  1  0
 21 59  1  0
 24 25  2  0
 24 60  1  0
 25 61  1  0
 26 27  1  0
 26 62  1  0
 26 63  1  0
 27 28  1  0
 27 64  1  6
 28 65  1  0
 28 66  1  0
 29 30  1  0
 30 31  2  0
 31 32  1  0
 32 36  1  0
 32 33  2  0
 33 34  1  0
 33 67  1  0
 34 35  2  0
 35 36  1  0
 35 68  1  0
M  CHG  1  12   1
M  END
>  <i_m_ct_stereo_status>  (141) 
1

>  <s_m_source_file>  (141) 
/var/tmp/pbs.5076255.sched01/tmp5gbx45fw/500pp51iot.sdf

>  <i_m_source_file_index>  (141) 
9

>  <i_lp_mmshare_version>  (141) 
48012

>  <i_f3d_flags>  (141) 
0

>  <s_epik_input>  (141) 
bzFbY0hdbltjSF1jMS1jMm5uYyhuMltDSDNdKVNbQ0gyXVtDSDJdW0NIMl1OKFtDSDJdMylbQ0gyXVtDQEhdKFtDQEhdMzQpW0NIMl1OKFtDSDJdNClbQ0gyXVtDSDJdT2M1W2NIXVtjSF1jKFMoPU8pKD1PKVtDSDNdKVtjSF1bY0hdNQ==

>  <s_epik_cmdline>  (141) 
J2VwaWtfcHl0aG9uJywgJy1waHQnLCAnMi4wJywgJy1waCcsICc3LjAnLCAnLXRuJywgJzgnLCAnLW1hJywgJzIwMCcsICctaW1hZScsICc8aW5maWxlLm1hZT4nLCAnLW9tYWUnLCAnPG91dGZpbGUubWFlPic=

>  <r_epik_Ionization_Penalty>  (141) 
0.86407

>  <r_epik_Ionization_Penalty_Charging>  (141) 
0.0257394

>  <r_epik_Ionization_Penalty_Neutral>  (141) 
0.838331

>  <r_epik_State_Penalty>  (141) 
1.54522

>  <r_epik_Charging_Adjusted_Penalty>  (141) 
1.57096

>  <i_epik_Tot_Q>  (141) 
1

>  <i_epik_Tot_abs_Q>  (141) 
1

>  <s_lp_Force_Field>  (141) 
OPLS3e

>  <r_lp_Energy>  (141) 
11.0296

>  <b_lp_Chiralities_Consistent>  (141) 
1

>  <s_lp_Variant>  (141) 
33:0-6

>  <s_i_glide_gridfile>  (141) 
pfpi4k_grid

>  <i_i_glide_lignum>  (141) 
9

>  <i_i_glide_rotatable_bonds>  (141) 
11

>  <r_i_docking_score>  (141) 
-3.06367

>  <r_i_glide_ligand_efficiency>  (141) 
-0.0851019

>  <r_i_glide_ligand_efficiency_sa>  (141) 
-0.281

>  <r_i_glide_ligand_efficiency_ln>  (141) 
-0.668409

>  <r_i_glide_gscore>  (141) 
-3.06367

>  <r_i_glide_lipo>  (141) 
-0.702886

>  <r_i_glide_hbond>  (141) 
0

>  <r_i_glide_metal>  (141) 
-0

>  <r_i_glide_rewards>  (141) 
0

>  <r_i_glide_evdw>  (141) 
-39.698

>  <r_i_glide_ecoul>  (141) 
-6.12309

>  <r_i_glide_erotb>  (141) 
0.72444

>  <r_i_glide_esite>  (141) 
-0.181859

>  <r_i_glide_emodel>  (141) 
-53.0765

>  <r_i_glide_energy>  (141) 
-45.8211

>  <r_i_glide_einternal>  (141) 
2.61401

>  <r_i_glide_intrahb_reward>  (141) 
-0

>  <i_i_glide_confnum>  (141) 
5

>  <i_i_glide_posenum>  (141) 
40

>  <r_i_glide_eff_state_penalty>  (141) 
0

>  <ligand_id>  (141) 
33

>  <original_smiles>  (141) 
Cn1c(SCCCN2CC3CN(CCOc4ccc(S(C)(=O)=O)cc4)CC3C2)nnc1-c1cnco1

>  <smiles>  (141) 
[H]c1nc([H])c(-c2nnc(SC([H])([H])C([H])([H])C([H])([H])N3C([H])([H])C4([H])C([H])(C3([H])[H])C([H])([H])[N+]([H])(C([H])([H])C([H])([H])Oc3c([H])c([H])c(S(=O)(=O)C([H])([H])[H])c([H])c3[H])C4([H])[H])n2C([H])([H])[H])o1

$$$$
33:5:1
     RDKit          3D

 69 73  0  0  1  0  0  0  0  0999 V2000
    3.1675  -10.3058    5.7707 C   0  0  0  0  0  0  0  0  0  0  0  0
    2.8826   -8.9774    5.2470 N   0  0  0  0  0  0  0  0  0  0  0  0
    3.3164   -8.3808    4.1117 C   0  0  0  0  0  0  0  0  0  0  0  0
    4.4128   -9.1637    2.9567 S   0  0  0  0  0  0  0  0  0  0  0  0
    4.0091   -8.2703    1.4142 C   0  0  0  0  0  0  0  0  0  0  0  0
    4.5238   -6.8109    1.3749 C   0  0  0  0  0  0  0  0  0  0  0  0
    4.3426   -6.1488    0.0037 C   0  0  0  0  0  0  0  0  0  0  0  0
    4.5773   -4.7070    0.0585 N   0  0  0  0  0  0  0  0  0  0  0  0
    5.9497   -4.3536    0.3841 C   0  0  0  0  0  0  0  0  0  0  0  0
    6.0771   -2.8950   -0.0681 C   0  0  2  0  0  0  0  0  0  0  0  0
    5.7307   -1.8634    1.0185 C   0  0  0  0  0  0  0  0  0  0  0  0
    4.3080   -1.5313    0.8087 N   0  0  1  0  0  0  0  0  0  0  0  0
    3.8620   -0.2506    1.4090 C   0  0  0  0  0  0  0  0  0  0  0  0
    3.8281   -0.3016    2.9631 C   0  0  0  0  0  0  0  0  0  0  0  0
    3.5832    0.9821    3.5427 O   0  0  0  0  0  0  0  0  0  0  0  0
    2.3115    1.5065    3.5092 C   0  0  0  0  0  0  0  0  0  0  0  0
    2.1258    2.7484    4.1527 C   0  0  0  0  0  0  0  0  0  0  0  0
    0.8576    3.3590    4.1662 C   0  0  0  0  0  0  0  0  0  0  0  0
   -0.2238    2.7383    3.5142 C   0  0  0  0  0  0  0  0  0  0  0  0
   -1.8486    3.4862    3.5631 S   0  0  0  0  0  0  0  0  0  0  0  0
   -2.5227    2.9442    5.1839 C   0  0  0  0  0  0  0  0  0  0  0  0
   -1.6760    4.9343    3.6262 O   0  0  0  0  0  0  0  0  0  0  0  0
   -2.6870    2.8987    2.5185 O   0  0  0  0  0  0  0  0  0  0  0  0
   -0.0549    1.4982    2.8759 C   0  0  0  0  0  0  0  0  0  0  0  0
    1.2032    0.8782    2.8839 C   0  0  0  0  0  0  0  0  0  0  0  0
    4.0777   -1.6080   -0.6452 C   0  0  0  0  0  0  0  0  0  0  0  0
    5.0062   -2.7258   -1.1473 C   0  0  2  0  0  0  0  0  0  0  0  0
    4.3394   -4.0978   -1.2421 C   0  0  0  0  0  0  0  0  0  0  0  0
    2.8482   -7.1386    3.9723 N   0  0  0  0  0  0  0  0  0  0  0  0
    2.0789   -6.8913    5.0671 N   0  0  0  0  0  0  0  0  0  0  0  0
    2.1048   -8.0163    5.7858 C   0  0  0  0  0  0  0  0  0  0  0  0
    1.3822   -8.0865    7.0417 C   0  0  0  0  0  0  0  0  0  0  0  0
    0.6992   -9.1015    7.6674 C   0  0  0  0  0  0  0  0  0  0  0  0
    0.1965   -8.5982    8.8646 N   0  0  0  0  0  0  0  0  0  0  0  0
    0.6163   -7.3357    8.9017 C   0  0  0  0  0  0  0  0  0  0  0  0
    1.3356   -6.9588    7.8159 O   0  0  0  0  0  0  0  0  0  0  0  0
    4.0360  -10.7464    5.2803 H   0  0  0  0  0  0  0  0  0  0  0  0
    2.3038  -10.9516    5.6128 H   0  0  0  0  0  0  0  0  0  0  0  0
    3.3716  -10.2475    6.8393 H   0  0  0  0  0  0  0  0  0  0  0  0
    4.4570   -8.8321    0.5933 H   0  0  0  0  0  0  0  0  0  0  0  0
    2.9315   -8.3241    1.2582 H   0  0  0  0  0  0  0  0  0  0  0  0
    3.9842   -6.1750    2.0697 H   0  0  0  0  0  0  0  0  0  0  0  0
    5.5686   -6.7878    1.6861 H   0  0  0  0  0  0  0  0  0  0  0  0
    4.9823   -6.6345   -0.7344 H   0  0  0  0  0  0  0  0  0  0  0  0
    3.3080   -6.2856   -0.3167 H   0  0  0  0  0  0  0  0  0  0  0  0
    6.1769   -4.4930    1.4409 H   0  0  0  0  0  0  0  0  0  0  0  0
    6.6311   -4.9713   -0.1966 H   0  0  0  0  0  0  0  0  0  0  0  0
    7.0817   -2.7022   -0.4494 H   0  0  0  0  0  0  0  0  0  0  0  0
    5.9290   -2.2283    2.0290 H   0  0  0  0  0  0  0  0  0  0  0  0
    6.3296   -0.9556    0.8654 H   0  0  0  0  0  0  0  0  0  0  0  0
    4.4986    0.5741    1.0675 H   0  0  0  0  0  0  0  0  0  0  0  0
    2.8711   -0.0395    1.0026 H   0  0  0  0  0  0  0  0  0  0  0  0
    3.1124   -1.0439    3.3442 H   0  0  0  0  0  0  0  0  0  0  0  0
    4.8063   -0.6146    3.3456 H   0  0  0  0  0  0  0  0  0  0  0  0
    2.9554    3.2376    4.6485 H   0  0  0  0  0  0  0  0  0  0  0  0
    0.7086    4.3014    4.6700 H   0  0  0  0  0  0  0  0  0  0  0  0
   -3.5312    3.3375    5.3028 H   0  0  0  0  0  0  0  0  0  0  0  0
   -1.8803    3.3035    5.9873 H   0  0  0  0  0  0  0  0  0  0  0  0
   -2.5658    1.8565    5.1983 H   0  0  0  0  0  0  0  0  0  0  0  0
   -0.8791    1.0188    2.3751 H   0  0  0  0  0  0  0  0  0  0  0  0
    1.2760   -0.0779    2.3930 H   0  0  0  0  0  0  0  0  0  0  0  0
    3.0242   -1.7705   -0.8902 H   0  0  0  0  0  0  0  0  0  0  0  0
    4.3811   -0.6555   -1.0996 H   0  0  0  0  0  0  0  0  0  0  0  0
    5.4337   -2.4438   -2.1117 H   0  0  0  0  0  0  0  0  0  0  0  0
    4.8403   -4.6757   -2.0167 H   0  0  0  0  0  0  0  0  0  0  0  0
    3.2804   -4.0430   -1.4931 H   0  0  0  0  0  0  0  0  0  0  0  0
    0.5277  -10.1215    7.3545 H   0  0  0  0  0  0  0  0  0  0  0  0
    0.4086   -6.6529    9.7070 H   0  0  0  0  0  0  0  0  0  0  0  0
    3.7669   -2.2917    1.2054 H   0  0  0  0  0  0  0  0  0  0  0  0
  1  2  1  0
  1 37  1  0
  1 38  1  0
  1 39  1  0
  2 31  1  0
  2  3  1  0
  3  4  1  0
  3 29  2  0
  4  5  1  0
  5  6  1  0
  5 40  1  0
  5 41  1  0
  6  7  1  0
  6 42  1  0
  6 43  1  0
  7  8  1  0
  7 44  1  0
  7 45  1  0
  8 28  1  0
  8  9  1  0
  9 10  1  0
  9 46  1  0
  9 47  1  0
 10 27  1  0
 10 11  1  0
 10 48  1  6
 11 12  1  0
 11 49  1  0
 11 50  1  0
 12 13  1  0
 12 26  1  0
 12 69  1  1
 13 14  1  0
 13 51  1  0
 13 52  1  0
 14 15  1  0
 14 53  1  0
 14 54  1  0
 15 16  1  0
 16 25  1  0
 16 17  2  0
 17 18  1  0
 17 55  1  0
 18 19  2  0
 18 56  1  0
 19 20  1  0
 19 24  1  0
 20 21  1  0
 20 22  2  0
 20 23  2  0
 21 57  1  0
 21 58  1  0
 21 59  1  0
 24 25  2  0
 24 60  1  0
 25 61  1  0
 26 27  1  0
 26 62  1  0
 26 63  1  0
 27 28  1  0
 27 64  1  6
 28 65  1  0
 28 66  1  0
 29 30  1  0
 30 31  2  0
 31 32  1  0
 32 36  1  0
 32 33  2  0
 33 34  1  0
 33 67  1  0
 34 35  2  0
 35 36  1  0
 35 68  1  0
M  CHG  1  12   1
M  END
>  <i_m_ct_stereo_status>  (142) 
1

>  <s_m_source_file>  (142) 
/var/tmp/pbs.5076255.sched01/tmp5gbx45fw/500pp51iot.sdf

>  <i_m_source_file_index>  (142) 
9

>  <i_lp_mmshare_version>  (142) 
48012

>  <i_f3d_flags>  (142) 
0

>  <s_epik_input>  (142) 
bzFbY0hdbltjSF1jMS1jMm5uYyhuMltDSDNdKVNbQ0gyXVtDSDJdW0NIMl1OKFtDSDJdMylbQ0gyXVtDQEhdKFtDQEhdMzQpW0NIMl1OKFtDSDJdNClbQ0gyXVtDSDJdT2M1W2NIXVtjSF1jKFMoPU8pKD1PKVtDSDNdKVtjSF1bY0hdNQ==

>  <s_epik_cmdline>  (142) 
J2VwaWtfcHl0aG9uJywgJy1waHQnLCAnMi4wJywgJy1waCcsICc3LjAnLCAnLXRuJywgJzgnLCAnLW1hJywgJzIwMCcsICctaW1hZScsICc8aW5maWxlLm1hZT4nLCAnLW9tYWUnLCAnPG91dGZpbGUubWFlPic=

>  <r_epik_Ionization_Penalty>  (142) 
0.86407

>  <r_epik_Ionization_Penalty_Charging>  (142) 
0.0257394

>  <r_epik_Ionization_Penalty_Neutral>  (142) 
0.838331

>  <r_epik_State_Penalty>  (142) 
1.54522

>  <r_epik_Charging_Adjusted_Penalty>  (142) 
1.57096

>  <i_epik_Tot_Q>  (142) 
1

>  <i_epik_Tot_abs_Q>  (142) 
1

>  <s_lp_Force_Field>  (142) 
OPLS3e

>  <r_lp_Energy>  (142) 
11.0296

>  <b_lp_Chiralities_Consistent>  (142) 
1

>  <s_lp_Variant>  (142) 
33:0-6

>  <s_i_glide_gridfile>  (142) 
pfpi4k_grid

>  <i_i_glide_lignum>  (142) 
9

>  <i_i_glide_rotatable_bonds>  (142) 
11

>  <r_i_docking_score>  (142) 
-2.60622

>  <r_i_glide_ligand_efficiency>  (142) 
-0.072395

>  <r_i_glide_ligand_efficiency_sa>  (142) 
-0.239043

>  <r_i_glide_ligand_efficiency_ln>  (142) 
-0.568607

>  <r_i_glide_gscore>  (142) 
-2.60622

>  <r_i_glide_lipo>  (142) 
-0.421004

>  <r_i_glide_hbond>  (142) 
0

>  <r_i_glide_metal>  (142) 
-0

>  <r_i_glide_rewards>  (142) 
0

>  <r_i_glide_evdw>  (142) 
-32.4346

>  <r_i_glide_ecoul>  (142) 
-7.29006

>  <r_i_glide_erotb>  (142) 
0.72444

>  <r_i_glide_esite>  (142) 
-0.194419

>  <r_i_glide_emodel>  (142) 
-46.0945

>  <r_i_glide_energy>  (142) 
-39.7246

>  <r_i_glide_einternal>  (142) 
1.57316

>  <r_i_glide_intrahb_reward>  (142) 
-0

>  <i_i_glide_confnum>  (142) 
10

>  <i_i_glide_posenum>  (142) 
16

>  <r_i_glide_eff_state_penalty>  (142) 
0

>  <ligand_id>  (142) 
33

>  <original_smiles>  (142) 
Cn1c(SCCCN2CC3CN(CCOc4ccc(S(C)(=O)=O)cc4)CC3C2)nnc1-c1cnco1

>  <smiles>  (142) 
[H]c1nc([H])c(-c2nnc(SC([H])([H])C([H])([H])C([H])([H])N3C([H])([H])C4([H])C([H])(C3([H])[H])C([H])([H])[N+]([H])(C([H])([H])C([H])([H])Oc3c([H])c([H])c(S(=O)(=O)C([H])([H])[H])c([H])c3[H])C4([H])[H])n2C([H])([H])[H])o1

$$$$
33:5:2
     RDKit          3D

 69 73  0  0  1  0  0  0  0  0999 V2000
    2.9516  -10.5613    4.0778 C   0  0  0  0  0  0  0  0  0  0  0  0
    3.3112   -9.1838    4.4236 N   0  0  0  0  0  0  0  0  0  0  0  0
    4.2588   -8.3963    3.8775 C   0  0  0  0  0  0  0  0  0  0  0  0
    5.3156   -8.9196    2.5604 S   0  0  0  0  0  0  0  0  0  0  0  0
    4.5410   -8.0518    1.1599 C   0  0  0  0  0  0  0  0  0  0  0  0
    4.7215   -6.5222    1.2105 C   0  0  0  0  0  0  0  0  0  0  0  0
    4.3530   -5.8363   -0.1200 C   0  0  0  0  0  0  0  0  0  0  0  0
    4.5715   -4.3896   -0.1100 N   0  0  0  0  0  0  0  0  0  0  0  0
    5.9504   -4.0071    0.1643 C   0  0  0  0  0  0  0  0  0  0  0  0
    6.0444   -2.5553   -0.3102 C   0  0  2  0  0  0  0  0  0  0  0  0
    5.7121   -1.5195    0.7725 C   0  0  0  0  0  0  0  0  0  0  0  0
    4.2800   -1.2081    0.5953 N   0  0  1  0  0  0  0  0  0  0  0  0
    3.8235    0.0702    1.1982 C   0  0  0  0  0  0  0  0  0  0  0  0
    3.8564    0.0410    2.7486 C   0  0  0  0  0  0  0  0  0  0  0  0
    3.5155    1.2969    3.3328 O   0  0  0  0  0  0  0  0  0  0  0  0
    2.2131    1.7324    3.3051 C   0  0  0  0  0  0  0  0  0  0  0  0
    1.9618    3.0031    3.8665 C   0  0  0  0  0  0  0  0  0  0  0  0
    0.6535    3.5206    3.8907 C   0  0  0  0  0  0  0  0  0  0  0  0
   -0.4003    2.7736    3.3303 C   0  0  0  0  0  0  0  0  0  0  0  0
   -2.0659    3.4138    3.4073 S   0  0  0  0  0  0  0  0  0  0  0  0
   -2.6043    3.0135    5.1146 C   0  0  0  0  0  0  0  0  0  0  0  0
   -2.0150    4.8787    3.2850 O   0  0  0  0  0  0  0  0  0  0  0  0
   -2.9103    2.6436    2.4864 O   0  0  0  0  0  0  0  0  0  0  0  0
   -0.1644    1.5058    2.7682 C   0  0  0  0  0  0  0  0  0  0  0  0
    1.1372    0.9821    2.7652 C   0  0  0  0  0  0  0  0  0  0  0  0
    4.0233   -1.3102   -0.8534 C   0  0  0  0  0  0  0  0  0  0  0  0
    4.9447   -2.4225   -1.3631 C   0  0  2  0  0  0  0  0  0  0  0  0
    4.2913   -3.8091   -1.4203 C   0  0  0  0  0  0  0  0  0  0  0  0
    4.3469   -7.1919    4.4484 N   0  0  0  0  0  0  0  0  0  0  0  0
    3.3803   -7.1734    5.4206 N   0  0  0  0  0  0  0  0  0  0  0  0
    2.7824   -8.3683    5.3703 C   0  0  0  0  0  0  0  0  0  0  0  0
    1.6750   -8.6943    6.2597 C   0  0  0  0  0  0  0  0  0  0  0  0
    1.1352   -8.0421    7.3416 C   0  0  0  0  0  0  0  0  0  0  0  0
    0.0870   -8.8042    7.8371 N   0  0  0  0  0  0  0  0  0  0  0  0
    0.0227   -9.8485    7.0058 C   0  0  0  0  0  0  0  0  0  0  0  0
    0.9672   -9.8410    6.0340 O   0  0  0  0  0  0  0  0  0  0  0  0
    3.7307  -11.0407    3.4847 H   0  0  0  0  0  0  0  0  0  0  0  0
    2.0217  -10.5673    3.5125 H   0  0  0  0  0  0  0  0  0  0  0  0
    2.8215  -11.1536    4.9797 H   0  0  0  0  0  0  0  0  0  0  0  0
    5.0109   -8.4400    0.2562 H   0  0  0  0  0  0  0  0  0  0  0  0
    3.4869   -8.3242    1.1044 H   0  0  0  0  0  0  0  0  0  0  0  0
    4.1042   -6.1017    2.0028 H   0  0  0  0  0  0  0  0  0  0  0  0
    5.7579   -6.3104    1.4736 H   0  0  0  0  0  0  0  0  0  0  0  0
    4.9104   -6.2910   -0.9387 H   0  0  0  0  0  0  0  0  0  0  0  0
    3.2966   -6.0165   -0.3206 H   0  0  0  0  0  0  0  0  0  0  0  0
    6.2120   -4.1161    1.2171 H   0  0  0  0  0  0  0  0  0  0  0  0
    6.6275   -4.6261   -0.4233 H   0  0  0  0  0  0  0  0  0  0  0  0
    7.0356   -2.3552   -0.7193 H   0  0  0  0  0  0  0  0  0  0  0  0
    5.9391   -1.8689    1.7797 H   0  0  0  0  0  0  0  0  0  0  0  0
    6.2874   -0.6065    0.5946 H   0  0  0  0  0  0  0  0  0  0  0  0
    4.4071    0.9126    0.8195 H   0  0  0  0  0  0  0  0  0  0  0  0
    2.8133    0.2399    0.8345 H   0  0  0  0  0  0  0  0  0  0  0  0
    3.2384   -0.7579    3.1748 H   0  0  0  0  0  0  0  0  0  0  0  0
    4.8751   -0.1647    3.0884 H   0  0  0  0  0  0  0  0  0  0  0  0
    2.7713    3.5872    4.2880 H   0  0  0  0  0  0  0  0  0  0  0  0
    0.4495    4.4869    4.3280 H   0  0  0  0  0  0  0  0  0  0  0  0
   -3.6349    3.3431    5.2421 H   0  0  0  0  0  0  0  0  0  0  0  0
   -1.9538    3.5265    5.8222 H   0  0  0  0  0  0  0  0  0  0  0  0
   -2.5411    1.9362    5.2611 H   0  0  0  0  0  0  0  0  0  0  0  0
   -0.9668    0.9296    2.3325 H   0  0  0  0  0  0  0  0  0  0  0  0
    1.2718    0.0014    2.3356 H   0  0  0  0  0  0  0  0  0  0  0  0
    2.9773   -1.5006   -1.0737 H   0  0  0  0  0  0  0  0  0  0  0  0
    4.2959   -0.3622   -1.3257 H   0  0  0  0  0  0  0  0  0  0  0  0
    5.3417   -2.1455   -2.3414 H   0  0  0  0  0  0  0  0  0  0  0  0
    4.7836   -4.3910   -2.2020 H   0  0  0  0  0  0  0  0  0  0  0  0
    3.2242   -3.7751   -1.6500 H   0  0  0  0  0  0  0  0  0  0  0  0
    1.4053   -7.1066    7.8113 H   0  0  0  0  0  0  0  0  0  0  0  0
   -0.6370  -10.6853    7.1347 H   0  0  0  0  0  0  0  0  0  0  0  0
    3.7607   -1.9741    1.0088 H   0  0  0  0  0  0  0  0  0  0  0  0
  1  2  1  0
  1 37  1  0
  1 38  1  0
  1 39  1  0
  2 31  1  0
  2  3  1  0
  3  4  1  0
  3 29  2  0
  4  5  1  0
  5  6  1  0
  5 40  1  0
  5 41  1  0
  6  7  1  0
  6 42  1  0
  6 43  1  0
  7  8  1  0
  7 44  1  0
  7 45  1  0
  8 28  1  0
  8  9  1  0
  9 10  1  0
  9 46  1  0
  9 47  1  0
 10 27  1  0
 10 11  1  0
 10 48  1  6
 11 12  1  0
 11 49  1  0
 11 50  1  0
 12 13  1  0
 12 26  1  0
 12 69  1  1
 13 14  1  0
 13 51  1  0
 13 52  1  0
 14 15  1  0
 14 53  1  0
 14 54  1  0
 15 16  1  0
 16 25  1  0
 16 17  2  0
 17 18  1  0
 17 55  1  0
 18 19  2  0
 18 56  1  0
 19 20  1  0
 19 24  1  0
 20 21  1  0
 20 22  2  0
 20 23  2  0
 21 57  1  0
 21 58  1  0
 21 59  1  0
 24 25  2  0
 24 60  1  0
 25 61  1  0
 26 27  1  0
 26 62  1  0
 26 63  1  0
 27 28  1  0
 27 64  1  6
 28 65  1  0
 28 66  1  0
 29 30  1  0
 30 31  2  0
 31 32  1  0
 32 36  1  0
 32 33  2  0
 33 34  1  0
 33 67  1  0
 34 35  2  0
 35 36  1  0
 35 68  1  0
M  CHG  1  12   1
M  END
>  <i_m_ct_stereo_status>  (143) 
1

>  <s_m_source_file>  (143) 
/var/tmp/pbs.5076255.sched01/tmp5gbx45fw/500pp51iot.sdf

>  <i_m_source_file_index>  (143) 
9

>  <i_lp_mmshare_version>  (143) 
48012

>  <i_f3d_flags>  (143) 
0

>  <s_epik_input>  (143) 
bzFbY0hdbltjSF1jMS1jMm5uYyhuMltDSDNdKVNbQ0gyXVtDSDJdW0NIMl1OKFtDSDJdMylbQ0gyXVtDQEhdKFtDQEhdMzQpW0NIMl1OKFtDSDJdNClbQ0gyXVtDSDJdT2M1W2NIXVtjSF1jKFMoPU8pKD1PKVtDSDNdKVtjSF1bY0hdNQ==

>  <s_epik_cmdline>  (143) 
J2VwaWtfcHl0aG9uJywgJy1waHQnLCAnMi4wJywgJy1waCcsICc3LjAnLCAnLXRuJywgJzgnLCAnLW1hJywgJzIwMCcsICctaW1hZScsICc8aW5maWxlLm1hZT4nLCAnLW9tYWUnLCAnPG91dGZpbGUubWFlPic=

>  <r_epik_Ionization_Penalty>  (143) 
0.86407

>  <r_epik_Ionization_Penalty_Charging>  (143) 
0.0257394

>  <r_epik_Ionization_Penalty_Neutral>  (143) 
0.838331

>  <r_epik_State_Penalty>  (143) 
1.54522

>  <r_epik_Charging_Adjusted_Penalty>  (143) 
1.57096

>  <i_epik_Tot_Q>  (143) 
1

>  <i_epik_Tot_abs_Q>  (143) 
1

>  <s_lp_Force_Field>  (143) 
OPLS3e

>  <r_lp_Energy>  (143) 
11.0296

>  <b_lp_Chiralities_Consistent>  (143) 
1

>  <s_lp_Variant>  (143) 
33:0-6

>  <s_i_glide_gridfile>  (143) 
pfpi4k_grid

>  <i_i_glide_lignum>  (143) 
9

>  <i_i_glide_rotatable_bonds>  (143) 
11

>  <r_i_docking_score>  (143) 
-2.51777

>  <r_i_glide_ligand_efficiency>  (143) 
-0.0699382

>  <r_i_glide_ligand_efficiency_sa>  (143) 
-0.230931

>  <r_i_glide_ligand_efficiency_ln>  (143) 
-0.54931

>  <r_i_glide_gscore>  (143) 
-2.51777

>  <r_i_glide_lipo>  (143) 
-0.335102

>  <r_i_glide_hbond>  (143) 
0

>  <r_i_glide_metal>  (143) 
-0

>  <r_i_glide_rewards>  (143) 
0

>  <r_i_glide_evdw>  (143) 
-32.7765

>  <r_i_glide_ecoul>  (143) 
-7.29086

>  <r_i_glide_erotb>  (143) 
0.72444

>  <r_i_glide_esite>  (143) 
-0.174656

>  <r_i_glide_emodel>  (143) 
-45.9895

>  <r_i_glide_energy>  (143) 
-40.0674

>  <r_i_glide_einternal>  (143) 
2.36394

>  <r_i_glide_intrahb_reward>  (143) 
-0

>  <i_i_glide_confnum>  (143) 
5

>  <i_i_glide_posenum>  (143) 
1

>  <r_i_glide_eff_state_penalty>  (143) 
0

>  <ligand_id>  (143) 
33

>  <original_smiles>  (143) 
Cn1c(SCCCN2CC3CN(CCOc4ccc(S(C)(=O)=O)cc4)CC3C2)nnc1-c1cnco1

>  <smiles>  (143) 
[H]c1nc([H])c(-c2nnc(SC([H])([H])C([H])([H])C([H])([H])N3C([H])([H])C4([H])C([H])(C3([H])[H])C([H])([H])[N+]([H])(C([H])([H])C([H])([H])Oc3c([H])c([H])c(S(=O)(=O)C([H])([H])[H])c([H])c3[H])C4([H])[H])n2C([H])([H])[H])o1

$$$$
34:0:0
     RDKit          3D

 29 29  0  0  1  0  0  0  0  0999 V2000
    2.7655   -8.8690    2.5810 C   0  0  0  0  0  0  0  0  0  0  0  0
    2.2458   -7.7211    1.8164 N   0  0  0  0  0  0  0  0  0  0  0  0
    3.3295   -6.9135    1.1822 C   0  0  0  0  0  0  0  0  0  0  0  0
    3.2977   -5.4050    1.4427 C   0  0  0  0  0  0  0  0  0  0  0  0
    2.7666   -4.9851    2.4776 O   0  0  0  0  0  0  0  0  0  0  0  0
    3.8559   -4.6178    0.5051 N   0  0  0  0  0  0  0  0  0  0  0  0
    4.0365   -3.2112    0.6380 C   0  0  0  0  0  0  0  0  0  0  0  0
    3.9988   -2.4089   -0.5272 C   0  0  0  0  0  0  0  0  0  0  0  0
    4.2156   -1.0199   -0.4221 C   0  0  0  0  0  0  0  0  0  0  0  0
    4.4576   -0.4241    0.8402 C   0  0  0  0  0  0  0  0  0  0  0  0
    4.5032   -1.2237    1.9906 C   0  0  0  0  0  0  0  0  0  0  0  0
    4.7628   -0.6747    3.1988 F   0  0  0  0  0  0  0  0  0  0  0  0
    4.3080   -2.6034    1.8876 C   0  0  0  0  0  0  0  0  0  0  0  0
    0.9153   -7.4261    1.7099 C   0  0  0  0  0  0  0  0  0  0  0  0
    0.5014   -6.4748    1.0360 O   0  0  0  0  0  0  0  0  0  0  0  0
   -0.1317   -8.3204    2.4149 C   0  0  0  0  0  0  0  0  0  0  0  0
   -1.6226   -7.4297    2.8419 Cl  0  0  0  0  0  0  0  0  0  0  0  0
    2.0507   -9.6086    2.9221 H   0  0  0  0  0  0  0  0  0  0  0  0
    3.2932   -8.4874    3.4598 H   0  0  0  0  0  0  0  0  0  0  0  0
    3.5067   -9.4140    1.9873 H   0  0  0  0  0  0  0  0  0  0  0  0
    4.2981   -7.2520    1.5670 H   0  0  0  0  0  0  0  0  0  0  0  0
    3.3891   -7.0598    0.1126 H   0  0  0  0  0  0  0  0  0  0  0  0
    4.1407   -5.0452   -0.3678 H   0  0  0  0  0  0  0  0  0  0  0  0
    3.7855   -2.8473   -1.4920 H   0  0  0  0  0  0  0  0  0  0  0  0
    4.1901   -0.3935   -1.2977 H   0  0  0  0  0  0  0  0  0  0  0  0
    4.6043    0.6377    0.9147 H   0  0  0  0  0  0  0  0  0  0  0  0
    4.3766   -3.1921    2.7848 H   0  0  0  0  0  0  0  0  0  0  0  0
   -0.4183   -9.1143    1.7174 H   0  0  0  0  0  0  0  0  0  0  0  0
    0.2193   -8.7410    3.3558 H   0  0  0  0  0  0  0  0  0  0  0  0
  1  2  1  0
  1 18  1  0
  1 19  1  0
  1 20  1  0
  2  3  1  0
  2 14  1  0
  3  4  1  0
  3 21  1  0
  3 22  1  0
  4  5  2  0
  4  6  1  0
  6  7  1  0
  6 23  1  0
  7 13  2  0
  7  8  1  0
  8  9  2  0
  8 24  1  0
  9 10  1  0
  9 25  1  0
 10 11  2  0
 10 26  1  0
 11 12  1  0
 11 13  1  0
 13 27  1  0
 14 15  2  0
 14 16  1  0
 16 17  1  0
 16 28  1  0
 16 29  1  0
M  END
>  <i_m_ct_stereo_status>  (144) 
1

>  <s_m_source_file>  (144) 
/var/tmp/pbs.5076255.sched01/tmp5gbx45fw/500pp51iot.sdf

>  <i_m_source_file_index>  (144) 
10

>  <i_lp_mmshare_version>  (144) 
48012

>  <i_f3d_flags>  (144) 
0

>  <s_epik_input>  (144) 
Q2xbQ0gyXUMoPU8pTihbQ0gzXSlbQ0gyXUMoPU8pW05IXWMxW2NIXVtjSF1bY0hdYyhGKVtjSF0x

>  <s_epik_cmdline>  (144) 
J2VwaWtfcHl0aG9uJywgJy1waHQnLCAnMi4wJywgJy1waCcsICc3LjAnLCAnLXRuJywgJzgnLCAnLW1hJywgJzIwMCcsICctaW1hZScsICc8aW5maWxlLm1hZT4nLCAnLW9tYWUnLCAnPG91dGZpbGUubWFlPic=

>  <r_lp_tautomer_probability>  (144) 
1

>  <r_epik_Ionization_Penalty>  (144) 
3.45763e-07

>  <r_epik_Ionization_Penalty_Charging>  (144) 
0

>  <r_epik_Ionization_Penalty_Neutral>  (144) 
3.45763e-07

>  <r_epik_State_Penalty>  (144) 
-0

>  <r_epik_Charging_Adjusted_Penalty>  (144) 
0

>  <i_epik_Tot_Q>  (144) 
0

>  <i_epik_Tot_abs_Q>  (144) 
0

>  <s_lp_Force_Field>  (144) 
OPLS3e

>  <r_lp_Energy>  (144) 
30.1492

>  <b_lp_Chiralities_Consistent>  (144) 
1

>  <s_lp_Variant>  (144) 
34:0-1

>  <s_i_glide_gridfile>  (144) 
pfpi4k_grid

>  <i_i_glide_lignum>  (144) 
10

>  <i_i_glide_rotatable_bonds>  (144) 
6

>  <r_i_docking_score>  (144) 
-3.15604

>  <r_i_glide_ligand_efficiency>  (144) 
-0.18565

>  <r_i_glide_ligand_efficiency_sa>  (144) 
-0.477358

>  <r_i_glide_ligand_efficiency_ln>  (144) 
-0.823342

>  <r_i_glide_gscore>  (144) 
-3.15604

>  <r_i_glide_lipo>  (144) 
-0.256939

>  <r_i_glide_hbond>  (144) 
-0.16

>  <r_i_glide_metal>  (144) 
-0

>  <r_i_glide_rewards>  (144) 
-1.78576

>  <r_i_glide_evdw>  (144) 
-19.7525

>  <r_i_glide_ecoul>  (144) 
-6.36327

>  <r_i_glide_erotb>  (144) 
1.05625

>  <r_i_glide_esite>  (144) 
-0.0674792

>  <r_i_glide_emodel>  (144) 
-28.8162

>  <r_i_glide_energy>  (144) 
-26.1158

>  <r_i_glide_einternal>  (144) 
5.46772

>  <r_i_glide_intrahb_reward>  (144) 
-0

>  <i_i_glide_confnum>  (144) 
5

>  <i_i_glide_posenum>  (144) 
11

>  <r_i_glide_eff_state_penalty>  (144) 
0

>  <ligand_id>  (144) 
34

>  <original_smiles>  (144) 
CN(CC(=O)Nc1cccc(F)c1)C(=O)CCl

>  <smiles>  (144) 
[H]c1c([H])c(F)c([H])c(N([H])C(=O)C([H])([H])N(C(=O)C([H])([H])Cl)C([H])([H])[H])c1[H]

$$$$
34:0:1
     RDKit          3D

 29 29  0  0  1  0  0  0  0  0999 V2000
   -0.9824    3.3224    3.1076 C   0  0  0  0  0  0  0  0  0  0  0  0
   -0.8856    1.8815    3.3851 N   0  0  0  0  0  0  0  0  0  0  0  0
   -0.2175    1.0856    2.3403 C   0  0  0  0  0  0  0  0  0  0  0  0
    1.2523    0.7480    2.6566 C   0  0  0  0  0  0  0  0  0  0  0  0
    1.7226    1.0307    3.7556 O   0  0  0  0  0  0  0  0  0  0  0  0
    1.9394    0.1378    1.6628 N   0  0  0  0  0  0  0  0  0  0  0  0
    3.3120   -0.2530    1.6166 C   0  0  0  0  0  0  0  0  0  0  0  0
    4.1895   -0.2613    2.7274 C   0  0  0  0  0  0  0  0  0  0  0  0
    5.5262   -0.6664    2.5806 C   0  0  0  0  0  0  0  0  0  0  0  0
    6.0116   -1.0807    1.3298 C   0  0  0  0  0  0  0  0  0  0  0  0
    5.1592   -1.0725    0.2171 C   0  0  0  0  0  0  0  0  0  0  0  0
    5.6329   -1.4509   -0.9992 F   0  0  0  0  0  0  0  0  0  0  0  0
    3.8167   -0.6729    0.3616 C   0  0  0  0  0  0  0  0  0  0  0  0
   -1.3843    1.2954    4.5017 C   0  0  0  0  0  0  0  0  0  0  0  0
   -1.3804    0.0708    4.6670 O   0  0  0  0  0  0  0  0  0  0  0  0
   -1.9864    2.1867    5.5923 C   0  0  0  0  0  0  0  0  0  0  0  0
   -2.1867    1.3334    7.1376 Cl  0  0  0  0  0  0  0  0  0  0  0  0
   -1.3618    3.9610    3.9027 H   0  0  0  0  0  0  0  0  0  0  0  0
   -1.6269    3.4766    2.2390 H   0  0  0  0  0  0  0  0  0  0  0  0
    0.0157    3.7028    2.8832 H   0  0  0  0  0  0  0  0  0  0  0  0
   -0.7570    0.1483    2.1706 H   0  0  0  0  0  0  0  0  0  0  0  0
   -0.2399    1.6277    1.3946 H   0  0  0  0  0  0  0  0  0  0  0  0
    1.4207   -0.0191    0.8052 H   0  0  0  0  0  0  0  0  0  0  0  0
    3.8691    0.0439    3.7108 H   0  0  0  0  0  0  0  0  0  0  0  0
    6.1861   -0.6571    3.4387 H   0  0  0  0  0  0  0  0  0  0  0  0
    7.0427   -1.3946    1.2251 H   0  0  0  0  0  0  0  0  0  0  0  0
    3.1684   -0.6758   -0.5008 H   0  0  0  0  0  0  0  0  0  0  0  0
   -1.3362    3.0257    5.8177 H   0  0  0  0  0  0  0  0  0  0  0  0
   -2.9593    2.5579    5.2768 H   0  0  0  0  0  0  0  0  0  0  0  0
  1  2  1  0
  1 18  1  0
  1 19  1  0
  1 20  1  0
  2  3  1  0
  2 14  1  0
  3  4  1  0
  3 21  1  0
  3 22  1  0
  4  5  2  0
  4  6  1  0
  6  7  1  0
  6 23  1  0
  7 13  2  0
  7  8  1  0
  8  9  2  0
  8 24  1  0
  9 10  1  0
  9 25  1  0
 10 11  2  0
 10 26  1  0
 11 12  1  0
 11 13  1  0
 13 27  1  0
 14 15  2  0
 14 16  1  0
 16 17  1  0
 16 28  1  0
 16 29  1  0
M  END
>  <i_m_ct_stereo_status>  (145) 
1

>  <s_m_source_file>  (145) 
/var/tmp/pbs.5076255.sched01/tmp5gbx45fw/500pp51iot.sdf

>  <i_m_source_file_index>  (145) 
10

>  <i_lp_mmshare_version>  (145) 
48012

>  <i_f3d_flags>  (145) 
0

>  <s_epik_input>  (145) 
Q2xbQ0gyXUMoPU8pTihbQ0gzXSlbQ0gyXUMoPU8pW05IXWMxW2NIXVtjSF1bY0hdYyhGKVtjSF0x

>  <s_epik_cmdline>  (145) 
J2VwaWtfcHl0aG9uJywgJy1waHQnLCAnMi4wJywgJy1waCcsICc3LjAnLCAnLXRuJywgJzgnLCAnLW1hJywgJzIwMCcsICctaW1hZScsICc8aW5maWxlLm1hZT4nLCAnLW9tYWUnLCAnPG91dGZpbGUubWFlPic=

>  <r_lp_tautomer_probability>  (145) 
1

>  <r_epik_Ionization_Penalty>  (145) 
3.45763e-07

>  <r_epik_Ionization_Penalty_Charging>  (145) 
0

>  <r_epik_Ionization_Penalty_Neutral>  (145) 
3.45763e-07

>  <r_epik_State_Penalty>  (145) 
-0

>  <r_epik_Charging_Adjusted_Penalty>  (145) 
0

>  <i_epik_Tot_Q>  (145) 
0

>  <i_epik_Tot_abs_Q>  (145) 
0

>  <s_lp_Force_Field>  (145) 
OPLS3e

>  <r_lp_Energy>  (145) 
30.1492

>  <b_lp_Chiralities_Consistent>  (145) 
1

>  <s_lp_Variant>  (145) 
34:0-1

>  <s_i_glide_gridfile>  (145) 
pfpi4k_grid

>  <i_i_glide_lignum>  (145) 
10

>  <i_i_glide_rotatable_bonds>  (145) 
6

>  <r_i_docking_score>  (145) 
-3.11392

>  <r_i_glide_ligand_efficiency>  (145) 
-0.183172

>  <r_i_glide_ligand_efficiency_sa>  (145) 
-0.470987

>  <r_i_glide_ligand_efficiency_ln>  (145) 
-0.812354

>  <r_i_glide_gscore>  (145) 
-3.11392

>  <r_i_glide_lipo>  (145) 
-0.351102

>  <r_i_glide_hbond>  (145) 
-0.16

>  <r_i_glide_metal>  (145) 
-0

>  <r_i_glide_rewards>  (145) 
-1.64539

>  <r_i_glide_evdw>  (145) 
-21.4974

>  <r_i_glide_ecoul>  (145) 
-4.79474

>  <r_i_glide_erotb>  (145) 
1.05625

>  <r_i_glide_esite>  (145) 
-0.219605

>  <r_i_glide_emodel>  (145) 
-31.6178

>  <r_i_glide_energy>  (145) 
-26.2921

>  <r_i_glide_einternal>  (145) 
1.85752

>  <r_i_glide_intrahb_reward>  (145) 
-0

>  <i_i_glide_confnum>  (145) 
2

>  <i_i_glide_posenum>  (145) 
40

>  <r_i_glide_eff_state_penalty>  (145) 
0

>  <ligand_id>  (145) 
34

>  <original_smiles>  (145) 
CN(CC(=O)Nc1cccc(F)c1)C(=O)CCl

>  <smiles>  (145) 
[H]c1c([H])c(F)c([H])c(N([H])C(=O)C([H])([H])N(C(=O)C([H])([H])Cl)C([H])([H])[H])c1[H]

$$$$
34:0:2
     RDKit          3D

 29 29  0  0  1  0  0  0  0  0999 V2000
    4.7731   -1.2485   -1.0616 C   0  0  0  0  0  0  0  0  0  0  0  0
    3.8439   -2.1631   -0.3693 N   0  0  0  0  0  0  0  0  0  0  0  0
    3.8039   -2.0647    1.1036 C   0  0  0  0  0  0  0  0  0  0  0  0
    2.9853   -0.8631    1.6061 C   0  0  0  0  0  0  0  0  0  0  0  0
    3.3251    0.2792    1.3100 O   0  0  0  0  0  0  0  0  0  0  0  0
    1.9674   -1.1591    2.4384 N   0  0  0  0  0  0  0  0  0  0  0  0
    0.9629   -0.3075    2.9728 C   0  0  0  0  0  0  0  0  0  0  0  0
    0.6404    0.9654    2.4507 C   0  0  0  0  0  0  0  0  0  0  0  0
   -0.4064    1.7171    3.0083 C   0  0  0  0  0  0  0  0  0  0  0  0
   -1.1481    1.2047    4.0952 C   0  0  0  0  0  0  0  0  0  0  0  0
   -0.8332   -0.0688    4.6156 C   0  0  0  0  0  0  0  0  0  0  0  0
   -1.5528   -0.5704    5.6497 F   0  0  0  0  0  0  0  0  0  0  0  0
    0.2189   -0.8104    4.0594 C   0  0  0  0  0  0  0  0  0  0  0  0
    3.0508   -3.0514   -1.0303 C   0  0  0  0  0  0  0  0  0  0  0  0
    2.3486   -3.8611   -0.4342 O   0  0  0  0  0  0  0  0  0  0  0  0
    2.9687   -3.0327   -2.5650 C   0  0  0  0  0  0  0  0  0  0  0  0
    4.5574   -3.2346   -3.3118 Cl  0  0  0  0  0  0  0  0  0  0  0  0
    4.6336   -1.2066   -2.1423 H   0  0  0  0  0  0  0  0  0  0  0  0
    5.8036   -1.5704   -0.8564 H   0  0  0  0  0  0  0  0  0  0  0  0
    4.6994   -0.2375   -0.6288 H   0  0  0  0  0  0  0  0  0  0  0  0
    3.4273   -2.9749    1.5702 H   0  0  0  0  0  0  0  0  0  0  0  0
    4.8107   -1.9426    1.4808 H   0  0  0  0  0  0  0  0  0  0  0  0
    1.9136   -2.1290    2.7050 H   0  0  0  0  0  0  0  0  0  0  0  0
    1.1581    1.3763    1.5962 H   0  0  0  0  0  0  0  0  0  0  0  0
   -0.6487    2.6863    2.5918 H   0  0  0  0  0  0  0  0  0  0  0  0
   -1.9530    1.7779    4.5194 H   0  0  0  0  0  0  0  0  0  0  0  0
    0.4368   -1.7962    4.4491 H   0  0  0  0  0  0  0  0  0  0  0  0
    2.2876   -3.8117   -2.9016 H   0  0  0  0  0  0  0  0  0  0  0  0
    2.5535   -2.0926   -2.9052 H   0  0  0  0  0  0  0  0  0  0  0  0
  1  2  1  0
  1 18  1  0
  1 19  1  0
  1 20  1  0
  2  3  1  0
  2 14  1  0
  3  4  1  0
  3 21  1  0
  3 22  1  0
  4  5  2  0
  4  6  1  0
  6  7  1  0
  6 23  1  0
  7 13  2  0
  7  8  1  0
  8  9  2  0
  8 24  1  0
  9 10  1  0
  9 25  1  0
 10 11  2  0
 10 26  1  0
 11 12  1  0
 11 13  1  0
 13 27  1  0
 14 15  2  0
 14 16  1  0
 16 17  1  0
 16 28  1  0
 16 29  1  0
M  END
>  <i_m_ct_stereo_status>  (146) 
1

>  <s_m_source_file>  (146) 
/var/tmp/pbs.5076255.sched01/tmp5gbx45fw/500pp51iot.sdf

>  <i_m_source_file_index>  (146) 
10

>  <i_lp_mmshare_version>  (146) 
48012

>  <i_f3d_flags>  (146) 
0

>  <s_epik_input>  (146) 
Q2xbQ0gyXUMoPU8pTihbQ0gzXSlbQ0gyXUMoPU8pW05IXWMxW2NIXVtjSF1bY0hdYyhGKVtjSF0x

>  <s_epik_cmdline>  (146) 
J2VwaWtfcHl0aG9uJywgJy1waHQnLCAnMi4wJywgJy1waCcsICc3LjAnLCAnLXRuJywgJzgnLCAnLW1hJywgJzIwMCcsICctaW1hZScsICc8aW5maWxlLm1hZT4nLCAnLW9tYWUnLCAnPG91dGZpbGUubWFlPic=

>  <r_lp_tautomer_probability>  (146) 
1

>  <r_epik_Ionization_Penalty>  (146) 
3.45763e-07

>  <r_epik_Ionization_Penalty_Charging>  (146) 
0

>  <r_epik_Ionization_Penalty_Neutral>  (146) 
3.45763e-07

>  <r_epik_State_Penalty>  (146) 
-0

>  <r_epik_Charging_Adjusted_Penalty>  (146) 
0

>  <i_epik_Tot_Q>  (146) 
0

>  <i_epik_Tot_abs_Q>  (146) 
0

>  <s_lp_Force_Field>  (146) 
OPLS3e

>  <r_lp_Energy>  (146) 
30.1492

>  <b_lp_Chiralities_Consistent>  (146) 
1

>  <s_lp_Variant>  (146) 
34:0-1

>  <s_i_glide_gridfile>  (146) 
pfpi4k_grid

>  <i_i_glide_lignum>  (146) 
10

>  <i_i_glide_rotatable_bonds>  (146) 
6

>  <r_i_docking_score>  (146) 
-2.72476

>  <r_i_glide_ligand_efficiency>  (146) 
-0.16028

>  <r_i_glide_ligand_efficiency_sa>  (146) 
-0.412125

>  <r_i_glide_ligand_efficiency_ln>  (146) 
-0.710829

>  <r_i_glide_gscore>  (146) 
-2.72476

>  <r_i_glide_lipo>  (146) 
-0.174599

>  <r_i_glide_hbond>  (146) 
0

>  <r_i_glide_metal>  (146) 
-0

>  <r_i_glide_rewards>  (146) 
-1.64539

>  <r_i_glide_evdw>  (146) 
-25.0426

>  <r_i_glide_ecoul>  (146) 
-3.54516

>  <r_i_glide_erotb>  (146) 
1.05625

>  <r_i_glide_esite>  (146) 
-0.17712

>  <r_i_glide_emodel>  (146) 
-31.0039

>  <r_i_glide_energy>  (146) 
-28.5877

>  <r_i_glide_einternal>  (146) 
4.15474

>  <r_i_glide_intrahb_reward>  (146) 
-0

>  <i_i_glide_confnum>  (146) 
2

>  <i_i_glide_posenum>  (146) 
20

>  <r_i_glide_eff_state_penalty>  (146) 
0

>  <ligand_id>  (146) 
34

>  <original_smiles>  (146) 
CN(CC(=O)Nc1cccc(F)c1)C(=O)CCl

>  <smiles>  (146) 
[H]c1c([H])c(F)c([H])c(N([H])C(=O)C([H])([H])N(C(=O)C([H])([H])Cl)C([H])([H])[H])c1[H]

$$$$
35:0:0
     RDKit          3D

 61 66  0  0  1  0  0  0  0  0999 V2000
    6.9640   -7.8599    4.1443 C   0  0  0  0  0  0  0  0  0  0  0  0
    5.8467   -7.2441    3.2493 C   0  0  2  0  0  0  0  0  0  0  0  0
    5.0570   -6.1915    4.1110 C   0  0  2  0  0  0  0  0  0  0  0  0
    5.8470   -5.2603    4.6552 F   0  0  0  0  0  0  0  0  0  0  0  0
    4.2546   -6.7742    5.3023 C   0  0  0  0  0  0  0  0  0  0  0  0
    3.4142   -8.0432    5.0319 C   0  0  1  0  0  0  0  0  0  0  0  0
    1.9331   -7.7733    4.6972 C   0  0  0  0  0  0  0  0  0  0  0  0
    1.1382   -9.0883    4.5939 C   0  0  1  0  0  0  0  0  0  0  0  0
   -0.2107   -8.8018    4.2720 O   0  0  0  0  0  0  0  0  0  0  0  0
    1.7381  -10.0174    3.5288 C   0  0  0  0  0  0  0  0  0  0  0  0
    3.2407  -10.2738    3.7626 C   0  0  0  0  0  0  0  0  0  0  0  0
    4.1089   -9.0219    4.0595 C   0  0  1  0  0  0  0  0  0  0  0  0
    4.8058   -8.3500    2.8355 C   0  0  1  0  0  0  0  0  0  0  0  0
    3.8129   -7.8208    1.7742 C   0  0  0  0  0  0  0  0  0  0  0  0
    4.5266   -7.3540    0.5129 C   0  0  0  0  0  0  0  0  0  0  0  0
    5.5593   -6.2539    0.7862 C   0  0  1  0  0  0  0  0  0  0  0  0
    4.9599   -4.8205    0.8731 C   0  0  2  0  0  0  0  0  0  0  0  0
    4.3987   -4.2699   -0.4898 C   0  0  0  0  0  0  0  0  0  0  0  0
    4.7988   -2.8353   -0.4442 C   0  0  0  0  0  0  0  0  0  0  0  0
    4.5734   -1.6242   -1.0279 C   0  0  0  0  0  0  0  0  0  0  0  0
    5.3554   -0.7280   -0.3057 N   0  0  0  0  0  0  0  0  0  0  0  0
    6.0661   -1.3075    0.6985 N   0  0  0  0  0  0  0  0  0  0  0  0
    5.6908   -2.5701    0.5813 C   0  0  0  0  0  0  0  0  0  0  0  0
    5.9853   -3.7595    1.4225 C   0  0  2  0  0  0  0  0  0  0  0  0
    7.4240   -4.2761    1.2811 C   0  0  0  0  0  0  0  0  0  0  0  0
    7.5964   -5.5212    2.1723 C   0  0  0  0  0  0  0  0  0  0  0  0
    6.5418   -6.6528    1.9356 C   0  0  1  0  0  0  0  0  0  0  0  0
    7.3116   -7.6991    1.3564 O   0  0  0  0  0  0  0  0  0  0  0  0
    5.3881    0.2776   -0.4655 H   0  0  0  0  0  0  0  0  0  0  0  0
    7.7808   -7.1601    4.3294 H   0  0  0  0  0  0  0  0  0  0  0  0
    7.3998   -8.7526    3.6937 H   0  0  0  0  0  0  0  0  0  0  0  0
    6.6043   -8.1561    5.1272 H   0  0  0  0  0  0  0  0  0  0  0  0
    4.3663   -5.6310    3.4908 H   0  0  0  0  0  0  0  0  0  0  0  0
    4.9373   -6.9828    6.1277 H   0  0  0  0  0  0  0  0  0  0  0  0
    3.5995   -5.9866    5.6755 H   0  0  0  0  0  0  0  0  0  0  0  0
    3.3669   -8.5567    5.9927 H   0  0  0  0  0  0  0  0  0  0  0  0
    1.4888   -7.1652    5.4847 H   0  0  0  0  0  0  0  0  0  0  0  0
    1.8260   -7.2010    3.7789 H   0  0  0  0  0  0  0  0  0  0  0  0
    1.1524   -9.5993    5.5575 H   0  0  0  0  0  0  0  0  0  0  0  0
   -0.7414   -9.5734    4.4500 H   0  0  0  0  0  0  0  0  0  0  0  0
    1.2140  -10.9749    3.5420 H   0  0  0  0  0  0  0  0  0  0  0  0
    1.5633   -9.6136    2.5357 H   0  0  0  0  0  0  0  0  0  0  0  0
    3.3214  -10.9448    4.6174 H   0  0  0  0  0  0  0  0  0  0  0  0
    3.6525  -10.8267    2.9187 H   0  0  0  0  0  0  0  0  0  0  0  0
    4.9379   -9.4458    4.6220 H   0  0  0  0  0  0  0  0  0  0  0  0
    5.3675   -9.1477    2.3463 H   0  0  0  0  0  0  0  0  0  0  0  0
    3.1297   -8.6108    1.4804 H   0  0  0  0  0  0  0  0  0  0  0  0
    3.2096   -6.9999    2.1541 H   0  0  0  0  0  0  0  0  0  0  0  0
    5.0178   -8.2242    0.0735 H   0  0  0  0  0  0  0  0  0  0  0  0
    3.8135   -7.0019   -0.2204 H   0  0  0  0  0  0  0  0  0  0  0  0
    6.1693   -6.2120   -0.1150 H   0  0  0  0  0  0  0  0  0  0  0  0
    4.1094   -4.8135    1.5504 H   0  0  0  0  0  0  0  0  0  0  0  0
    4.8663   -4.7543   -1.3461 H   0  0  0  0  0  0  0  0  0  0  0  0
    3.3264   -4.4127   -0.5873 H   0  0  0  0  0  0  0  0  0  0  0  0
    3.9251   -1.3300   -1.8454 H   0  0  0  0  0  0  0  0  0  0  0  0
    5.7716   -3.5354    2.4697 H   0  0  0  0  0  0  0  0  0  0  0  0
    7.6456   -4.5124    0.2372 H   0  0  0  0  0  0  0  0  0  0  0  0
    8.1328   -3.4998    1.5624 H   0  0  0  0  0  0  0  0  0  0  0  0
    8.6225   -5.8829    2.0892 H   0  0  0  0  0  0  0  0  0  0  0  0
    7.5373   -5.1781    3.1975 H   0  0  0  0  0  0  0  0  0  0  0  0
    8.1120   -7.7996    1.8533 H   0  0  0  0  0  0  0  0  0  0  0  0
  2  1  1  1
  1 30  1  0
  1 31  1  0
  1 32  1  0
  2 13  1  0
  2 27  1  0
  2  3  1  0
  3  4  1  0
  3  5  1  0
  3 33  1  6
  5  6  1  0
  5 34  1  0
  5 35  1  0
  6 12  1  0
  6  7  1  0
  6 36  1  1
  7  8  1  0
  7 37  1  0
  7 38  1  0
  8  9  1  0
  8 10  1  0
  8 39  1  1
  9 40  1  0
 10 11  1  0
 10 41  1  0
 10 42  1  0
 11 12  1  0
 11 43  1  0
 11 44  1  0
 12 13  1  0
 12 45  1  1
 13 14  1  0
 13 46  1  6
 14 15  1  0
 14 47  1  0
 14 48  1  0
 15 16  1  0
 15 49  1  0
 15 50  1  0
 16 27  1  0
 16 17  1  0
 16 51  1  6
 17 24  1  0
 17 18  1  0
 17 52  1  1
 18 19  1  0
 18 53  1  0
 18 54  1  0
 19 23  1  0
 19 20  2  0
 20 21  1  0
 20 55  1  0
 21 29  1  0
 21 22  1  0
 22 23  2  0
 23 24  1  0
 24 25  1  0
 24 56  1  1
 25 26  1  0
 25 57  1  0
 25 58  1  0
 26 27  1  0
 26 59  1  0
 26 60  1  0
 27 28  1  6
 28 61  1  0
M  END
>  <i_m_ct_stereo_status>  (147) 
1

>  <s_m_source_file>  (147) 
/var/tmp/pbs.5076255.sched01/tmp5gbx45fw/500pp51iot.sdf

>  <i_m_source_file_index>  (147) 
11

>  <i_lp_mmshare_version>  (147) 
48012

>  <i_f3d_flags>  (147) 
0

>  <s_epik_input>  (147) 
W0NIMl0xW0NIMl1bQ0BIXShbT0hdKVtDSDJdW0NASF0oW0NIMl1bQ0BIXTJGKVtDQEBIXTFbQ0BIXShbQ0BdMjNbQ0gzXSlbQ0gyXVtDSDJdW0NASF00W0NASF01W0NASF0oYzZjKFtDSDJdNSlbY0hdW25IXW42KVtDSDJdW0NIMl1bQ0BAXTM0W09IXQ==

>  <s_epik_cmdline>  (147) 
J2VwaWtfcHl0aG9uJywgJy1waHQnLCAnMi4wJywgJy1waCcsICc3LjAnLCAnLXRuJywgJzgnLCAnLW1hJywgJzIwMCcsICctaW1hZScsICc8aW5maWxlLm1hZT4nLCAnLW9tYWUnLCAnPG91dGZpbGUubWFlPic=

>  <r_lp_tautomer_probability>  (147) 
0.5

>  <r_epik_Ionization_Penalty>  (147) 
0.00476806

>  <r_epik_Ionization_Penalty_Charging>  (147) 
0

>  <r_epik_Ionization_Penalty_Neutral>  (147) 
0.00476806

>  <r_epik_State_Penalty>  (147) 
0.321845

>  <r_epik_Charging_Adjusted_Penalty>  (147) 
0.321845

>  <i_epik_Tot_Q>  (147) 
0

>  <i_epik_Tot_abs_Q>  (147) 
0

>  <s_lp_Force_Field>  (147) 
OPLS3e

>  <r_lp_Energy>  (147) 
61.0822

>  <b_lp_Chiralities_Consistent>  (147) 
1

>  <s_lp_Variant>  (147) 
35:0-1

>  <s_i_glide_gridfile>  (147) 
pfpi4k_grid

>  <i_i_glide_lignum>  (147) 
11

>  <i_i_glide_rotatable_bonds>  (147) 
2

>  <r_i_docking_score>  (147) 
-4.00876

>  <r_i_glide_ligand_efficiency>  (147) 
-0.14317

>  <r_i_glide_ligand_efficiency_sa>  (147) 
-0.434748

>  <r_i_glide_ligand_efficiency_ln>  (147) 
-0.925339

>  <r_i_glide_gscore>  (147) 
-4.00876

>  <r_i_glide_lipo>  (147) 
-0.636992

>  <r_i_glide_hbond>  (147) 
-0.407645

>  <r_i_glide_metal>  (147) 
-0

>  <r_i_glide_rewards>  (147) 
-0.760362

>  <r_i_glide_evdw>  (147) 
-23.7167

>  <r_i_glide_ecoul>  (147) 
-6.63964

>  <r_i_glide_erotb>  (147) 
0

>  <r_i_glide_esite>  (147) 
-0.0219796

>  <r_i_glide_emodel>  (147) 
-38.4006

>  <r_i_glide_energy>  (147) 
-30.3563

>  <r_i_glide_einternal>  (147) 
0.565776

>  <r_i_glide_intrahb_reward>  (147) 
-0

>  <i_i_glide_confnum>  (147) 
1

>  <i_i_glide_posenum>  (147) 
29

>  <r_i_glide_eff_state_penalty>  (147) 
0

>  <ligand_id>  (147) 
35

>  <original_smiles>  (147) 
CC12C(F)CC3CC(O)CCC3C1CCC1C3Cc4c[nH]nc4C3CCC12O

>  <smiles>  (147) 
[H]OC1([H])C([H])([H])C([H])([H])C2([H])C([H])(C([H])([H])C([H])(F)C3(C([H])([H])[H])C2([H])C([H])([H])C([H])([H])C2([H])C4([H])C([H])([H])c5c(nn([H])c5[H])C4([H])C([H])([H])C([H])([H])C23O[H])C1([H])[H]

$$$$
35:0:1
     RDKit          3D

 61 66  0  0  1  0  0  0  0  0999 V2000
    6.8947   -8.2267    4.1646 C   0  0  0  0  0  0  0  0  0  0  0  0
    5.7425   -7.5081    3.3984 C   0  0  2  0  0  0  0  0  0  0  0  0
    5.0944   -6.4546    4.3670 C   0  0  2  0  0  0  0  0  0  0  0  0
    5.9822   -5.5933    4.8690 F   0  0  0  0  0  0  0  0  0  0  0  0
    4.3665   -7.0436    5.6006 C   0  0  0  0  0  0  0  0  0  0  0  0
    3.4360   -8.2552    5.3640 C   0  0  1  0  0  0  0  0  0  0  0  0
    1.9479   -7.8923    5.1729 C   0  0  0  0  0  0  0  0  0  0  0  0
    1.0713   -9.1541    5.0863 C   0  0  1  0  0  0  0  0  0  0  0  0
   -0.2778   -8.7826    4.8795 O   0  0  0  0  0  0  0  0  0  0  0  0
    1.5224  -10.0685    3.9406 C   0  0  0  0  0  0  0  0  0  0  0  0
    3.0206  -10.4146    4.0242 C   0  0  0  0  0  0  0  0  0  0  0  0
    3.9831   -9.2268    4.2914 C   0  0  1  0  0  0  0  0  0  0  0  0
    4.6088   -8.5423    3.0366 C   0  0  1  0  0  0  0  0  0  0  0  0
    3.5659   -7.9131    2.0867 C   0  0  0  0  0  0  0  0  0  0  0  0
    4.2010   -7.4335    0.7876 C   0  0  0  0  0  0  0  0  0  0  0  0
    5.3098   -6.3983    1.0049 C   0  0  1  0  0  0  0  0  0  0  0  0
    4.7914   -4.9438    1.2030 C   0  0  2  0  0  0  0  0  0  0  0  0
    4.1408   -4.3078   -0.0795 C   0  0  0  0  0  0  0  0  0  0  0  0
    4.6222   -2.8989   -0.0129 C   0  0  0  0  0  0  0  0  0  0  0  0
    4.4165   -1.6488   -0.5281 C   0  0  0  0  0  0  0  0  0  0  0  0
    5.3116   -0.8346    0.1482 N   0  0  0  0  0  0  0  0  0  0  0  0
    6.0673   -1.4913    1.0640 N   0  0  0  0  0  0  0  0  0  0  0  0
    5.6180   -2.7223    0.9350 C   0  0  0  0  0  0  0  0  0  0  0  0
    5.9168   -3.9682    1.6966 C   0  0  2  0  0  0  0  0  0  0  0  0
    7.3106   -4.5519    1.4138 C   0  0  0  0  0  0  0  0  0  0  0  0
    7.4920   -5.8322    2.2511 C   0  0  0  0  0  0  0  0  0  0  0  0
    6.3576   -6.8952    2.0575 C   0  0  1  0  0  0  0  0  0  0  0  0
    7.0190   -7.9428    1.3574 O   0  0  0  0  0  0  0  0  0  0  0  0
    5.3922    0.1700    0.0182 H   0  0  0  0  0  0  0  0  0  0  0  0
    7.7623   -7.5787    4.2934 H   0  0  0  0  0  0  0  0  0  0  0  0
    7.2382   -9.1171    3.6375 H   0  0  0  0  0  0  0  0  0  0  0  0
    6.6094   -8.5462    5.1636 H   0  0  0  0  0  0  0  0  0  0  0  0
    4.3813   -5.8318    3.8348 H   0  0  0  0  0  0  0  0  0  0  0  0
    5.1091   -7.3277    6.3513 H   0  0  0  0  0  0  0  0  0  0  0  0
    3.7957   -6.2409    6.0676 H   0  0  0  0  0  0  0  0  0  0  0  0
    3.4445   -8.8099    6.3031 H   0  0  0  0  0  0  0  0  0  0  0  0
    1.6116   -7.2953    6.0214 H   0  0  0  0  0  0  0  0  0  0  0  0
    1.7943   -7.2725    4.2927 H   0  0  0  0  0  0  0  0  0  0  0  0
    1.1340   -9.7103    6.0243 H   0  0  0  0  0  0  0  0  0  0  0  0
   -0.8208   -9.5690    4.8996 H   0  0  0  0  0  0  0  0  0  0  0  0
    0.9454  -10.9940    3.9647 H   0  0  0  0  0  0  0  0  0  0  0  0
    1.2845   -9.6102    2.9836 H   0  0  0  0  0  0  0  0  0  0  0  0
    3.1372  -11.1272    4.8428 H   0  0  0  0  0  0  0  0  0  0  0  0
    3.3243  -10.9528    3.1271 H   0  0  0  0  0  0  0  0  0  0  0  0
    4.8313   -9.7197    4.7607 H   0  0  0  0  0  0  0  0  0  0  0  0
    5.0727   -9.3526    2.4723 H   0  0  0  0  0  0  0  0  0  0  0  0
    2.8090   -8.6483    1.8251 H   0  0  0  0  0  0  0  0  0  0  0  0
    3.0439   -7.0805    2.5505 H   0  0  0  0  0  0  0  0  0  0  0  0
    4.6006   -8.2987    0.2531 H   0  0  0  0  0  0  0  0  0  0  0  0
    3.4314   -7.0068    0.1508 H   0  0  0  0  0  0  0  0  0  0  0  0
    5.8380   -6.3475    0.0532 H   0  0  0  0  0  0  0  0  0  0  0  0
    4.0066   -4.9255    1.9535 H   0  0  0  0  0  0  0  0  0  0  0  0
    4.4988   -4.7734   -0.9965 H   0  0  0  0  0  0  0  0  0  0  0  0
    3.0558   -4.3836   -0.0833 H   0  0  0  0  0  0  0  0  0  0  0  0
    3.7145   -1.2856   -1.2690 H   0  0  0  0  0  0  0  0  0  0  0  0
    5.8065   -3.7766    2.7648 H   0  0  0  0  0  0  0  0  0  0  0  0
    7.4284   -4.7592    0.3494 H   0  0  0  0  0  0  0  0  0  0  0  0
    8.0882   -3.8371    1.6728 H   0  0  0  0  0  0  0  0  0  0  0  0
    8.4755   -6.2536    2.0469 H   0  0  0  0  0  0  0  0  0  0  0  0
    7.5617   -5.5145    3.2867 H   0  0  0  0  0  0  0  0  0  0  0  0
    6.4002   -8.6529    1.2439 H   0  0  0  0  0  0  0  0  0  0  0  0
  2  1  1  1
  1 30  1  0
  1 31  1  0
  1 32  1  0
  2 13  1  0
  2 27  1  0
  2  3  1  0
  3  4  1  0
  3  5  1  0
  3 33  1  6
  5  6  1  0
  5 34  1  0
  5 35  1  0
  6 12  1  0
  6  7  1  0
  6 36  1  1
  7  8  1  0
  7 37  1  0
  7 38  1  0
  8  9  1  0
  8 10  1  0
  8 39  1  1
  9 40  1  0
 10 11  1  0
 10 41  1  0
 10 42  1  0
 11 12  1  0
 11 43  1  0
 11 44  1  0
 12 13  1  0
 12 45  1  1
 13 14  1  0
 13 46  1  6
 14 15  1  0
 14 47  1  0
 14 48  1  0
 15 16  1  0
 15 49  1  0
 15 50  1  0
 16 27  1  0
 16 17  1  0
 16 51  1  6
 17 24  1  0
 17 18  1  0
 17 52  1  1
 18 19  1  0
 18 53  1  0
 18 54  1  0
 19 23  1  0
 19 20  2  0
 20 21  1  0
 20 55  1  0
 21 29  1  0
 21 22  1  0
 22 23  2  0
 23 24  1  0
 24 25  1  0
 24 56  1  1
 25 26  1  0
 25 57  1  0
 25 58  1  0
 26 27  1  0
 26 59  1  0
 26 60  1  0
 27 28  1  6
 28 61  1  0
M  END
>  <i_m_ct_stereo_status>  (148) 
1

>  <s_m_source_file>  (148) 
/var/tmp/pbs.5076255.sched01/tmp5gbx45fw/500pp51iot.sdf

>  <i_m_source_file_index>  (148) 
11

>  <i_lp_mmshare_version>  (148) 
48012

>  <i_f3d_flags>  (148) 
0

>  <s_epik_input>  (148) 
W0NIMl0xW0NIMl1bQ0BIXShbT0hdKVtDSDJdW0NASF0oW0NIMl1bQ0BIXTJGKVtDQEBIXTFbQ0BIXShbQ0BdMjNbQ0gzXSlbQ0gyXVtDSDJdW0NASF00W0NASF01W0NASF0oYzZjKFtDSDJdNSlbY0hdW25IXW42KVtDSDJdW0NIMl1bQ0BAXTM0W09IXQ==

>  <s_epik_cmdline>  (148) 
J2VwaWtfcHl0aG9uJywgJy1waHQnLCAnMi4wJywgJy1waCcsICc3LjAnLCAnLXRuJywgJzgnLCAnLW1hJywgJzIwMCcsICctaW1hZScsICc8aW5maWxlLm1hZT4nLCAnLW9tYWUnLCAnPG91dGZpbGUubWFlPic=

>  <r_lp_tautomer_probability>  (148) 
0.5

>  <r_epik_Ionization_Penalty>  (148) 
0.00476806

>  <r_epik_Ionization_Penalty_Charging>  (148) 
0

>  <r_epik_Ionization_Penalty_Neutral>  (148) 
0.00476806

>  <r_epik_State_Penalty>  (148) 
0.321845

>  <r_epik_Charging_Adjusted_Penalty>  (148) 
0.321845

>  <i_epik_Tot_Q>  (148) 
0

>  <i_epik_Tot_abs_Q>  (148) 
0

>  <s_lp_Force_Field>  (148) 
OPLS3e

>  <r_lp_Energy>  (148) 
61.0822

>  <b_lp_Chiralities_Consistent>  (148) 
1

>  <s_lp_Variant>  (148) 
35:0-1

>  <s_i_glide_gridfile>  (148) 
pfpi4k_grid

>  <i_i_glide_lignum>  (148) 
11

>  <i_i_glide_rotatable_bonds>  (148) 
2

>  <r_i_docking_score>  (148) 
-3.71844

>  <r_i_glide_ligand_efficiency>  (148) 
-0.132801

>  <r_i_glide_ligand_efficiency_sa>  (148) 
-0.403263

>  <r_i_glide_ligand_efficiency_ln>  (148) 
-0.858325

>  <r_i_glide_gscore>  (148) 
-3.71844

>  <r_i_glide_lipo>  (148) 
-0.58206

>  <r_i_glide_hbond>  (148) 
-0.379134

>  <r_i_glide_metal>  (148) 
-0

>  <r_i_glide_rewards>  (148) 
-0.7601

>  <r_i_glide_evdw>  (148) 
-24.6738

>  <r_i_glide_ecoul>  (148) 
-5.08972

>  <r_i_glide_erotb>  (148) 
0

>  <r_i_glide_esite>  (148) 
0

>  <r_i_glide_emodel>  (148) 
-37.3325

>  <r_i_glide_energy>  (148) 
-29.7635

>  <r_i_glide_einternal>  (148) 
0.416951

>  <r_i_glide_intrahb_reward>  (148) 
-0

>  <i_i_glide_confnum>  (148) 
1

>  <i_i_glide_posenum>  (148) 
27

>  <r_i_glide_eff_state_penalty>  (148) 
0

>  <ligand_id>  (148) 
35

>  <original_smiles>  (148) 
CC12C(F)CC3CC(O)CCC3C1CCC1C3Cc4c[nH]nc4C3CCC12O

>  <smiles>  (148) 
[H]OC1([H])C([H])([H])C([H])([H])C2([H])C([H])(C([H])([H])C([H])(F)C3(C([H])([H])[H])C2([H])C([H])([H])C([H])([H])C2([H])C4([H])C([H])([H])c5c(nn([H])c5[H])C4([H])C([H])([H])C([H])([H])C23O[H])C1([H])[H]

$$$$
35:0:2
     RDKit          3D

 61 66  0  0  1  0  0  0  0  0999 V2000
    6.5194  -10.0969    4.6841 C   0  0  0  0  0  0  0  0  0  0  0  0
    5.5113   -9.1929    3.9150 C   0  0  2  0  0  0  0  0  0  0  0  0
    5.1396   -7.9760    4.8393 C   0  0  2  0  0  0  0  0  0  0  0  0
    6.2095   -7.3008    5.2678 F   0  0  0  0  0  0  0  0  0  0  0  0
    4.3590   -8.3364    6.1287 C   0  0  0  0  0  0  0  0  0  0  0  0
    3.1869   -9.3283    5.9851 C   0  0  1  0  0  0  0  0  0  0  0  0
    1.8056   -8.6602    5.8184 C   0  0  0  0  0  0  0  0  0  0  0  0
    0.6779   -9.7035    5.8134 C   0  0  1  0  0  0  0  0  0  0  0  0
   -0.5647   -9.0552    5.5946 O   0  0  0  0  0  0  0  0  0  0  0  0
    0.8971  -10.7496    4.7134 C   0  0  0  0  0  0  0  0  0  0  0  0
    2.2849  -11.4068    4.7766 C   0  0  0  0  0  0  0  0  0  0  0  0
    3.4775  -10.4444    4.9553 C   0  0  1  0  0  0  0  0  0  0  0  0
    4.1750   -9.9753    3.6422 C   0  0  1  0  0  0  0  0  0  0  0  0
    3.2444   -9.1895    2.6936 C   0  0  0  0  0  0  0  0  0  0  0  0
    3.9030   -8.9097    1.3498 C   0  0  0  0  0  0  0  0  0  0  0  0
    5.2245   -8.1433    1.4698 C   0  0  1  0  0  0  0  0  0  0  0  0
    5.0386   -6.6035    1.6001 C   0  0  2  0  0  0  0  0  0  0  0  0
    4.4808   -5.9047    0.3043 C   0  0  0  0  0  0  0  0  0  0  0  0
    5.2482   -4.6405    0.2744 C   0  0  0  0  0  0  0  0  0  0  0  0
    5.2958   -3.4106   -0.3113 C   0  0  0  0  0  0  0  0  0  0  0  0
    6.3662   -2.7714    0.3000 N   0  0  0  0  0  0  0  0  0  0  0  0
    7.0019   -3.5257    1.2325 N   0  0  0  0  0  0  0  0  0  0  0  0
    6.2964   -4.6351    1.1880 C   0  0  0  0  0  0  0  0  0  0  0  0
    6.3619   -5.8599    2.0155 C   0  0  2  0  0  0  0  0  0  0  0  0
    7.5970   -6.7298    1.7377 C   0  0  0  0  0  0  0  0  0  0  0  0
    7.5219   -7.9770    2.6368 C   0  0  0  0  0  0  0  0  0  0  0  0
    6.1861   -8.7908    2.5242 C   0  0  1  0  0  0  0  0  0  0  0  0
    6.5857  -10.0000    1.8923 O   0  0  0  0  0  0  0  0  0  0  0  0
    6.6549   -1.8208    0.1267 H   0  0  0  0  0  0  0  0  0  0  0  0
    7.5076   -9.6441    4.7544 H   0  0  0  0  0  0  0  0  0  0  0  0
    6.6450  -11.0674    4.2026 H   0  0  0  0  0  0  0  0  0  0  0  0
    6.2109  -10.2979    5.7079 H   0  0  0  0  0  0  0  0  0  0  0  0
    4.5571   -7.2437    4.2903 H   0  0  0  0  0  0  0  0  0  0  0  0
    5.0531   -8.7309    6.8727 H   0  0  0  0  0  0  0  0  0  0  0  0
    3.9886   -7.4078    6.5551 H   0  0  0  0  0  0  0  0  0  0  0  0
    3.1109   -9.8251    6.9513 H   0  0  0  0  0  0  0  0  0  0  0  0
    1.6319   -7.9684    6.6431 H   0  0  0  0  0  0  0  0  0  0  0  0
    1.7510   -8.0705    4.9083 H   0  0  0  0  0  0  0  0  0  0  0  0
    0.6418  -10.2177    6.7759 H   0  0  0  0  0  0  0  0  0  0  0  0
   -1.2221   -9.7454    5.4482 H   0  0  0  0  0  0  0  0  0  0  0  0
    0.1634  -11.5471    4.8204 H   0  0  0  0  0  0  0  0  0  0  0  0
    0.7063  -10.3116    3.7387 H   0  0  0  0  0  0  0  0  0  0  0  0
    2.2856  -12.0799    5.6324 H   0  0  0  0  0  0  0  0  0  0  0  0
    2.4262  -12.0453    3.9070 H   0  0  0  0  0  0  0  0  0  0  0  0
    4.2184  -11.0849    5.4272 H   0  0  0  0  0  0  0  0  0  0  0  0
    4.4348  -10.8938    3.1123 H   0  0  0  0  0  0  0  0  0  0  0  0
    2.3434   -9.7634    2.4983 H   0  0  0  0  0  0  0  0  0  0  0  0
    2.9294   -8.2434    3.1283 H   0  0  0  0  0  0  0  0  0  0  0  0
    4.0985   -9.8573    0.8486 H   0  0  0  0  0  0  0  0  0  0  0  0
    3.2010   -8.3718    0.7233 H   0  0  0  0  0  0  0  0  0  0  0  0
    5.6974   -8.2773    0.4973 H   0  0  0  0  0  0  0  0  0  0  0  0
    4.3066   -6.3757    2.3756 H   0  0  0  0  0  0  0  0  0  0  0  0
    4.6926   -6.4846   -0.5942 H   0  0  0  0  0  0  0  0  0  0  0  0
    3.4028   -5.7516    0.3396 H   0  0  0  0  0  0  0  0  0  0  0  0
    4.6674   -2.9425   -1.0545 H   0  0  0  0  0  0  0  0  0  0  0  0
    6.3363   -5.5876    3.0723 H   0  0  0  0  0  0  0  0  0  0  0  0
    7.6326   -7.0093    0.6853 H   0  0  0  0  0  0  0  0  0  0  0  0
    8.5153   -6.1720    1.9317 H   0  0  0  0  0  0  0  0  0  0  0  0
    8.3887   -8.6043    2.4424 H   0  0  0  0  0  0  0  0  0  0  0  0
    7.6987   -7.6325    3.6488 H   0  0  0  0  0  0  0  0  0  0  0  0
    5.8096  -10.4822    1.6485 H   0  0  0  0  0  0  0  0  0  0  0  0
  2  1  1  1
  1 30  1  0
  1 31  1  0
  1 32  1  0
  2 13  1  0
  2 27  1  0
  2  3  1  0
  3  4  1  0
  3  5  1  0
  3 33  1  6
  5  6  1  0
  5 34  1  0
  5 35  1  0
  6 12  1  0
  6  7  1  0
  6 36  1  1
  7  8  1  0
  7 37  1  0
  7 38  1  0
  8  9  1  0
  8 10  1  0
  8 39  1  1
  9 40  1  0
 10 11  1  0
 10 41  1  0
 10 42  1  0
 11 12  1  0
 11 43  1  0
 11 44  1  0
 12 13  1  0
 12 45  1  1
 13 14  1  0
 13 46  1  6
 14 15  1  0
 14 47  1  0
 14 48  1  0
 15 16  1  0
 15 49  1  0
 15 50  1  0
 16 27  1  0
 16 17  1  0
 16 51  1  6
 17 24  1  0
 17 18  1  0
 17 52  1  1
 18 19  1  0
 18 53  1  0
 18 54  1  0
 19 23  1  0
 19 20  2  0
 20 21  1  0
 20 55  1  0
 21 29  1  0
 21 22  1  0
 22 23  2  0
 23 24  1  0
 24 25  1  0
 24 56  1  1
 25 26  1  0
 25 57  1  0
 25 58  1  0
 26 27  1  0
 26 59  1  0
 26 60  1  0
 27 28  1  6
 28 61  1  0
M  END
>  <i_m_ct_stereo_status>  (149) 
1

>  <s_m_source_file>  (149) 
/var/tmp/pbs.5076255.sched01/tmp5gbx45fw/500pp51iot.sdf

>  <i_m_source_file_index>  (149) 
11

>  <i_lp_mmshare_version>  (149) 
48012

>  <i_f3d_flags>  (149) 
0

>  <s_epik_input>  (149) 
W0NIMl0xW0NIMl1bQ0BIXShbT0hdKVtDSDJdW0NASF0oW0NIMl1bQ0BIXTJGKVtDQEBIXTFbQ0BIXShbQ0BdMjNbQ0gzXSlbQ0gyXVtDSDJdW0NASF00W0NASF01W0NASF0oYzZjKFtDSDJdNSlbY0hdW25IXW42KVtDSDJdW0NIMl1bQ0BAXTM0W09IXQ==

>  <s_epik_cmdline>  (149) 
J2VwaWtfcHl0aG9uJywgJy1waHQnLCAnMi4wJywgJy1waCcsICc3LjAnLCAnLXRuJywgJzgnLCAnLW1hJywgJzIwMCcsICctaW1hZScsICc8aW5maWxlLm1hZT4nLCAnLW9tYWUnLCAnPG91dGZpbGUubWFlPic=

>  <r_lp_tautomer_probability>  (149) 
0.5

>  <r_epik_Ionization_Penalty>  (149) 
0.00476806

>  <r_epik_Ionization_Penalty_Charging>  (149) 
0

>  <r_epik_Ionization_Penalty_Neutral>  (149) 
0.00476806

>  <r_epik_State_Penalty>  (149) 
0.321845

>  <r_epik_Charging_Adjusted_Penalty>  (149) 
0.321845

>  <i_epik_Tot_Q>  (149) 
0

>  <i_epik_Tot_abs_Q>  (149) 
0

>  <s_lp_Force_Field>  (149) 
OPLS3e

>  <r_lp_Energy>  (149) 
61.0822

>  <b_lp_Chiralities_Consistent>  (149) 
1

>  <s_lp_Variant>  (149) 
35:0-1

>  <s_i_glide_gridfile>  (149) 
pfpi4k_grid

>  <i_i_glide_lignum>  (149) 
11

>  <i_i_glide_rotatable_bonds>  (149) 
2

>  <r_i_docking_score>  (149) 
-3.69674

>  <r_i_glide_ligand_efficiency>  (149) 
-0.132027

>  <r_i_glide_ligand_efficiency_sa>  (149) 
-0.40091

>  <r_i_glide_ligand_efficiency_ln>  (149) 
-0.853317

>  <r_i_glide_gscore>  (149) 
-3.69674

>  <r_i_glide_lipo>  (149) 
-0.507023

>  <r_i_glide_hbond>  (149) 
-0.16

>  <r_i_glide_metal>  (149) 
-0

>  <r_i_glide_rewards>  (149) 
-0.7601

>  <r_i_glide_evdw>  (149) 
-23.8013

>  <r_i_glide_ecoul>  (149) 
-7.19704

>  <r_i_glide_erotb>  (149) 
0

>  <r_i_glide_esite>  (149) 
0

>  <r_i_glide_emodel>  (149) 
-38.456

>  <r_i_glide_energy>  (149) 
-30.9983

>  <r_i_glide_einternal>  (149) 
0.512211

>  <r_i_glide_intrahb_reward>  (149) 
-0

>  <i_i_glide_confnum>  (149) 
1

>  <i_i_glide_posenum>  (149) 
18

>  <r_i_glide_eff_state_penalty>  (149) 
0

>  <ligand_id>  (149) 
35

>  <original_smiles>  (149) 
CC12C(F)CC3CC(O)CCC3C1CCC1C3Cc4c[nH]nc4C3CCC12O

>  <smiles>  (149) 
[H]OC1([H])C([H])([H])C([H])([H])C2([H])C([H])(C([H])([H])C([H])(F)C3(C([H])([H])[H])C2([H])C([H])([H])C([H])([H])C2([H])C4([H])C([H])([H])c5c(nn([H])c5[H])C4([H])C([H])([H])C([H])([H])C23O[H])C1([H])[H]

$$$$
35:1:0
     RDKit          3D

 61 66  0  0  1  0  0  0  0  0999 V2000
    6.5773   -9.9328    4.7865 C   0  0  0  0  0  0  0  0  0  0  0  0
    5.5755   -9.0895    3.9432 C   0  0  2  0  0  0  0  0  0  0  0  0
    5.1365   -7.8495    4.8049 C   0  0  2  0  0  0  0  0  0  0  0  0
    6.1702   -7.1245    5.2449 F   0  0  0  0  0  0  0  0  0  0  0  0
    4.3149   -8.1833    6.0793 C   0  0  0  0  0  0  0  0  0  0  0  0
    3.1724   -9.2100    5.9250 C   0  0  1  0  0  0  0  0  0  0  0  0
    1.7859   -8.5907    5.6795 C   0  0  0  0  0  0  0  0  0  0  0  0
    0.6816   -9.6594    5.6751 C   0  0  1  0  0  0  0  0  0  0  0  0
   -0.5753   -9.0542    5.3950 O   0  0  0  0  0  0  0  0  0  0  0  0
    0.9693  -10.7463    4.6277 C   0  0  0  0  0  0  0  0  0  0  0  0
    2.3706  -11.3607    4.7723 C   0  0  0  0  0  0  0  0  0  0  0  0
    3.5341  -10.3575    4.9546 C   0  0  1  0  0  0  0  0  0  0  0  0
    4.2698   -9.9175    3.6519 C   0  0  1  0  0  0  0  0  0  0  0  0
    3.3553   -9.1975    2.6359 C   0  0  0  0  0  0  0  0  0  0  0  0
    4.0627   -8.9547    1.3086 C   0  0  0  0  0  0  0  0  0  0  0  0
    5.3521   -8.1438    1.4564 C   0  0  1  0  0  0  0  0  0  0  0  0
    5.1257   -6.6091    1.5156 C   0  0  2  0  0  0  0  0  0  0  0  0
    4.5815   -5.9803    0.1799 C   0  0  0  0  0  0  0  0  0  0  0  0
    5.3498   -4.7071    0.1109 C   0  0  0  0  0  0  0  0  0  0  0  0
    5.4108   -3.4632   -0.5760 C   0  0  0  0  0  0  0  0  0  0  0  0
    6.4050   -2.6981   -0.1006 N   0  0  0  0  0  0  0  0  0  0  0  0
    6.9692   -3.4401    0.8862 N   0  0  0  0  0  0  0  0  0  0  0  0
    6.3267   -4.6446    1.0175 C   0  0  0  0  0  0  0  0  0  0  0  0
    6.4160   -5.8052    1.9188 C   0  0  2  0  0  0  0  0  0  0  0  0
    7.6784   -6.6596    1.7380 C   0  0  0  0  0  0  0  0  0  0  0  0
    7.5999   -7.8672    2.6905 C   0  0  0  0  0  0  0  0  0  0  0  0
    6.2882   -8.7213    2.5667 C   0  0  1  0  0  0  0  0  0  0  0  0
    6.7127   -9.9542    2.0110 O   0  0  0  0  0  0  0  0  0  0  0  0
    7.7210   -3.0939    1.4572 H   0  0  0  0  0  0  0  0  0  0  0  0
    7.5491   -9.4495    4.8750 H   0  0  0  0  0  0  0  0  0  0  0  0
    6.7487  -10.9162    4.3483 H   0  0  0  0  0  0  0  0  0  0  0  0
    6.2364  -10.1055    5.8067 H   0  0  0  0  0  0  0  0  0  0  0  0
    4.5554   -7.1533    4.2076 H   0  0  0  0  0  0  0  0  0  0  0  0
    4.9943   -8.5287    6.8628 H   0  0  0  0  0  0  0  0  0  0  0  0
    3.9055   -7.2466    6.4511 H   0  0  0  0  0  0  0  0  0  0  0  0
    3.0768   -9.6695    6.9066 H   0  0  0  0  0  0  0  0  0  0  0  0
    1.5634   -7.8703    6.4686 H   0  0  0  0  0  0  0  0  0  0  0  0
    1.7530   -8.0365    4.7446 H   0  0  0  0  0  0  0  0  0  0  0  0
    0.6310  -10.1409    6.6564 H   0  0  0  0  0  0  0  0  0  0  0  0
   -1.2173   -9.7651    5.2851 H   0  0  0  0  0  0  0  0  0  0  0  0
    0.2321  -11.5447    4.7340 H   0  0  0  0  0  0  0  0  0  0  0  0
    0.8130  -10.3489    3.6278 H   0  0  0  0  0  0  0  0  0  0  0  0
    2.3604  -11.9997    5.6564 H   0  0  0  0  0  0  0  0  0  0  0  0
    2.5683  -12.0274    3.9342 H   0  0  0  0  0  0  0  0  0  0  0  0
    4.2752  -10.9563    5.4759 H   0  0  0  0  0  0  0  0  0  0  0  0
    4.5747  -10.8471    3.1711 H   0  0  0  0  0  0  0  0  0  0  0  0
    2.4790   -9.8037    2.4269 H   0  0  0  0  0  0  0  0  0  0  0  0
    3.0023   -8.2419    3.0174 H   0  0  0  0  0  0  0  0  0  0  0  0
    4.3109   -9.9135    0.8682 H   0  0  0  0  0  0  0  0  0  0  0  0
    3.3932   -8.4688    0.6063 H   0  0  0  0  0  0  0  0  0  0  0  0
    5.8570   -8.3128    0.5087 H   0  0  0  0  0  0  0  0  0  0  0  0
    4.3703   -6.3739    2.2628 H   0  0  0  0  0  0  0  0  0  0  0  0
    4.8168   -6.5988   -0.6841 H   0  0  0  0  0  0  0  0  0  0  0  0
    3.5036   -5.8336    0.1949 H   0  0  0  0  0  0  0  0  0  0  0  0
    4.7791   -3.0955   -1.3718 H   0  0  0  0  0  0  0  0  0  0  0  0
    6.3512   -5.4651    2.9527 H   0  0  0  0  0  0  0  0  0  0  0  0
    7.7716   -6.9957    0.7033 H   0  0  0  0  0  0  0  0  0  0  0  0
    8.5794   -6.0761    1.9403 H   0  0  0  0  0  0  0  0  0  0  0  0
    8.4874   -8.4826    2.5441 H   0  0  0  0  0  0  0  0  0  0  0  0
    7.7307   -7.4727    3.6937 H   0  0  0  0  0  0  0  0  0  0  0  0
    5.9499  -10.4403    1.7380 H   0  0  0  0  0  0  0  0  0  0  0  0
  2  1  1  1
  1 30  1  0
  1 31  1  0
  1 32  1  0
  2 13  1  0
  2 27  1  0
  2  3  1  0
  3  4  1  0
  3  5  1  0
  3 33  1  6
  5  6  1  0
  5 34  1  0
  5 35  1  0
  6 12  1  0
  6  7  1  0
  6 36  1  1
  7  8  1  0
  7 37  1  0
  7 38  1  0
  8  9  1  0
  8 10  1  0
  8 39  1  1
  9 40  1  0
 10 11  1  0
 10 41  1  0
 10 42  1  0
 11 12  1  0
 11 43  1  0
 11 44  1  0
 12 13  1  0
 12 45  1  1
 13 14  1  0
 13 46  1  6
 14 15  1  0
 14 47  1  0
 14 48  1  0
 15 16  1  0
 15 49  1  0
 15 50  1  0
 16 27  1  0
 16 17  1  0
 16 51  1  6
 17 24  1  0
 17 18  1  0
 17 52  1  1
 18 53  1  0
 18 54  1  0
 18 19  1  0
 19 23  2  0
 19 20  1  0
 20 55  1  0
 20 21  2  0
 21 22  1  0
 22 29  1  0
 22 23  1  0
 23 24  1  0
 24 25  1  0
 24 56  1  1
 25 26  1  0
 25 57  1  0
 25 58  1  0
 26 27  1  0
 26 59  1  0
 26 60  1  0
 27 28  1  6
 28 61  1  0
M  END
>  <i_m_ct_stereo_status>  (150) 
1

>  <s_m_source_file>  (150) 
/var/tmp/pbs.5076255.sched01/tmp5gbx45fw/500pp51iot.sdf

>  <i_m_source_file_index>  (150) 
12

>  <i_lp_mmshare_version>  (150) 
48012

>  <i_f3d_flags>  (150) 
0

>  <s_epik_input>  (150) 
W0NIMl0xW0NIMl1bQ0BIXShbT0hdKVtDSDJdW0NASF0oW0NIMl1bQ0BIXTJGKVtDQEBIXTFbQ0BIXShbQ0BdMjNbQ0gzXSlbQ0gyXVtDSDJdW0NASF00W0NASF01W0NASF0oYzZjKFtDSDJdNSlbY0hdW25IXW42KVtDSDJdW0NIMl1bQ0BAXTM0W09IXQ==

>  <s_epik_cmdline>  (150) 
J2VwaWtfcHl0aG9uJywgJy1waHQnLCAnMi4wJywgJy1waCcsICc3LjAnLCAnLXRuJywgJzgnLCAnLW1hJywgJzIwMCcsICctaW1hZScsICc8aW5maWxlLm1hZT4nLCAnLW9tYWUnLCAnPG91dGZpbGUubWFlPic=

>  <r_lp_tautomer_probability>  (150) 
0.5

>  <r_epik_Ionization_Penalty>  (150) 
0.0122429

>  <r_epik_Ionization_Penalty_Charging>  (150) 
0

>  <r_epik_Ionization_Penalty_Neutral>  (150) 
0.0122429

>  <r_epik_State_Penalty>  (150) 
0.521991

>  <r_epik_Charging_Adjusted_Penalty>  (150) 
0.521991

>  <i_epik_Tot_Q>  (150) 
0

>  <i_epik_Tot_abs_Q>  (150) 
0

>  <s_lp_Force_Field>  (150) 
OPLS3e

>  <r_lp_Energy>  (150) 
62.6621

>  <b_lp_Chiralities_Consistent>  (150) 
1

>  <s_lp_Variant>  (150) 
35:0-2

>  <s_i_glide_gridfile>  (150) 
pfpi4k_grid

>  <i_i_glide_lignum>  (150) 
12

>  <i_i_glide_rotatable_bonds>  (150) 
2

>  <r_i_docking_score>  (150) 
-3.84657

>  <r_i_glide_ligand_efficiency>  (150) 
-0.137377

>  <r_i_glide_ligand_efficiency_sa>  (150) 
-0.417159

>  <r_i_glide_ligand_efficiency_ln>  (150) 
-0.887901

>  <r_i_glide_gscore>  (150) 
-3.84657

>  <r_i_glide_lipo>  (150) 
-0.52829

>  <r_i_glide_hbond>  (150) 
-0.16

>  <r_i_glide_metal>  (150) 
-0

>  <r_i_glide_rewards>  (150) 
-0.7601

>  <r_i_glide_evdw>  (150) 
-24.4465

>  <r_i_glide_ecoul>  (150) 
-7.83902

>  <r_i_glide_erotb>  (150) 
0

>  <r_i_glide_esite>  (150) 
0

>  <r_i_glide_emodel>  (150) 
-40.6449

>  <r_i_glide_energy>  (150) 
-32.2855

>  <r_i_glide_einternal>  (150) 
0.46324

>  <r_i_glide_intrahb_reward>  (150) 
-0

>  <i_i_glide_confnum>  (150) 
1

>  <i_i_glide_posenum>  (150) 
24

>  <r_i_glide_eff_state_penalty>  (150) 
0

>  <ligand_id>  (150) 
35

>  <original_smiles>  (150) 
CC12C(F)CC3CC(O)CCC3C1CCC1C3Cc4c[nH]nc4C3CCC12O

>  <smiles>  (150) 
[H]OC1([H])C([H])([H])C([H])([H])C2([H])C([H])(C([H])([H])C([H])(F)C3(C([H])([H])[H])C2([H])C([H])([H])C([H])([H])C2([H])C4([H])C([H])([H])c5c([H])nn([H])c5C4([H])C([H])([H])C([H])([H])C23O[H])C1([H])[H]

$$$$
35:1:1
     RDKit          3D

 61 66  0  0  1  0  0  0  0  0999 V2000
    5.2477   -3.9993    2.6750 C   0  0  0  0  0  0  0  0  0  0  0  0
    4.1301   -3.0053    2.2373 C   0  0  2  0  0  0  0  0  0  0  0  0
    2.8894   -3.8515    1.7747 C   0  0  2  0  0  0  0  0  0  0  0  0
    2.4566   -4.7138    2.7004 F   0  0  0  0  0  0  0  0  0  0  0  0
    3.1129   -4.7129    0.5085 C   0  0  0  0  0  0  0  0  0  0  0  0
    3.8190   -4.0276   -0.6737 C   0  0  1  0  0  0  0  0  0  0  0  0
    2.8562   -3.4326   -1.7210 C   0  0  0  0  0  0  0  0  0  0  0  0
    3.6401   -2.9389   -2.9429 C   0  0  1  0  0  0  0  0  0  0  0  0
    2.7732   -2.3636   -3.8905 O   0  0  0  0  0  0  0  0  0  0  0  0
    4.6667   -1.8810   -2.5417 C   0  0  0  0  0  0  0  0  0  0  0  0
    5.6239   -2.3787   -1.4417 C   0  0  0  0  0  0  0  0  0  0  0  0
    4.9512   -3.0767   -0.2331 C   0  0  1  0  0  0  0  0  0  0  0  0
    4.6082   -2.1756    0.9899 C   0  0  1  0  0  0  0  0  0  0  0  0
    3.6173   -1.0366    0.6638 C   0  0  0  0  0  0  0  0  0  0  0  0
    3.4580   -0.0612    1.8209 C   0  0  0  0  0  0  0  0  0  0  0  0
    2.9855   -0.7496    3.1142 C   0  0  1  0  0  0  0  0  0  0  0  0
    1.4506   -0.9761    3.1744 C   0  0  2  0  0  0  0  0  0  0  0  0
    0.6050    0.3512    3.2902 C   0  0  0  0  0  0  0  0  0  0  0  0
   -0.4488   -0.0493    4.2649 C   0  0  0  0  0  0  0  0  0  0  0  0
   -1.6914    0.3669    4.8226 C   0  0  0  0  0  0  0  0  0  0  0  0
   -2.1601   -0.5412    5.6792 N   0  0  0  0  0  0  0  0  0  0  0  0
   -1.2294   -1.5284    5.6851 N   0  0  0  0  0  0  0  0  0  0  0  0
   -0.2073   -1.2275    4.8257 C   0  0  0  0  0  0  0  0  0  0  0  0
    1.0075   -1.9082    4.3612 C   0  0  2  0  0  0  0  0  0  0  0  0
    2.1142   -2.0264    5.4204 C   0  0  0  0  0  0  0  0  0  0  0  0
    3.3378   -2.7030    4.7806 C   0  0  0  0  0  0  0  0  0  0  0  0
    3.8383   -2.0194    3.4576 C   0  0  1  0  0  0  0  0  0  0  0  0
    5.0852   -1.4674    3.8407 O   0  0  0  0  0  0  0  0  0  0  0  0
   -1.3128   -2.3779    6.2163 H   0  0  0  0  0  0  0  0  0  0  0  0
    5.0231   -4.4769    3.6311 H   0  0  0  0  0  0  0  0  0  0  0  0
    6.2085   -3.4961    2.7833 H   0  0  0  0  0  0  0  0  0  0  0  0
    5.4055   -4.8099    1.9667 H   0  0  0  0  0  0  0  0  0  0  0  0
    2.0404   -3.2033    1.5882 H   0  0  0  0  0  0  0  0  0  0  0  0
    3.6719   -5.6124    0.7714 H   0  0  0  0  0  0  0  0  0  0  0  0
    2.1417   -5.0780    0.1748 H   0  0  0  0  0  0  0  0  0  0  0  0
    4.3198   -4.8396   -1.2006 H   0  0  0  0  0  0  0  0  0  0  0  0
    2.1422   -4.1890   -2.0461 H   0  0  0  0  0  0  0  0  0  0  0  0
    2.2490   -2.6332   -1.3145 H   0  0  0  0  0  0  0  0  0  0  0  0
    4.1552   -3.7724   -3.4218 H   0  0  0  0  0  0  0  0  0  0  0  0
    2.0406   -2.9480   -4.0228 H   0  0  0  0  0  0  0  0  0  0  0  0
    5.2436   -1.6284   -3.4286 H   0  0  0  0  0  0  0  0  0  0  0  0
    4.1694   -0.9601   -2.2470 H   0  0  0  0  0  0  0  0  0  0  0  0
    6.3090   -3.0898   -1.9053 H   0  0  0  0  0  0  0  0  0  0  0  0
    6.2423   -1.5530   -1.0952 H   0  0  0  0  0  0  0  0  0  0  0  0
    5.7477   -3.7211    0.1320 H   0  0  0  0  0  0  0  0  0  0  0  0
    5.5468   -1.6876    1.2586 H   0  0  0  0  0  0  0  0  0  0  0  0
    3.9673   -0.4686   -0.1906 H   0  0  0  0  0  0  0  0  0  0  0  0
    2.6335   -1.4199    0.4049 H   0  0  0  0  0  0  0  0  0  0  0  0
    4.4201    0.4229    1.9979 H   0  0  0  0  0  0  0  0  0  0  0  0
    2.7681    0.7345    1.5359 H   0  0  0  0  0  0  0  0  0  0  0  0
    3.1833   -0.0215    3.9060 H   0  0  0  0  0  0  0  0  0  0  0  0
    1.1016   -1.4508    2.2622 H   0  0  0  0  0  0  0  0  0  0  0  0
    1.2046    1.1735    3.6892 H   0  0  0  0  0  0  0  0  0  0  0  0
    0.2106    0.6675    2.3226 H   0  0  0  0  0  0  0  0  0  0  0  0
   -2.2411    1.2659    4.6030 H   0  0  0  0  0  0  0  0  0  0  0  0
    0.7457   -2.9046    4.0000 H   0  0  0  0  0  0  0  0  0  0  0  0
    2.3853   -1.0430    5.8027 H   0  0  0  0  0  0  0  0  0  0  0  0
    1.7784   -2.6019    6.2821 H   0  0  0  0  0  0  0  0  0  0  0  0
    4.1397   -2.7621    5.5178 H   0  0  0  0  0  0  0  0  0  0  0  0
    3.0715   -3.7428    4.6120 H   0  0  0  0  0  0  0  0  0  0  0  0
    5.3792   -0.9008    3.1426 H   0  0  0  0  0  0  0  0  0  0  0  0
  2  1  1  1
  1 30  1  0
  1 31  1  0
  1 32  1  0
  2 13  1  0
  2 27  1  0
  2  3  1  0
  3  4  1  0
  3  5  1  0
  3 33  1  6
  5  6  1  0
  5 34  1  0
  5 35  1  0
  6 12  1  0
  6  7  1  0
  6 36  1  6
  7  8  1  0
  7 37  1  0
  7 38  1  0
  8  9  1  0
  8 10  1  0
  8 39  1  6
  9 40  1  0
 10 11  1  0
 10 41  1  0
 10 42  1  0
 11 12  1  0
 11 43  1  0
 11 44  1  0
 12 13  1  0
 12 45  1  1
 13 14  1  0
 13 46  1  1
 14 15  1  0
 14 47  1  0
 14 48  1  0
 15 16  1  0
 15 49  1  0
 15 50  1  0
 16 27  1  0
 16 17  1  0
 16 51  1  1
 17 24  1  0
 17 18  1  0
 17 52  1  6
 18 53  1  0
 18 54  1  0
 18 19  1  0
 19 23  2  0
 19 20  1  0
 20 55  1  0
 20 21  2  0
 21 22  1  0
 22 29  1  0
 22 23  1  0
 23 24  1  0
 24 25  1  0
 24 56  1  6
 25 26  1  0
 25 57  1  0
 25 58  1  0
 26 27  1  0
 26 59  1  0
 26 60  1  0
 27 28  1  1
 28 61  1  0
M  END
>  <i_m_ct_stereo_status>  (151) 
1

>  <s_m_source_file>  (151) 
/var/tmp/pbs.5076255.sched01/tmp5gbx45fw/500pp51iot.sdf

>  <i_m_source_file_index>  (151) 
12

>  <i_lp_mmshare_version>  (151) 
48012

>  <i_f3d_flags>  (151) 
0

>  <s_epik_input>  (151) 
W0NIMl0xW0NIMl1bQ0BIXShbT0hdKVtDSDJdW0NASF0oW0NIMl1bQ0BIXTJGKVtDQEBIXTFbQ0BIXShbQ0BdMjNbQ0gzXSlbQ0gyXVtDSDJdW0NASF00W0NASF01W0NASF0oYzZjKFtDSDJdNSlbY0hdW25IXW42KVtDSDJdW0NIMl1bQ0BAXTM0W09IXQ==

>  <s_epik_cmdline>  (151) 
J2VwaWtfcHl0aG9uJywgJy1waHQnLCAnMi4wJywgJy1waCcsICc3LjAnLCAnLXRuJywgJzgnLCAnLW1hJywgJzIwMCcsICctaW1hZScsICc8aW5maWxlLm1hZT4nLCAnLW9tYWUnLCAnPG91dGZpbGUubWFlPic=

>  <r_lp_tautomer_probability>  (151) 
0.5

>  <r_epik_Ionization_Penalty>  (151) 
0.0122429

>  <r_epik_Ionization_Penalty_Charging>  (151) 
0

>  <r_epik_Ionization_Penalty_Neutral>  (151) 
0.0122429

>  <r_epik_State_Penalty>  (151) 
0.521991

>  <r_epik_Charging_Adjusted_Penalty>  (151) 
0.521991

>  <i_epik_Tot_Q>  (151) 
0

>  <i_epik_Tot_abs_Q>  (151) 
0

>  <s_lp_Force_Field>  (151) 
OPLS3e

>  <r_lp_Energy>  (151) 
62.6621

>  <b_lp_Chiralities_Consistent>  (151) 
1

>  <s_lp_Variant>  (151) 
35:0-2

>  <s_i_glide_gridfile>  (151) 
pfpi4k_grid

>  <i_i_glide_lignum>  (151) 
12

>  <i_i_glide_rotatable_bonds>  (151) 
2

>  <r_i_docking_score>  (151) 
-3.43237

>  <r_i_glide_ligand_efficiency>  (151) 
-0.122585

>  <r_i_glide_ligand_efficiency_sa>  (151) 
-0.372239

>  <r_i_glide_ligand_efficiency_ln>  (151) 
-0.792291

>  <r_i_glide_gscore>  (151) 
-3.43237

>  <r_i_glide_lipo>  (151) 
-0.216188

>  <r_i_glide_hbond>  (151) 
-0.0774888

>  <r_i_glide_metal>  (151) 
-0

>  <r_i_glide_rewards>  (151) 
-0.7601

>  <r_i_glide_evdw>  (151) 
-29.5294

>  <r_i_glide_ecoul>  (151) 
-5.62916

>  <r_i_glide_erotb>  (151) 
0

>  <r_i_glide_esite>  (151) 
-0.0577504

>  <r_i_glide_emodel>  (151) 
-42.56

>  <r_i_glide_energy>  (151) 
-35.1585

>  <r_i_glide_einternal>  (151) 
0.463239

>  <r_i_glide_intrahb_reward>  (151) 
-0

>  <i_i_glide_confnum>  (151) 
2

>  <i_i_glide_posenum>  (151) 
13

>  <r_i_glide_eff_state_penalty>  (151) 
0

>  <ligand_id>  (151) 
35

>  <original_smiles>  (151) 
CC12C(F)CC3CC(O)CCC3C1CCC1C3Cc4c[nH]nc4C3CCC12O

>  <smiles>  (151) 
[H]OC1([H])C([H])([H])C([H])([H])C2([H])C([H])(C([H])([H])C([H])(F)C3(C([H])([H])[H])C2([H])C([H])([H])C([H])([H])C2([H])C4([H])C([H])([H])c5c([H])nn([H])c5C4([H])C([H])([H])C([H])([H])C23O[H])C1([H])[H]

$$$$
35:1:2
     RDKit          3D

 61 66  0  0  1  0  0  0  0  0999 V2000
    5.2000   -4.0895    2.5563 C   0  0  0  0  0  0  0  0  0  0  0  0
    4.1093   -3.0416    2.1852 C   0  0  2  0  0  0  0  0  0  0  0  0
    2.8589   -3.8170    1.6395 C   0  0  2  0  0  0  0  0  0  0  0  0
    2.3941   -4.7355    2.4892 F   0  0  0  0  0  0  0  0  0  0  0  0
    3.0752   -4.5862    0.3118 C   0  0  0  0  0  0  0  0  0  0  0  0
    3.8169   -3.8377   -0.8125 C   0  0  1  0  0  0  0  0  0  0  0  0
    2.8873   -3.1381   -1.8292 C   0  0  0  0  0  0  0  0  0  0  0  0
    3.7003   -2.5557   -2.9836 C   0  0  1  0  0  0  0  0  0  0  0  0
    2.8659   -1.8877   -3.8972 O   0  0  0  0  0  0  0  0  0  0  0  0
    4.7278   -1.5595   -2.4624 C   0  0  0  0  0  0  0  0  0  0  0  0
    5.6652   -2.1726   -1.4112 C   0  0  0  0  0  0  0  0  0  0  0  0
    4.9618   -2.9481   -0.2763 C   0  0  1  0  0  0  0  0  0  0  0  0
    4.6213   -2.1323    1.0094 C   0  0  1  0  0  0  0  0  0  0  0  0
    3.6631   -0.9441    0.7581 C   0  0  0  0  0  0  0  0  0  0  0  0
    3.5113   -0.0560    1.9847 C   0  0  0  0  0  0  0  0  0  0  0  0
    3.0060   -0.8310    3.2142 C   0  0  1  0  0  0  0  0  0  0  0  0
    1.4681   -1.0262    3.2383 C   0  0  2  0  0  0  0  0  0  0  0  0
    0.6621    0.3090    3.4388 C   0  0  0  0  0  0  0  0  0  0  0  0
   -0.4171   -0.1335    4.3655 C   0  0  0  0  0  0  0  0  0  0  0  0
   -1.6571    0.2742    4.9125 C   0  0  0  0  0  0  0  0  0  0  0  0
   -2.1836   -0.6956    5.6755 N   0  0  0  0  0  0  0  0  0  0  0  0
   -1.2575   -1.6875    5.6591 N   0  0  0  0  0  0  0  0  0  0  0  0
   -0.2142   -1.3529    4.8477 C   0  0  0  0  0  0  0  0  0  0  0  0
    0.9892   -2.0327    4.3473 C   0  0  2  0  0  0  0  0  0  0  0  0
    2.0761   -2.2590    5.4059 C   0  0  0  0  0  0  0  0  0  0  0  0
    3.2912   -2.9145    4.7298 C   0  0  0  0  0  0  0  0  0  0  0  0
    3.8233   -2.1435    3.4713 C   0  0  1  0  0  0  0  0  0  0  0  0
    5.0751   -1.6507    3.9117 O   0  0  0  0  0  0  0  0  0  0  0  0
   -1.3776   -2.5654    6.1393 H   0  0  0  0  0  0  0  0  0  0  0  0
    4.9509   -4.6320    3.4680 H   0  0  0  0  0  0  0  0  0  0  0  0
    6.1707   -3.6203    2.7161 H   0  0  0  0  0  0  0  0  0  0  0  0
    5.3484   -4.8473    1.7910 H   0  0  0  0  0  0  0  0  0  0  0  0
    2.0268   -3.1372    1.4960 H   0  0  0  0  0  0  0  0  0  0  0  0
    3.6095   -5.5200    0.5142 H   0  0  0  0  0  0  0  0  0  0  0  0
    2.0985   -4.8976   -0.0616 H   0  0  0  0  0  0  0  0  0  0  0  0
    4.3007   -4.6192   -1.3973 H   0  0  0  0  0  0  0  0  0  0  0  0
    2.1741   -3.8560   -2.2414 H   0  0  0  0  0  0  0  0  0  0  0  0
    2.2990   -2.3552   -1.3616 H   0  0  0  0  0  0  0  0  0  0  0  0
    4.2107   -3.3532   -3.5240 H   0  0  0  0  0  0  0  0  0  0  0  0
    2.2917   -1.3151   -3.4037 H   0  0  0  0  0  0  0  0  0  0  0  0
    5.3242   -1.2571   -3.3078 H   0  0  0  0  0  0  0  0  0  0  0  0
    4.2517   -0.6493   -2.1058 H   0  0  0  0  0  0  0  0  0  0  0  0
    6.3344   -2.8612   -1.9282 H   0  0  0  0  0  0  0  0  0  0  0  0
    6.3014   -1.4004   -0.9888 H   0  0  0  0  0  0  0  0  0  0  0  0
    5.7393   -3.6375    0.0507 H   0  0  0  0  0  0  0  0  0  0  0  0
    5.5663   -1.6857    1.3237 H   0  0  0  0  0  0  0  0  0  0  0  0
    4.0390   -0.3149   -0.0415 H   0  0  0  0  0  0  0  0  0  0  0  0
    2.6734   -1.2792    0.4578 H   0  0  0  0  0  0  0  0  0  0  0  0
    4.4829    0.3861    2.2130 H   0  0  0  0  0  0  0  0  0  0  0  0
    2.8469    0.7782    1.7553 H   0  0  0  0  0  0  0  0  0  0  0  0
    3.2077   -0.1692    4.0626 H   0  0  0  0  0  0  0  0  0  0  0  0
    1.1206   -1.4206    2.2892 H   0  0  0  0  0  0  0  0  0  0  0  0
    1.2662    1.0835    3.9140 H   0  0  0  0  0  0  0  0  0  0  0  0
    0.2818    0.7117    2.4985 H   0  0  0  0  0  0  0  0  0  0  0  0
   -2.1812    1.2066    4.7658 H   0  0  0  0  0  0  0  0  0  0  0  0
    0.7063   -2.9901    3.9053 H   0  0  0  0  0  0  0  0  0  0  0  0
    2.3641   -1.3146    5.8667 H   0  0  0  0  0  0  0  0  0  0  0  0
    1.7149   -2.8891    6.2174 H   0  0  0  0  0  0  0  0  0  0  0  0
    4.0808   -3.0531    5.4698 H   0  0  0  0  0  0  0  0  0  0  0  0
    2.9989   -3.9295    4.4782 H   0  0  0  0  0  0  0  0  0  0  0  0
    5.3988   -1.0476    3.2584 H   0  0  0  0  0  0  0  0  0  0  0  0
  2  1  1  1
  1 30  1  0
  1 31  1  0
  1 32  1  0
  2 13  1  0
  2 27  1  0
  2  3  1  0
  3  4  1  0
  3  5  1  0
  3 33  1  6
  5  6  1  0
  5 34  1  0
  5 35  1  0
  6 12  1  0
  6  7  1  0
  6 36  1  6
  7  8  1  0
  7 37  1  0
  7 38  1  0
  8  9  1  0
  8 10  1  0
  8 39  1  6
  9 40  1  0
 10 11  1  0
 10 41  1  0
 10 42  1  0
 11 12  1  0
 11 43  1  0
 11 44  1  0
 12 13  1  0
 12 45  1  1
 13 14  1  0
 13 46  1  1
 14 15  1  0
 14 47  1  0
 14 48  1  0
 15 16  1  0
 15 49  1  0
 15 50  1  0
 16 27  1  0
 16 17  1  0
 16 51  1  1
 17 24  1  0
 17 18  1  0
 17 52  1  6
 18 53  1  0
 18 54  1  0
 18 19  1  0
 19 23  2  0
 19 20  1  0
 20 55  1  0
 20 21  2  0
 21 22  1  0
 22 29  1  0
 22 23  1  0
 23 24  1  0
 24 25  1  0
 24 56  1  6
 25 26  1  0
 25 57  1  0
 25 58  1  0
 26 27  1  0
 26 59  1  0
 26 60  1  0
 27 28  1  1
 28 61  1  0
M  END
>  <i_m_ct_stereo_status>  (152) 
1

>  <s_m_source_file>  (152) 
/var/tmp/pbs.5076255.sched01/tmp5gbx45fw/500pp51iot.sdf

>  <i_m_source_file_index>  (152) 
12

>  <i_lp_mmshare_version>  (152) 
48012

>  <i_f3d_flags>  (152) 
0

>  <s_epik_input>  (152) 
W0NIMl0xW0NIMl1bQ0BIXShbT0hdKVtDSDJdW0NASF0oW0NIMl1bQ0BIXTJGKVtDQEBIXTFbQ0BIXShbQ0BdMjNbQ0gzXSlbQ0gyXVtDSDJdW0NASF00W0NASF01W0NASF0oYzZjKFtDSDJdNSlbY0hdW25IXW42KVtDSDJdW0NIMl1bQ0BAXTM0W09IXQ==

>  <s_epik_cmdline>  (152) 
J2VwaWtfcHl0aG9uJywgJy1waHQnLCAnMi4wJywgJy1waCcsICc3LjAnLCAnLXRuJywgJzgnLCAnLW1hJywgJzIwMCcsICctaW1hZScsICc8aW5maWxlLm1hZT4nLCAnLW9tYWUnLCAnPG91dGZpbGUubWFlPic=

>  <r_lp_tautomer_probability>  (152) 
0.5

>  <r_epik_Ionization_Penalty>  (152) 
0.0122429

>  <r_epik_Ionization_Penalty_Charging>  (152) 
0

>  <r_epik_Ionization_Penalty_Neutral>  (152) 
0.0122429

>  <r_epik_State_Penalty>  (152) 
0.521991

>  <r_epik_Charging_Adjusted_Penalty>  (152) 
0.521991

>  <i_epik_Tot_Q>  (152) 
0

>  <i_epik_Tot_abs_Q>  (152) 
0

>  <s_lp_Force_Field>  (152) 
OPLS3e

>  <r_lp_Energy>  (152) 
62.6621

>  <b_lp_Chiralities_Consistent>  (152) 
1

>  <s_lp_Variant>  (152) 
35:0-2

>  <s_i_glide_gridfile>  (152) 
pfpi4k_grid

>  <i_i_glide_lignum>  (152) 
12

>  <i_i_glide_rotatable_bonds>  (152) 
2

>  <r_i_docking_score>  (152) 
-3.26946

>  <r_i_glide_ligand_efficiency>  (152) 
-0.116766

>  <r_i_glide_ligand_efficiency_sa>  (152) 
-0.354572

>  <r_i_glide_ligand_efficiency_ln>  (152) 
-0.754687

>  <r_i_glide_gscore>  (152) 
-3.26946

>  <r_i_glide_lipo>  (152) 
-0.186792

>  <r_i_glide_hbond>  (152) 
-0.0700225

>  <r_i_glide_metal>  (152) 
-0

>  <r_i_glide_rewards>  (152) 
-0.7601

>  <r_i_glide_evdw>  (152) 
-29.3822

>  <r_i_glide_ecoul>  (152) 
-4.842

>  <r_i_glide_erotb>  (152) 
0

>  <r_i_glide_esite>  (152) 
-0.057134

>  <r_i_glide_emodel>  (152) 
-41.3232

>  <r_i_glide_energy>  (152) 
-34.2242

>  <r_i_glide_einternal>  (152) 
0.0971224

>  <r_i_glide_intrahb_reward>  (152) 
-0

>  <i_i_glide_confnum>  (152) 
1

>  <i_i_glide_posenum>  (152) 
6

>  <r_i_glide_eff_state_penalty>  (152) 
0

>  <ligand_id>  (152) 
35

>  <original_smiles>  (152) 
CC12C(F)CC3CC(O)CCC3C1CCC1C3Cc4c[nH]nc4C3CCC12O

>  <smiles>  (152) 
[H]OC1([H])C([H])([H])C([H])([H])C2([H])C([H])(C([H])([H])C([H])(F)C3(C([H])([H])[H])C2([H])C([H])([H])C([H])([H])C2([H])C4([H])C([H])([H])c5c([H])nn([H])c5C4([H])C([H])([H])C([H])([H])C23O[H])C1([H])[H]

$$$$
36:0:0
     RDKit          3D

 53 59  0  0  1  0  0  0  0  0999 V2000
    5.1810   -1.2564    4.9981 C   0  0  0  0  0  0  0  0  0  0  0  0
    5.2655   -0.6056    3.6027 C   0  0  0  0  0  0  0  0  0  0  0  0
    5.4928   -1.6036    2.4203 C   0  0  2  0  0  0  0  0  0  0  0  0
    5.3105   -0.9536    1.0106 C   0  0  1  0  0  0  0  0  0  0  0  0
    6.6031   -0.6822    0.4837 O   0  0  0  0  0  0  0  0  0  0  0  0
    4.5002   -1.8480    0.0216 C   0  0  1  0  0  0  0  0  0  0  0  0
    4.8071   -1.5137   -1.3347 O   0  0  0  0  0  0  0  0  0  0  0  0
    3.7498   -1.7415   -2.2674 C   0  0  0  0  0  0  0  0  0  0  0  0
    4.6239   -3.3670    0.2931 C   0  0  2  0  0  0  0  0  0  0  0  0
    3.4330   -4.1110    0.9592 C   0  0  1  0  0  0  0  0  0  0  0  0
    3.8428   -5.6917    1.1356 C   0  0  1  0  0  0  0  0  0  0  0  0
    4.9109   -6.0532    0.0763 C   0  0  0  0  0  0  0  0  0  0  0  0
    6.0567   -5.1886    0.6057 C   0  0  2  0  0  0  0  0  0  0  0  0
    5.9880   -5.1611    1.9949 C   0  0  2  0  0  0  0  0  0  0  0  0
    4.7975   -6.0142    2.3979 C   0  0  1  0  0  0  0  0  0  0  0  0
    4.3915   -5.7236    3.8476 C   0  0  0  0  0  0  0  0  0  0  0  0
    3.3668   -4.9439    4.2335 C   0  0  0  0  0  0  0  0  0  0  0  0
    3.2409   -4.0810    5.4610 C   0  0  0  0  0  0  0  0  0  0  0  0
    2.3486   -2.7588    5.2865 C   0  0  0  0  0  0  0  0  0  0  0  0
    2.4104   -1.8581    4.1105 O   0  0  0  0  0  0  0  0  0  0  0  0
    2.4914   -2.1630    2.7381 C   0  0  0  0  0  0  0  0  0  0  0  0
    1.9610   -1.4752    1.9100 O   0  0  0  0  0  0  0  0  0  0  0  0
    3.3648   -3.4053    2.3512 C   0  0  1  0  0  0  0  0  0  0  0  0
    2.6049   -4.4348    3.1565 C   0  0  0  0  0  0  0  0  0  0  0  0
    1.4237   -4.7908    2.9293 O   0  0  0  0  0  0  0  0  0  0  0  0
    4.9688   -3.0898    2.4763 C   0  0  1  0  0  0  0  0  0  0  0  0
    5.7291   -3.7910    1.2750 C   0  0  1  0  0  0  0  0  0  0  0  0
    4.9244   -0.5077    5.7529 H   0  0  0  0  0  0  0  0  0  0  0  0
    6.1059   -1.7598    5.2960 H   0  0  0  0  0  0  0  0  0  0  0  0
    4.4033   -1.9560    4.9400 H   0  0  0  0  0  0  0  0  0  0  0  0
    4.3546   -0.0323    3.4058 H   0  0  0  0  0  0  0  0  0  0  0  0
    6.0843    0.1319    3.5838 H   0  0  0  0  0  0  0  0  0  0  0  0
    6.5682   -1.7755    2.4975 H   0  0  0  0  0  0  0  0  0  0  0  0
    4.7940   -0.0016    1.0960 H   0  0  0  0  0  0  0  0  0  0  0  0
    7.0359   -0.0769    1.0506 H   0  0  0  0  0  0  0  0  0  0  0  0
    3.4569   -1.5759    0.1228 H   0  0  0  0  0  0  0  0  0  0  0  0
    4.1018   -1.5211   -3.2752 H   0  0  0  0  0  0  0  0  0  0  0  0
    2.9038   -1.0869   -2.0656 H   0  0  0  0  0  0  0  0  0  0  0  0
    3.3997   -2.7721   -2.2589 H   0  0  0  0  0  0  0  0  0  0  0  0
    4.7974   -3.7646   -0.7101 H   0  0  0  0  0  0  0  0  0  0  0  0
    2.5117   -3.9859    0.3793 H   0  0  0  0  0  0  0  0  0  0  0  0
    2.9845   -6.3599    1.0902 H   0  0  0  0  0  0  0  0  0  0  0  0
    5.1752   -7.1124    0.1062 H   0  0  0  0  0  0  0  0  0  0  0  0
    4.6349   -5.8243   -0.9531 H   0  0  0  0  0  0  0  0  0  0  0  0
    7.0302   -5.3269    0.1275 H   0  0  0  0  0  0  0  0  0  0  0  0
    6.9086   -5.2978    2.5743 H   0  0  0  0  0  0  0  0  0  0  0  0
    5.0799   -7.0702    2.3767 H   0  0  0  0  0  0  0  0  0  0  0  0
    5.1519   -5.9736    4.6016 H   0  0  0  0  0  0  0  0  0  0  0  0
    2.8576   -4.6629    6.3016 H   0  0  0  0  0  0  0  0  0  0  0  0
    4.2607   -3.8226    5.7594 H   0  0  0  0  0  0  0  0  0  0  0  0
    1.3347   -3.0090    5.4608 H   0  0  0  0  0  0  0  0  0  0  0  0
    2.6149   -2.1035    6.1205 H   0  0  0  0  0  0  0  0  0  0  0  0
    5.3664   -3.4436    3.4324 H   0  0  0  0  0  0  0  0  0  0  0  0
  1  2  1  0
  1 28  1  0
  1 29  1  0
  1 30  1  0
  2  3  1  0
  2 31  1  0
  2 32  1  0
  3 26  1  0
  3  4  1  0
  3 33  1  6
  4  5  1  0
  4  6  1  0
  4 34  1  1
  5 35  1  0
  6  7  1  0
  6  9  1  0
  6 36  1  6
  7  8  1  0
  8 37  1  0
  8 38  1  0
  8 39  1  0
  9 27  1  0
  9 10  1  0
  9 40  1  6
 10 23  1  0
 10 11  1  0
 10 41  1  6
 11 15  1  0
 11 12  1  0
 11 42  1  1
 12 13  1  0
 12 43  1  0
 12 44  1  0
 27 13  1  6
 13 14  1  0
 13 45  1  1
 14 27  1  0
 14 15  1  0
 14 46  1  1
 15 16  1  0
 15 47  1  1
 16 17  2  0
 16 48  1  0
 17 24  1  0
 17 18  1  0
 18 19  1  0
 18 49  1  0
 18 50  1  0
 19 20  1  0
 19 51  1  0
 19 52  1  0
 20 21  1  0
 21 22  2  0
 23 21  1  6
 23 24  1  0
 23 26  1  0
 24 25  2  0
 26 27  1  0
 26 53  1  1
M  END
>  <i_m_ct_stereo_status>  (153) 
1

>  <s_m_source_file>  (153) 
/var/tmp/pbs.5076255.sched01/tmp5gbx45fw/500pp51iot.sdf

>  <i_m_source_file_index>  (153) 
13

>  <i_lp_mmshare_version>  (153) 
48012

>  <i_f3d_flags>  (153) 
0

>  <s_epik_input>  (153) 
W0NIM11PW0NAQEhdMVtDQEhdKFtPSF0pW0NAQEhdKFtDSDJdW0NIM10pW0NAQEhdMltDQEBdMyhbQ0BIXTFbQ0BASF00W0NAQF0yNTYpW0NASF03W0NAQEhdM1tDQEhdKFtDQEBIXTRbQ0gyXTcpW0NIXT1DKEM2PU8pW0NIMl1bQ0gyXU9DNT1P

>  <s_epik_cmdline>  (153) 
J2VwaWtfcHl0aG9uJywgJy1waHQnLCAnMi4wJywgJy1waCcsICc3LjAnLCAnLXRuJywgJzgnLCAnLW1hJywgJzIwMCcsICctaW1hZScsICc8aW5maWxlLm1hZT4nLCAnLW9tYWUnLCAnPG91dGZpbGUubWFlPic=

>  <r_lp_tautomer_probability>  (153) 
1

>  <r_epik_Ionization_Penalty>  (153) 
4.36025e-08

>  <r_epik_Ionization_Penalty_Charging>  (153) 
0

>  <r_epik_Ionization_Penalty_Neutral>  (153) 
4.36025e-08

>  <r_epik_State_Penalty>  (153) 
-0

>  <r_epik_Charging_Adjusted_Penalty>  (153) 
0

>  <i_epik_Tot_Q>  (153) 
0

>  <i_epik_Tot_abs_Q>  (153) 
0

>  <s_epik_Chemistry_Notes>  (153) 
This compound has an ester and may undergo hydrolysis at high or low pH.

>  <s_lp_Force_Field>  (153) 
OPLS3e

>  <r_lp_Energy>  (153) 
214.04

>  <b_lp_Chiralities_Consistent>  (153) 
1

>  <s_lp_Variant>  (153) 
36:0-1

>  <s_i_glide_gridfile>  (153) 
pfpi4k_grid

>  <i_i_glide_lignum>  (153) 
13

>  <i_i_glide_rotatable_bonds>  (153) 
3

>  <r_i_docking_score>  (153) 
-2.93601

>  <r_i_glide_ligand_efficiency>  (153) 
-0.108741

>  <r_i_glide_ligand_efficiency_sa>  (153) 
-0.326223

>  <r_i_glide_ligand_efficiency_ln>  (153) 
-0.683455

>  <r_i_glide_gscore>  (153) 
-2.93601

>  <r_i_glide_lipo>  (153) 
-0.802509

>  <r_i_glide_hbond>  (153) 
0

>  <r_i_glide_metal>  (153) 
-0

>  <r_i_glide_rewards>  (153) 
-0.883372

>  <r_i_glide_evdw>  (153) 
-17.5729

>  <r_i_glide_ecoul>  (153) 
-2.47734

>  <r_i_glide_erotb>  (153) 
0

>  <r_i_glide_esite>  (153) 
-0.00700878

>  <r_i_glide_emodel>  (153) 
-19.1738

>  <r_i_glide_energy>  (153) 
-20.0502

>  <r_i_glide_einternal>  (153) 
2.69072

>  <r_i_glide_intrahb_reward>  (153) 
-0

>  <i_i_glide_confnum>  (153) 
1

>  <i_i_glide_posenum>  (153) 
1

>  <r_i_glide_eff_state_penalty>  (153) 
0

>  <ligand_id>  (153) 
36

>  <original_smiles>  (153) 
CCC1C(O)C(OC)C2C3C4CC5C6C4C=C4CCOC(=O)C3(C4=O)C1C526

>  <smiles>  (153) 
[H]OC1([H])C([H])(OC([H])([H])[H])C2([H])C3([H])C45C(=O)OC([H])([H])C([H])([H])C(=C([H])C6([H])C3([H])C([H])([H])C3([H])C6([H])C32C4([H])C1([H])C([H])([H])C([H])([H])[H])C5=O

$$$$
36:0:1
     RDKit          3D

 53 59  0  0  1  0  0  0  0  0999 V2000
    5.8855   -0.2663    3.1914 C   0  0  0  0  0  0  0  0  0  0  0  0
    4.9521   -0.2948    1.9717 C   0  0  0  0  0  0  0  0  0  0  0  0
    4.9904   -1.6141    1.1593 C   0  0  2  0  0  0  0  0  0  0  0  0
    4.2421   -1.5031   -0.1966 C   0  0  1  0  0  0  0  0  0  0  0  0
    5.2149   -1.3487   -1.2196 O   0  0  0  0  0  0  0  0  0  0  0  0
    3.3414   -2.7165   -0.5141 C   0  0  1  0  0  0  0  0  0  0  0  0
    3.1449   -2.8156   -1.9269 O   0  0  0  0  0  0  0  0  0  0  0  0
    1.9142   -3.4187   -2.3168 C   0  0  0  0  0  0  0  0  0  0  0  0
    3.8199   -4.0511    0.1184 C   0  0  2  0  0  0  0  0  0  0  0  0
    3.0346   -4.5795    1.3591 C   0  0  1  0  0  0  0  0  0  0  0  0
    3.7509   -5.9828    1.8470 C   0  0  1  0  0  0  0  0  0  0  0  0
    4.4651   -6.6182    0.6435 C   0  0  0  0  0  0  0  0  0  0  0  0
    5.5545   -5.5623    0.4438 C   0  0  2  0  0  0  0  0  0  0  0  0
    5.9335   -5.0791    1.6865 C   0  0  2  0  0  0  0  0  0  0  0  0
    5.0909   -5.7996    2.7146 C   0  0  1  0  0  0  0  0  0  0  0  0
    5.1494   -5.0448    4.0672 C   0  0  0  0  0  0  0  0  0  0  0  0
    4.1833   -4.2434    4.5335 C   0  0  0  0  0  0  0  0  0  0  0  0
    4.3410   -3.0085    5.4044 C   0  0  0  0  0  0  0  0  0  0  0  0
    3.2707   -1.8759    5.1386 C   0  0  0  0  0  0  0  0  0  0  0  0
    2.8647   -1.4239    3.8103 O   0  0  0  0  0  0  0  0  0  0  0  0
    2.4459   -2.1920    2.7094 C   0  0  0  0  0  0  0  0  0  0  0  0
    1.4885   -1.8544    2.0170 O   0  0  0  0  0  0  0  0  0  0  0  0
    3.3110   -3.4473    2.3994 C   0  0  1  0  0  0  0  0  0  0  0  0
    3.0400   -4.1875    3.7100 C   0  0  0  0  0  0  0  0  0  0  0  0
    1.9353   -4.6517    4.0080 O   0  0  0  0  0  0  0  0  0  0  0  0
    4.7819   -3.0110    1.8575 C   0  0  1  0  0  0  0  0  0  0  0  0
    5.2255   -4.0334    0.7381 C   0  0  1  0  0  0  0  0  0  0  0  0
    5.8103    0.6769    3.7319 H   0  0  0  0  0  0  0  0  0  0  0  0
    6.9271   -0.4011    2.8952 H   0  0  0  0  0  0  0  0  0  0  0  0
    5.6501   -1.0481    3.9037 H   0  0  0  0  0  0  0  0  0  0  0  0
    3.9431    0.0026    2.2469 H   0  0  0  0  0  0  0  0  0  0  0  0
    5.2713    0.4932    1.2876 H   0  0  0  0  0  0  0  0  0  0  0  0
    6.0496   -1.6734    0.8906 H   0  0  0  0  0  0  0  0  0  0  0  0
    3.6129   -0.6111   -0.2061 H   0  0  0  0  0  0  0  0  0  0  0  0
    4.7254   -1.2642   -2.0283 H   0  0  0  0  0  0  0  0  0  0  0  0
    2.3680   -2.4966   -0.1019 H   0  0  0  0  0  0  0  0  0  0  0  0
    1.8866   -3.5532   -3.3996 H   0  0  0  0  0  0  0  0  0  0  0  0
    1.0632   -2.7980   -2.0513 H   0  0  0  0  0  0  0  0  0  0  0  0
    1.7510   -4.3848   -1.8411 H   0  0  0  0  0  0  0  0  0  0  0  0
    3.7536   -4.7330   -0.7303 H   0  0  0  0  0  0  0  0  0  0  0  0
    1.9753   -4.7163    1.1341 H   0  0  0  0  0  0  0  0  0  0  0  0
    3.0461   -6.6755    2.3258 H   0  0  0  0  0  0  0  0  0  0  0  0
    4.9220   -7.5828    0.8749 H   0  0  0  0  0  0  0  0  0  0  0  0
    3.8454   -6.7589   -0.2398 H   0  0  0  0  0  0  0  0  0  0  0  0
    6.3158   -5.7821   -0.2977 H   0  0  0  0  0  0  0  0  0  0  0  0
    6.9930   -4.9475    1.9018 H   0  0  0  0  0  0  0  0  0  0  0  0
    5.5493   -6.7703    2.9189 H   0  0  0  0  0  0  0  0  0  0  0  0
    6.1372   -4.9844    4.5071 H   0  0  0  0  0  0  0  0  0  0  0  0
    4.3141   -3.2981    6.4578 H   0  0  0  0  0  0  0  0  0  0  0  0
    5.3568   -2.6397    5.2562 H   0  0  0  0  0  0  0  0  0  0  0  0
    2.3659   -2.1165    5.6979 H   0  0  0  0  0  0  0  0  0  0  0  0
    3.6565   -0.9666    5.5983 H   0  0  0  0  0  0  0  0  0  0  0  0
    5.5193   -2.9971    2.6577 H   0  0  0  0  0  0  0  0  0  0  0  0
  1  2  1  0
  1 28  1  0
  1 29  1  0
  1 30  1  0
  2  3  1  0
  2 31  1  0
  2 32  1  0
  3 26  1  0
  3  4  1  0
  3 33  1  6
  4  5  1  0
  4  6  1  0
  4 34  1  1
  5 35  1  0
  6  7  1  0
  6  9  1  0
  6 36  1  1
  7  8  1  0
  8 37  1  0
  8 38  1  0
  8 39  1  0
  9 27  1  0
  9 10  1  0
  9 40  1  6
 10 23  1  0
 10 11  1  0
 10 41  1  6
 11 15  1  0
 11 12  1  0
 11 42  1  1
 12 13  1  0
 12 43  1  0
 12 44  1  0
 27 13  1  6
 13 14  1  0
 13 45  1  6
 14 27  1  0
 14 15  1  0
 14 46  1  1
 15 16  1  0
 15 47  1  1
 16 17  2  0
 16 48  1  0
 17 24  1  0
 17 18  1  0
 18 19  1  0
 18 49  1  0
 18 50  1  0
 19 20  1  0
 19 51  1  0
 19 52  1  0
 20 21  1  0
 21 22  2  0
 23 21  1  6
 23 24  1  0
 23 26  1  0
 24 25  2  0
 26 27  1  0
 26 53  1  1
M  END
>  <i_m_ct_stereo_status>  (154) 
1

>  <s_m_source_file>  (154) 
/var/tmp/pbs.5076255.sched01/tmp5gbx45fw/500pp51iot.sdf

>  <i_m_source_file_index>  (154) 
13

>  <i_lp_mmshare_version>  (154) 
48012

>  <i_f3d_flags>  (154) 
0

>  <s_epik_input>  (154) 
W0NIM11PW0NAQEhdMVtDQEhdKFtPSF0pW0NAQEhdKFtDSDJdW0NIM10pW0NAQEhdMltDQEBdMyhbQ0BIXTFbQ0BASF00W0NAQF0yNTYpW0NASF03W0NAQEhdM1tDQEhdKFtDQEBIXTRbQ0gyXTcpW0NIXT1DKEM2PU8pW0NIMl1bQ0gyXU9DNT1P

>  <s_epik_cmdline>  (154) 
J2VwaWtfcHl0aG9uJywgJy1waHQnLCAnMi4wJywgJy1waCcsICc3LjAnLCAnLXRuJywgJzgnLCAnLW1hJywgJzIwMCcsICctaW1hZScsICc8aW5maWxlLm1hZT4nLCAnLW9tYWUnLCAnPG91dGZpbGUubWFlPic=

>  <r_lp_tautomer_probability>  (154) 
1

>  <r_epik_Ionization_Penalty>  (154) 
4.36025e-08

>  <r_epik_Ionization_Penalty_Charging>  (154) 
0

>  <r_epik_Ionization_Penalty_Neutral>  (154) 
4.36025e-08

>  <r_epik_State_Penalty>  (154) 
-0

>  <r_epik_Charging_Adjusted_Penalty>  (154) 
0

>  <i_epik_Tot_Q>  (154) 
0

>  <i_epik_Tot_abs_Q>  (154) 
0

>  <s_epik_Chemistry_Notes>  (154) 
This compound has an ester and may undergo hydrolysis at high or low pH.

>  <s_lp_Force_Field>  (154) 
OPLS3e

>  <r_lp_Energy>  (154) 
214.04

>  <b_lp_Chiralities_Consistent>  (154) 
1

>  <s_lp_Variant>  (154) 
36:0-1

>  <s_i_glide_gridfile>  (154) 
pfpi4k_grid

>  <i_i_glide_lignum>  (154) 
13

>  <i_i_glide_rotatable_bonds>  (154) 
3

>  <r_i_docking_score>  (154) 
-2.59535

>  <r_i_glide_ligand_efficiency>  (154) 
-0.0961239

>  <r_i_glide_ligand_efficiency_sa>  (154) 
-0.288372

>  <r_i_glide_ligand_efficiency_ln>  (154) 
-0.604154

>  <r_i_glide_gscore>  (154) 
-2.59535

>  <r_i_glide_lipo>  (154) 
-0.899966

>  <r_i_glide_hbond>  (154) 
0

>  <r_i_glide_metal>  (154) 
-0

>  <r_i_glide_rewards>  (154) 
-0.88342

>  <r_i_glide_evdw>  (154) 
-18.5443

>  <r_i_glide_ecoul>  (154) 
0.80913

>  <r_i_glide_erotb>  (154) 
0

>  <r_i_glide_esite>  (154) 
-0.00611705

>  <r_i_glide_emodel>  (154) 
-20.457

>  <r_i_glide_energy>  (154) 
-17.7351

>  <r_i_glide_einternal>  (154) 
1.52007

>  <r_i_glide_intrahb_reward>  (154) 
-0

>  <i_i_glide_confnum>  (154) 
1

>  <i_i_glide_posenum>  (154) 
8

>  <r_i_glide_eff_state_penalty>  (154) 
0

>  <ligand_id>  (154) 
36

>  <original_smiles>  (154) 
CCC1C(O)C(OC)C2C3C4CC5C6C4C=C4CCOC(=O)C3(C4=O)C1C526

>  <smiles>  (154) 
[H]OC1([H])C([H])(OC([H])([H])[H])C2([H])C3([H])C45C(=O)OC([H])([H])C([H])([H])C(=C([H])C6([H])C3([H])C([H])([H])C3([H])C6([H])C32C4([H])C1([H])C([H])([H])C([H])([H])[H])C5=O

$$$$
36:0:2
     RDKit          3D

 53 59  0  0  1  0  0  0  0  0999 V2000
    5.9367   -0.2011    3.3829 C   0  0  0  0  0  0  0  0  0  0  0  0
    5.1295   -0.3155    2.0781 C   0  0  0  0  0  0  0  0  0  0  0  0
    5.3465   -1.6359    1.2942 C   0  0  2  0  0  0  0  0  0  0  0  0
    4.7544   -1.5764   -0.1394 C   0  0  1  0  0  0  0  0  0  0  0  0
    5.8255   -1.4112   -1.0496 O   0  0  0  0  0  0  0  0  0  0  0  0
    3.9809   -2.8493   -0.5526 C   0  0  1  0  0  0  0  0  0  0  0  0
    4.0201   -3.0369   -1.9702 O   0  0  0  0  0  0  0  0  0  0  0  0
    3.1636   -2.1885   -2.7253 C   0  0  0  0  0  0  0  0  0  0  0  0
    4.4553   -4.1437    0.1662 C   0  0  2  0  0  0  0  0  0  0  0  0
    3.5635   -4.7098    1.3103 C   0  0  1  0  0  0  0  0  0  0  0  0
    4.2973   -6.0622    1.9053 C   0  0  1  0  0  0  0  0  0  0  0  0
    5.1878   -6.6673    0.8079 C   0  0  0  0  0  0  0  0  0  0  0  0
    6.2291   -5.5481    0.7177 C   0  0  2  0  0  0  0  0  0  0  0  0
    6.4219   -5.0291    1.9909 C   0  0  2  0  0  0  0  0  0  0  0  0
    5.5080   -5.7853    2.9255 C   0  0  1  0  0  0  0  0  0  0  0  0
    5.3537   -5.0159    4.2618 C   0  0  0  0  0  0  0  0  0  0  0  0
    4.2875   -4.2670    4.5907 C   0  0  0  0  0  0  0  0  0  0  0  0
    4.2658   -3.0114    5.4453 C   0  0  0  0  0  0  0  0  0  0  0  0
    3.1648   -1.9503    5.0305 C   0  0  0  0  0  0  0  0  0  0  0  0
    2.8830   -1.5515    3.6551 O   0  0  0  0  0  0  0  0  0  0  0  0
    2.6748   -2.3644    2.5240 C   0  0  0  0  0  0  0  0  0  0  0  0
    1.8207   -2.1137    1.6781 O   0  0  0  0  0  0  0  0  0  0  0  0
    3.6457   -3.5583    2.3551 C   0  0  1  0  0  0  0  0  0  0  0  0
    3.2520   -4.2943    3.6367 C   0  0  0  0  0  0  0  0  0  0  0  0
    2.1481   -4.8173    3.8100 O   0  0  0  0  0  0  0  0  0  0  0  0
    5.1397   -3.0367    1.9840 C   0  0  1  0  0  0  0  0  0  0  0  0
    5.7762   -4.0398    0.9428 C   0  0  1  0  0  0  0  0  0  0  0  0
    5.7230    0.7374    3.8946 H   0  0  0  0  0  0  0  0  0  0  0  0
    7.0127   -0.2543    3.2083 H   0  0  0  0  0  0  0  0  0  0  0  0
    5.6977   -0.9949    4.0808 H   0  0  0  0  0  0  0  0  0  0  0  0
    4.0797   -0.0912    2.2503 H   0  0  0  0  0  0  0  0  0  0  0  0
    5.4461    0.4861    1.4112 H   0  0  0  0  0  0  0  0  0  0  0  0
    6.4313   -1.6260    1.1531 H   0  0  0  0  0  0  0  0  0  0  0  0
    4.0981   -0.7105   -0.2463 H   0  0  0  0  0  0  0  0  0  0  0  0
    5.4343   -1.4498   -1.9147 H   0  0  0  0  0  0  0  0  0  0  0  0
    2.9331   -2.7264   -0.3140 H   0  0  0  0  0  0  0  0  0  0  0  0
    3.2355   -2.4564   -3.7800 H   0  0  0  0  0  0  0  0  0  0  0  0
    3.4480   -1.1412   -2.6329 H   0  0  0  0  0  0  0  0  0  0  0  0
    2.1196   -2.2953   -2.4344 H   0  0  0  0  0  0  0  0  0  0  0  0
    4.5148   -4.8465   -0.6651 H   0  0  0  0  0  0  0  0  0  0  0  0
    2.5492   -4.9159    0.9603 H   0  0  0  0  0  0  0  0  0  0  0  0
    3.5825   -6.7898    2.3056 H   0  0  0  0  0  0  0  0  0  0  0  0
    5.6714   -7.5956    1.1185 H   0  0  0  0  0  0  0  0  0  0  0  0
    4.6848   -6.8645   -0.1385 H   0  0  0  0  0  0  0  0  0  0  0  0
    7.0996   -5.7368    0.0955 H   0  0  0  0  0  0  0  0  0  0  0  0
    7.4403   -4.8424    2.3238 H   0  0  0  0  0  0  0  0  0  0  0  0
    5.9892   -6.7252    3.2040 H   0  0  0  0  0  0  0  0  0  0  0  0
    6.2673   -4.8881    4.8230 H   0  0  0  0  0  0  0  0  0  0  0  0
    4.1288   -3.2847    6.4933 H   0  0  0  0  0  0  0  0  0  0  0  0
    5.2645   -2.5776    5.4033 H   0  0  0  0  0  0  0  0  0  0  0  0
    2.2174   -2.2417    5.4874 H   0  0  0  0  0  0  0  0  0  0  0  0
    3.4381   -1.0147    5.5140 H   0  0  0  0  0  0  0  0  0  0  0  0
    5.7715   -2.9694    2.8676 H   0  0  0  0  0  0  0  0  0  0  0  0
  1  2  1  0
  1 28  1  0
  1 29  1  0
  1 30  1  0
  2  3  1  0
  2 31  1  0
  2 32  1  0
  3 26  1  0
  3  4  1  0
  3 33  1  6
  4  5  1  0
  4  6  1  0
  4 34  1  1
  5 35  1  0
  6  7  1  0
  6  9  1  0
  6 36  1  1
  7  8  1  0
  8 37  1  0
  8 38  1  0
  8 39  1  0
  9 27  1  0
  9 10  1  0
  9 40  1  6
 10 23  1  0
 10 11  1  0
 10 41  1  6
 11 15  1  0
 11 12  1  0
 11 42  1  1
 12 13  1  0
 12 43  1  0
 12 44  1  0
 27 13  1  6
 13 14  1  0
 13 45  1  6
 14 27  1  0
 14 15  1  0
 14 46  1  1
 15 16  1  0
 15 47  1  1
 16 17  2  0
 16 48  1  0
 17 24  1  0
 17 18  1  0
 18 19  1  0
 18 49  1  0
 18 50  1  0
 19 20  1  0
 19 51  1  0
 19 52  1  0
 20 21  1  0
 21 22  2  0
 23 21  1  6
 23 24  1  0
 23 26  1  0
 24 25  2  0
 26 27  1  0
 26 53  1  1
M  END
>  <i_m_ct_stereo_status>  (155) 
1

>  <s_m_source_file>  (155) 
/var/tmp/pbs.5076255.sched01/tmp5gbx45fw/500pp51iot.sdf

>  <i_m_source_file_index>  (155) 
13

>  <i_lp_mmshare_version>  (155) 
48012

>  <i_f3d_flags>  (155) 
0

>  <s_epik_input>  (155) 
W0NIM11PW0NAQEhdMVtDQEhdKFtPSF0pW0NAQEhdKFtDSDJdW0NIM10pW0NAQEhdMltDQEBdMyhbQ0BIXTFbQ0BASF00W0NAQF0yNTYpW0NASF03W0NAQEhdM1tDQEhdKFtDQEBIXTRbQ0gyXTcpW0NIXT1DKEM2PU8pW0NIMl1bQ0gyXU9DNT1P

>  <s_epik_cmdline>  (155) 
J2VwaWtfcHl0aG9uJywgJy1waHQnLCAnMi4wJywgJy1waCcsICc3LjAnLCAnLXRuJywgJzgnLCAnLW1hJywgJzIwMCcsICctaW1hZScsICc8aW5maWxlLm1hZT4nLCAnLW9tYWUnLCAnPG91dGZpbGUubWFlPic=

>  <r_lp_tautomer_probability>  (155) 
1

>  <r_epik_Ionization_Penalty>  (155) 
4.36025e-08

>  <r_epik_Ionization_Penalty_Charging>  (155) 
0

>  <r_epik_Ionization_Penalty_Neutral>  (155) 
4.36025e-08

>  <r_epik_State_Penalty>  (155) 
-0

>  <r_epik_Charging_Adjusted_Penalty>  (155) 
0

>  <i_epik_Tot_Q>  (155) 
0

>  <i_epik_Tot_abs_Q>  (155) 
0

>  <s_epik_Chemistry_Notes>  (155) 
This compound has an ester and may undergo hydrolysis at high or low pH.

>  <s_lp_Force_Field>  (155) 
OPLS3e

>  <r_lp_Energy>  (155) 
214.04

>  <b_lp_Chiralities_Consistent>  (155) 
1

>  <s_lp_Variant>  (155) 
36:0-1

>  <s_i_glide_gridfile>  (155) 
pfpi4k_grid

>  <i_i_glide_lignum>  (155) 
13

>  <i_i_glide_rotatable_bonds>  (155) 
3

>  <r_i_docking_score>  (155) 
-2.49681

>  <r_i_glide_ligand_efficiency>  (155) 
-0.0924745

>  <r_i_glide_ligand_efficiency_sa>  (155) 
-0.277423

>  <r_i_glide_ligand_efficiency_ln>  (155) 
-0.581217

>  <r_i_glide_gscore>  (155) 
-2.49681

>  <r_i_glide_lipo>  (155) 
-0.8275

>  <r_i_glide_hbond>  (155) 
0

>  <r_i_glide_metal>  (155) 
-0

>  <r_i_glide_rewards>  (155) 
-0.883372

>  <r_i_glide_evdw>  (155) 
-19.0581

>  <r_i_glide_ecoul>  (155) 
1.14124

>  <r_i_glide_erotb>  (155) 
0

>  <r_i_glide_esite>  (155) 
-0.00422103

>  <r_i_glide_emodel>  (155) 
-20.8917

>  <r_i_glide_energy>  (155) 
-17.9169

>  <r_i_glide_einternal>  (155) 
0.681088

>  <r_i_glide_intrahb_reward>  (155) 
-0

>  <i_i_glide_confnum>  (155) 
2

>  <i_i_glide_posenum>  (155) 
15

>  <r_i_glide_eff_state_penalty>  (155) 
0

>  <ligand_id>  (155) 
36

>  <original_smiles>  (155) 
CCC1C(O)C(OC)C2C3C4CC5C6C4C=C4CCOC(=O)C3(C4=O)C1C526

>  <smiles>  (155) 
[H]OC1([H])C([H])(OC([H])([H])[H])C2([H])C3([H])C45C(=O)OC([H])([H])C([H])([H])C(=C([H])C6([H])C3([H])C([H])([H])C3([H])C6([H])C32C4([H])C1([H])C([H])([H])C([H])([H])[H])C5=O

$$$$
37:0:0
     RDKit          3D

 30 33  0  0  1  0  0  0  0  0999 V2000
    1.9513    5.0277    3.0405 C   0  0  0  0  0  0  0  0  0  0  0  0
    0.7610    4.5376    3.8012 C   0  0  0  0  0  0  0  0  0  0  0  0
   -0.1882    5.3548    4.2638 N   0  0  0  0  0  0  0  0  0  0  0  0
   -1.1294    4.5436    4.8743 N   0  0  0  0  0  0  0  0  0  0  0  0
   -0.6557    3.2977    4.7791 C   0  0  0  0  0  0  0  0  0  0  0  0
    0.5015    3.2528    4.1057 N   0  0  0  0  0  0  0  0  0  0  0  0
    1.2614    2.0960    3.8123 C   0  0  0  0  0  0  0  0  0  0  0  0
    2.6044    2.1566    3.9341 N   0  0  0  0  0  0  0  0  0  0  0  0
    3.3371    1.0645    3.6454 C   0  0  0  0  0  0  0  0  0  0  0  0
    2.7685   -0.1533    3.2359 C   0  0  0  0  0  0  0  0  0  0  0  0
    1.3703   -0.2362    3.1292 C   0  0  0  0  0  0  0  0  0  0  0  0
    0.5956    0.9007    3.4382 C   0  0  0  0  0  0  0  0  0  0  0  0
   -0.9139    0.8480    3.2762 C   0  0  0  0  0  0  0  0  0  0  0  0
   -1.7139    1.0397    4.4793 N   0  0  0  0  0  0  0  0  0  0  0  0
   -1.2915    2.0847    5.4073 C   0  0  0  0  0  0  0  0  0  0  0  0
   -2.1255    2.2393    6.6664 C   0  0  0  0  0  0  0  0  0  0  0  0
   -0.7602    1.6168    6.7454 C   0  0  0  0  0  0  0  0  0  0  0  0
    1.8399    6.0970    2.8524 H   0  0  0  0  0  0  0  0  0  0  0  0
    2.0295    4.5069    2.0844 H   0  0  0  0  0  0  0  0  0  0  0  0
    2.8666    4.8706    3.6151 H   0  0  0  0  0  0  0  0  0  0  0  0
    4.4060    1.1706    3.7330 H   0  0  0  0  0  0  0  0  0  0  0  0
    3.3986   -0.9935    2.9793 H   0  0  0  0  0  0  0  0  0  0  0  0
    0.9052   -1.1523    2.7966 H   0  0  0  0  0  0  0  0  0  0  0  0
   -1.2184    1.5526    2.4998 H   0  0  0  0  0  0  0  0  0  0  0  0
   -1.1753   -0.1423    2.9113 H   0  0  0  0  0  0  0  0  0  0  0  0
   -2.6801    1.1877    4.2085 H   0  0  0  0  0  0  0  0  0  0  0  0
   -2.2485    3.2394    7.0827 H   0  0  0  0  0  0  0  0  0  0  0  0
   -2.9759    1.5758    6.8179 H   0  0  0  0  0  0  0  0  0  0  0  0
   -0.7046    0.5458    6.9234 H   0  0  0  0  0  0  0  0  0  0  0  0
    0.0349    2.2033    7.2039 H   0  0  0  0  0  0  0  0  0  0  0  0
  1  2  1  0
  1 18  1  0
  1 19  1  0
  1 20  1  0
  2  6  1  0
  2  3  2  0
  3  4  1  0
  4  5  2  0
  5 15  1  0
  5  6  1  0
  6  7  1  0
  7 12  2  0
  7  8  1  0
  8  9  2  0
  9 10  1  0
  9 21  1  0
 10 11  2  0
 10 22  1  0
 11 12  1  0
 11 23  1  0
 12 13  1  0
 13 14  1  0
 13 24  1  0
 13 25  1  0
 14 15  1  0
 14 26  1  0
 15 17  1  0
 15 16  1  0
 16 17  1  0
 16 27  1  0
 16 28  1  0
 17 29  1  0
 17 30  1  0
M  END
>  <i_m_ct_stereo_status>  (156) 
1

>  <s_m_source_file>  (156) 
/var/tmp/pbs.5076255.sched01/tmp5gbx45fw/500pp51iot.sdf

>  <i_m_source_file_index>  (156) 
14

>  <i_lp_mmshare_version>  (156) 
48012

>  <i_f3d_flags>  (156) 
0

>  <s_epik_input>  (156) 
W0NIMl0xW0NIMl1DMTJjM24oYyhbQ0gzXSlubjMpYzRjKFtDSDJdW05IXTIpW2NIXVtjSF1bY0hdbjQ=

>  <s_epik_cmdline>  (156) 
J2VwaWtfcHl0aG9uJywgJy1waHQnLCAnMi4wJywgJy1waCcsICc3LjAnLCAnLXRuJywgJzgnLCAnLW1hJywgJzIwMCcsICctaW1hZScsICc8aW5maWxlLm1hZT4nLCAnLW9tYWUnLCAnPG91dGZpbGUubWFlPic=

>  <r_lp_tautomer_probability>  (156) 
1

>  <r_epik_Ionization_Penalty>  (156) 
0.189497

>  <r_epik_Ionization_Penalty_Charging>  (156) 
0

>  <r_epik_Ionization_Penalty_Neutral>  (156) 
0.189497

>  <r_epik_State_Penalty>  (156) 
0.179055

>  <r_epik_Charging_Adjusted_Penalty>  (156) 
0.179055

>  <i_epik_Tot_Q>  (156) 
0

>  <i_epik_Tot_abs_Q>  (156) 
0

>  <s_lp_Force_Field>  (156) 
OPLS3e

>  <r_lp_Energy>  (156) 
31.7969

>  <b_lp_Chiralities_Consistent>  (156) 
1

>  <s_lp_Variant>  (156) 
37:0-1

>  <s_i_glide_gridfile>  (156) 
pfpi4k_grid

>  <i_i_glide_lignum>  (156) 
14

>  <i_i_glide_rotatable_bonds>  (156) 
0

>  <r_i_docking_score>  (156) 
-3.90784

>  <r_i_glide_ligand_efficiency>  (156) 
-0.229873

>  <r_i_glide_ligand_efficiency_sa>  (156) 
-0.591068

>  <r_i_glide_ligand_efficiency_ln>  (156) 
-1.01947

>  <r_i_glide_gscore>  (156) 
-3.90784

>  <r_i_glide_lipo>  (156) 
-0.0190422

>  <r_i_glide_hbond>  (156) 
-0.126877

>  <r_i_glide_metal>  (156) 
-0

>  <r_i_glide_rewards>  (156) 
-1.85956

>  <r_i_glide_evdw>  (156) 
-15.5288

>  <r_i_glide_ecoul>  (156) 
-5.39079

>  <r_i_glide_erotb>  (156) 
0

>  <r_i_glide_esite>  (156) 
-0.317307

>  <r_i_glide_emodel>  (156) 
-26.3768

>  <r_i_glide_energy>  (156) 
-20.9196

>  <r_i_glide_einternal>  (156) 
0

>  <r_i_glide_intrahb_reward>  (156) 
-0

>  <i_i_glide_confnum>  (156) 
1

>  <i_i_glide_posenum>  (156) 
2

>  <r_i_glide_eff_state_penalty>  (156) 
0

>  <ligand_id>  (156) 
37

>  <original_smiles>  (156) 
Cc1nnc2n1-c1ncccc1CNC21CC1

>  <smiles>  (156) 
[H]c1nc2c(c([H])c1[H])C([H])([H])N([H])C1(c3nnc(C([H])([H])[H])n3-2)C([H])([H])C1([H])[H]

$$$$
37:0:1
     RDKit          3D

 30 33  0  0  1  0  0  0  0  0999 V2000
   -0.0276   -2.5998    4.7259 C   0  0  0  0  0  0  0  0  0  0  0  0
   -0.6694   -1.2712    4.9219 C   0  0  0  0  0  0  0  0  0  0  0  0
   -1.7535   -1.1020    5.6838 N   0  0  0  0  0  0  0  0  0  0  0  0
   -2.0070    0.2591    5.6969 N   0  0  0  0  0  0  0  0  0  0  0  0
   -1.1159    0.8023    4.8579 C   0  0  0  0  0  0  0  0  0  0  0  0
   -0.2526   -0.1107    4.3913 N   0  0  0  0  0  0  0  0  0  0  0  0
    0.8427    0.1286    3.5276 C   0  0  0  0  0  0  0  0  0  0  0  0
    1.1032   -0.7691    2.5540 N   0  0  0  0  0  0  0  0  0  0  0  0
    2.1483   -0.5587    1.7294 C   0  0  0  0  0  0  0  0  0  0  0  0
    2.9967    0.5514    1.8407 C   0  0  0  0  0  0  0  0  0  0  0  0
    2.7289    1.5004    2.8420 C   0  0  0  0  0  0  0  0  0  0  0  0
    1.6332    1.2946    3.7041 C   0  0  0  0  0  0  0  0  0  0  0  0
    1.3907    2.2750    4.8419 C   0  0  0  0  0  0  0  0  0  0  0  0
    0.1175    2.9894    4.8358 N   0  0  0  0  0  0  0  0  0  0  0  0
   -1.0743    2.2489    4.4383 C   0  0  0  0  0  0  0  0  0  0  0  0
   -2.3591    3.0551    4.3863 C   0  0  0  0  0  0  0  0  0  0  0  0
   -1.6955    2.6246    3.1078 C   0  0  0  0  0  0  0  0  0  0  0  0
   -0.5170   -3.3366    5.3648 H   0  0  0  0  0  0  0  0  0  0  0  0
    1.0281   -2.5488    4.9948 H   0  0  0  0  0  0  0  0  0  0  0  0
   -0.1253   -2.9172    3.6870 H   0  0  0  0  0  0  0  0  0  0  0  0
    2.3089   -1.3005    0.9635 H   0  0  0  0  0  0  0  0  0  0  0  0
    3.8357    0.6718    1.1720 H   0  0  0  0  0  0  0  0  0  0  0  0
    3.3805    2.3531    2.9670 H   0  0  0  0  0  0  0  0  0  0  0  0
    1.5141    1.7547    5.7915 H   0  0  0  0  0  0  0  0  0  0  0  0
    2.1655    3.0427    4.8142 H   0  0  0  0  0  0  0  0  0  0  0  0
   -0.0445    3.4543    5.7191 H   0  0  0  0  0  0  0  0  0  0  0  0
   -3.2920    2.5654    4.6499 H   0  0  0  0  0  0  0  0  0  0  0  0
   -2.3167    4.1155    4.6306 H   0  0  0  0  0  0  0  0  0  0  0  0
   -1.2089    3.3931    2.5096 H   0  0  0  0  0  0  0  0  0  0  0  0
   -2.1718    1.8303    2.5358 H   0  0  0  0  0  0  0  0  0  0  0  0
  1  2  1  0
  1 18  1  0
  1 19  1  0
  1 20  1  0
  2  6  1  0
  2  3  2  0
  3  4  1  0
  4  5  2  0
  5 15  1  0
  5  6  1  0
  6  7  1  0
  7 12  2  0
  7  8  1  0
  8  9  2  0
  9 10  1  0
  9 21  1  0
 10 11  2  0
 10 22  1  0
 11 12  1  0
 11 23  1  0
 12 13  1  0
 13 14  1  0
 13 24  1  0
 13 25  1  0
 14 15  1  0
 14 26  1  0
 15 17  1  0
 15 16  1  0
 16 17  1  0
 16 27  1  0
 16 28  1  0
 17 29  1  0
 17 30  1  0
M  END
>  <i_m_ct_stereo_status>  (157) 
1

>  <s_m_source_file>  (157) 
/var/tmp/pbs.5076255.sched01/tmp5gbx45fw/500pp51iot.sdf

>  <i_m_source_file_index>  (157) 
14

>  <i_lp_mmshare_version>  (157) 
48012

>  <i_f3d_flags>  (157) 
0

>  <s_epik_input>  (157) 
W0NIMl0xW0NIMl1DMTJjM24oYyhbQ0gzXSlubjMpYzRjKFtDSDJdW05IXTIpW2NIXVtjSF1bY0hdbjQ=

>  <s_epik_cmdline>  (157) 
J2VwaWtfcHl0aG9uJywgJy1waHQnLCAnMi4wJywgJy1waCcsICc3LjAnLCAnLXRuJywgJzgnLCAnLW1hJywgJzIwMCcsICctaW1hZScsICc8aW5maWxlLm1hZT4nLCAnLW9tYWUnLCAnPG91dGZpbGUubWFlPic=

>  <r_lp_tautomer_probability>  (157) 
1

>  <r_epik_Ionization_Penalty>  (157) 
0.189497

>  <r_epik_Ionization_Penalty_Charging>  (157) 
0

>  <r_epik_Ionization_Penalty_Neutral>  (157) 
0.189497

>  <r_epik_State_Penalty>  (157) 
0.179055

>  <r_epik_Charging_Adjusted_Penalty>  (157) 
0.179055

>  <i_epik_Tot_Q>  (157) 
0

>  <i_epik_Tot_abs_Q>  (157) 
0

>  <s_lp_Force_Field>  (157) 
OPLS3e

>  <r_lp_Energy>  (157) 
31.7969

>  <b_lp_Chiralities_Consistent>  (157) 
1

>  <s_lp_Variant>  (157) 
37:0-1

>  <s_i_glide_gridfile>  (157) 
pfpi4k_grid

>  <i_i_glide_lignum>  (157) 
14

>  <i_i_glide_rotatable_bonds>  (157) 
0

>  <r_i_docking_score>  (157) 
-3.6677

>  <r_i_glide_ligand_efficiency>  (157) 
-0.215747

>  <r_i_glide_ligand_efficiency_sa>  (157) 
-0.554747

>  <r_i_glide_ligand_efficiency_ln>  (157) 
-0.956821

>  <r_i_glide_gscore>  (157) 
-3.6677

>  <r_i_glide_lipo>  (157) 
-0.130263

>  <r_i_glide_hbond>  (157) 
0

>  <r_i_glide_metal>  (157) 
-0

>  <r_i_glide_rewards>  (157) 
-1.85956

>  <r_i_glide_evdw>  (157) 
-16.8968

>  <r_i_glide_ecoul>  (157) 
-4.07133

>  <r_i_glide_erotb>  (157) 
0

>  <r_i_glide_esite>  (157) 
-0.222342

>  <r_i_glide_emodel>  (157) 
-25.9325

>  <r_i_glide_energy>  (157) 
-20.9681

>  <r_i_glide_einternal>  (157) 
0

>  <r_i_glide_intrahb_reward>  (157) 
-0

>  <i_i_glide_confnum>  (157) 
1

>  <i_i_glide_posenum>  (157) 
1

>  <r_i_glide_eff_state_penalty>  (157) 
0

>  <ligand_id>  (157) 
37

>  <original_smiles>  (157) 
Cc1nnc2n1-c1ncccc1CNC21CC1

>  <smiles>  (157) 
[H]c1nc2c(c([H])c1[H])C([H])([H])N([H])C1(c3nnc(C([H])([H])[H])n3-2)C([H])([H])C1([H])[H]

$$$$
37:0:2
     RDKit          3D

 30 33  0  0  1  0  0  0  0  0999 V2000
    2.3396    5.5502    3.2071 C   0  0  0  0  0  0  0  0  0  0  0  0
    1.1343    5.1832    4.0058 C   0  0  0  0  0  0  0  0  0  0  0  0
    0.4938    6.0522    4.7956 N   0  0  0  0  0  0  0  0  0  0  0  0
   -0.5685    5.3523    5.3483 N   0  0  0  0  0  0  0  0  0  0  0  0
   -0.4706    4.1037    4.8798 C   0  0  0  0  0  0  0  0  0  0  0  0
    0.5592    3.9673    4.0374 N   0  0  0  0  0  0  0  0  0  0  0  0
    0.9346    2.7859    3.3516 C   0  0  0  0  0  0  0  0  0  0  0  0
    2.2468    2.4794    3.2625 N   0  0  0  0  0  0  0  0  0  0  0  0
    2.6110    1.3662    2.6003 C   0  0  0  0  0  0  0  0  0  0  0  0
    1.6862    0.4909    2.0085 C   0  0  0  0  0  0  0  0  0  0  0  0
    0.3190    0.7883    2.1111 C   0  0  0  0  0  0  0  0  0  0  0  0
   -0.0737    1.9404    2.8157 C   0  0  0  0  0  0  0  0  0  0  0  0
   -1.5423    2.3166    2.8696 C   0  0  0  0  0  0  0  0  0  0  0  0
   -2.1525    2.3769    4.1967 N   0  0  0  0  0  0  0  0  0  0  0  0
   -1.3652    2.9646    5.2745 C   0  0  0  0  0  0  0  0  0  0  0  0
   -2.0157    2.9673    6.6451 C   0  0  0  0  0  0  0  0  0  0  0  0
   -0.8823    2.0221    6.3563 C   0  0  0  0  0  0  0  0  0  0  0  0
    2.5245    6.6208    3.2958 H   0  0  0  0  0  0  0  0  0  0  0  0
    2.1815    5.3082    2.1539 H   0  0  0  0  0  0  0  0  0  0  0  0
    3.2203    5.0167    3.5741 H   0  0  0  0  0  0  0  0  0  0  0  0
    3.6684    1.1694    2.5353 H   0  0  0  0  0  0  0  0  0  0  0  0
    2.0208   -0.3656    1.4429 H   0  0  0  0  0  0  0  0  0  0  0  0
   -0.4092    0.1559    1.6300 H   0  0  0  0  0  0  0  0  0  0  0  0
   -1.6839    3.2643    2.3498 H   0  0  0  0  0  0  0  0  0  0  0  0
   -2.1136    1.5751    2.3102 H   0  0  0  0  0  0  0  0  0  0  0  0
   -3.0661    2.8047    4.1542 H   0  0  0  0  0  0  0  0  0  0  0  0
   -1.8163    3.8039    7.3153 H   0  0  0  0  0  0  0  0  0  0  0  0
   -3.0068    2.5286    6.7487 H   0  0  0  0  0  0  0  0  0  0  0  0
   -1.1187    0.9666    6.2491 H   0  0  0  0  0  0  0  0  0  0  0  0
    0.0843    2.2382    6.8106 H   0  0  0  0  0  0  0  0  0  0  0  0
  1  2  1  0
  1 18  1  0
  1 19  1  0
  1 20  1  0
  2  6  1  0
  2  3  2  0
  3  4  1  0
  4  5  2  0
  5 15  1  0
  5  6  1  0
  6  7  1  0
  7 12  2  0
  7  8  1  0
  8  9  2  0
  9 10  1  0
  9 21  1  0
 10 11  2  0
 10 22  1  0
 11 12  1  0
 11 23  1  0
 12 13  1  0
 13 14  1  0
 13 24  1  0
 13 25  1  0
 14 15  1  0
 14 26  1  0
 15 17  1  0
 15 16  1  0
 16 17  1  0
 16 27  1  0
 16 28  1  0
 17 29  1  0
 17 30  1  0
M  END
>  <i_m_ct_stereo_status>  (158) 
1

>  <s_m_source_file>  (158) 
/var/tmp/pbs.5076255.sched01/tmp5gbx45fw/500pp51iot.sdf

>  <i_m_source_file_index>  (158) 
14

>  <i_lp_mmshare_version>  (158) 
48012

>  <i_f3d_flags>  (158) 
0

>  <s_epik_input>  (158) 
W0NIMl0xW0NIMl1DMTJjM24oYyhbQ0gzXSlubjMpYzRjKFtDSDJdW05IXTIpW2NIXVtjSF1bY0hdbjQ=

>  <s_epik_cmdline>  (158) 
J2VwaWtfcHl0aG9uJywgJy1waHQnLCAnMi4wJywgJy1waCcsICc3LjAnLCAnLXRuJywgJzgnLCAnLW1hJywgJzIwMCcsICctaW1hZScsICc8aW5maWxlLm1hZT4nLCAnLW9tYWUnLCAnPG91dGZpbGUubWFlPic=

>  <r_lp_tautomer_probability>  (158) 
1

>  <r_epik_Ionization_Penalty>  (158) 
0.189497

>  <r_epik_Ionization_Penalty_Charging>  (158) 
0

>  <r_epik_Ionization_Penalty_Neutral>  (158) 
0.189497

>  <r_epik_State_Penalty>  (158) 
0.179055

>  <r_epik_Charging_Adjusted_Penalty>  (158) 
0.179055

>  <i_epik_Tot_Q>  (158) 
0

>  <i_epik_Tot_abs_Q>  (158) 
0

>  <s_lp_Force_Field>  (158) 
OPLS3e

>  <r_lp_Energy>  (158) 
31.7969

>  <b_lp_Chiralities_Consistent>  (158) 
1

>  <s_lp_Variant>  (158) 
37:0-1

>  <s_i_glide_gridfile>  (158) 
pfpi4k_grid

>  <i_i_glide_lignum>  (158) 
14

>  <i_i_glide_rotatable_bonds>  (158) 
0

>  <r_i_docking_score>  (158) 
-3.57012

>  <r_i_glide_ligand_efficiency>  (158) 
-0.210007

>  <r_i_glide_ligand_efficiency_sa>  (158) 
-0.539987

>  <r_i_glide_ligand_efficiency_ln>  (158) 
-0.931365

>  <r_i_glide_gscore>  (158) 
-3.57012

>  <r_i_glide_lipo>  (158) 
-0.082211

>  <r_i_glide_hbond>  (158) 
0

>  <r_i_glide_metal>  (158) 
-0

>  <r_i_glide_rewards>  (158) 
-1.85956

>  <r_i_glide_evdw>  (158) 
-18.4873

>  <r_i_glide_ecoul>  (158) 
-2.59011

>  <r_i_glide_erotb>  (158) 
0

>  <r_i_glide_esite>  (158) 
-0.315473

>  <r_i_glide_emodel>  (158) 
-26.0753

>  <r_i_glide_energy>  (158) 
-21.0774

>  <r_i_glide_einternal>  (158) 
0

>  <r_i_glide_intrahb_reward>  (158) 
-0

>  <i_i_glide_confnum>  (158) 
2

>  <i_i_glide_posenum>  (158) 
39

>  <r_i_glide_eff_state_penalty>  (158) 
0

>  <ligand_id>  (158) 
37

>  <original_smiles>  (158) 
Cc1nnc2n1-c1ncccc1CNC21CC1

>  <smiles>  (158) 
[H]c1nc2c(c([H])c1[H])C([H])([H])N([H])C1(c3nnc(C([H])([H])[H])n3-2)C([H])([H])C1([H])[H]

$$$$
37:1:0
     RDKit          3D

 31 34  0  0  1  0  0  0  0  0999 V2000
    7.6806   -2.5428    0.4789 C   0  0  0  0  0  0  0  0  0  0  0  0
    6.7495   -2.6226   -0.6911 C   0  0  0  0  0  0  0  0  0  0  0  0
    7.1206   -3.0540   -1.8961 N   0  0  0  0  0  0  0  0  0  0  0  0
    5.9769   -3.0558   -2.6840 N   0  0  0  0  0  0  0  0  0  0  0  0
    5.0229   -2.5211   -1.9314 C   0  0  0  0  0  0  0  0  0  0  0  0
    5.4522   -2.2719   -0.6844 N   0  0  0  0  0  0  0  0  0  0  0  0
    4.6752   -1.7569    0.3713 C   0  0  0  0  0  0  0  0  0  0  0  0
    5.1927   -0.7894    1.1582 N   0  0  0  0  0  0  0  0  0  0  0  0
    4.4324   -0.2919    2.1516 C   0  0  0  0  0  0  0  0  0  0  0  0
    3.1243   -0.7285    2.4086 C   0  0  0  0  0  0  0  0  0  0  0  0
    2.5740   -1.7268    1.5896 C   0  0  0  0  0  0  0  0  0  0  0  0
    3.3610   -2.2596    0.5434 C   0  0  0  0  0  0  0  0  0  0  0  0
    2.8202   -3.3881   -0.3377 C   0  0  0  0  0  0  0  0  0  0  0  0
    2.6219   -3.0400   -1.7694 N   0  0  0  0  0  0  0  0  0  0  0  0
    3.6462   -2.1811   -2.4152 C   0  0  0  0  0  0  0  0  0  0  0  0
    3.2177   -0.7651   -2.7182 C   0  0  0  0  0  0  0  0  0  0  0  0
    3.3346   -1.7750   -3.8403 C   0  0  0  0  0  0  0  0  0  0  0  0
    8.6501   -2.9733    0.2159 H   0  0  0  0  0  0  0  0  0  0  0  0
    7.2753   -3.1062    1.3180 H   0  0  0  0  0  0  0  0  0  0  0  0
    7.8403   -1.5065    0.7809 H   0  0  0  0  0  0  0  0  0  0  0  0
    4.8837    0.4715    2.7641 H   0  0  0  0  0  0  0  0  0  0  0  0
    2.5560   -0.3005    3.2194 H   0  0  0  0  0  0  0  0  0  0  0  0
    1.5724   -2.0842    1.7723 H   0  0  0  0  0  0  0  0  0  0  0  0
    3.4918   -4.2452   -0.2769 H   0  0  0  0  0  0  0  0  0  0  0  0
    1.8640   -3.7333    0.0493 H   0  0  0  0  0  0  0  0  0  0  0  0
    2.5578   -3.9120   -2.2908 H   0  0  0  0  0  0  0  0  0  0  0  0
    2.2207   -0.4515   -2.4206 H   0  0  0  0  0  0  0  0  0  0  0  0
    3.9860    0.0031   -2.6445 H   0  0  0  0  0  0  0  0  0  0  0  0
    4.1683   -1.6508   -4.5295 H   0  0  0  0  0  0  0  0  0  0  0  0
    2.4037   -2.1015   -4.2966 H   0  0  0  0  0  0  0  0  0  0  0  0
    1.7472   -2.5301   -1.8447 H   0  0  0  0  0  0  0  0  0  0  0  0
  1  2  1  0
  1 18  1  0
  1 19  1  0
  1 20  1  0
  2  6  1  0
  2  3  2  0
  3  4  1  0
  4  5  2  0
  5 15  1  0
  5  6  1  0
  6  7  1  0
  7 12  2  0
  7  8  1  0
  8  9  2  0
  9 10  1  0
  9 21  1  0
 10 11  2  0
 10 22  1  0
 11 12  1  0
 11 23  1  0
 12 13  1  0
 13 14  1  0
 13 24  1  0
 13 25  1  0
 14 15  1  0
 14 26  1  0
 14 31  1  0
 15 17  1  0
 15 16  1  0
 16 17  1  0
 16 27  1  0
 16 28  1  0
 17 29  1  0
 17 30  1  0
M  CHG  1  14   1
M  END
>  <i_m_ct_stereo_status>  (159) 
1

>  <s_m_source_file>  (159) 
/var/tmp/pbs.5076255.sched01/tmp5gbx45fw/500pp51iot.sdf

>  <i_m_source_file_index>  (159) 
15

>  <i_lp_mmshare_version>  (159) 
48012

>  <i_f3d_flags>  (159) 
0

>  <s_epik_input>  (159) 
W0NIMl0xW0NIMl1DMTJjM24oYyhbQ0gzXSlubjMpYzRjKFtDSDJdW05IXTIpW2NIXVtjSF1bY0hdbjQ=

>  <s_epik_cmdline>  (159) 
J2VwaWtfcHl0aG9uJywgJy1waHQnLCAnMi4wJywgJy1waCcsICc3LjAnLCAnLXRuJywgJzgnLCAnLW1hJywgJzIwMCcsICctaW1hZScsICc8aW5maWxlLm1hZT4nLCAnLW9tYWUnLCAnPG91dGZpbGUubWFlPic=

>  <r_lp_tautomer_probability>  (159) 
1

>  <r_epik_Ionization_Penalty>  (159) 
0.767831

>  <r_epik_Ionization_Penalty_Charging>  (159) 
0.767831

>  <r_epik_Ionization_Penalty_Neutral>  (159) 
4.76365e-08

>  <r_epik_State_Penalty>  (159) 
0.796264

>  <r_epik_Charging_Adjusted_Penalty>  (159) 
1.5641

>  <i_epik_Tot_Q>  (159) 
1

>  <i_epik_Tot_abs_Q>  (159) 
1

>  <s_lp_Force_Field>  (159) 
OPLS3e

>  <r_lp_Energy>  (159) 
32.0701

>  <b_lp_Chiralities_Consistent>  (159) 
1

>  <s_lp_Variant>  (159) 
37:0-2

>  <s_i_glide_gridfile>  (159) 
pfpi4k_grid

>  <i_i_glide_lignum>  (159) 
15

>  <i_i_glide_rotatable_bonds>  (159) 
0

>  <r_i_docking_score>  (159) 
-4.53253

>  <r_i_glide_ligand_efficiency>  (159) 
-0.26662

>  <r_i_glide_ligand_efficiency_sa>  (159) 
-0.685554

>  <r_i_glide_ligand_efficiency_ln>  (159) 
-1.18244

>  <r_i_glide_gscore>  (159) 
-4.53253

>  <r_i_glide_lipo>  (159) 
-0.403548

>  <r_i_glide_hbond>  (159) 
-0.13838

>  <r_i_glide_metal>  (159) 
-0

>  <r_i_glide_rewards>  (159) 
-1.88147

>  <r_i_glide_evdw>  (159) 
-22.5726

>  <r_i_glide_ecoul>  (159) 
-6.14675

>  <r_i_glide_erotb>  (159) 
0

>  <r_i_glide_esite>  (159) 
-0.058493

>  <r_i_glide_emodel>  (159) 
-38.4751

>  <r_i_glide_energy>  (159) 
-28.7193

>  <r_i_glide_einternal>  (159) 
0

>  <r_i_glide_intrahb_reward>  (159) 
-0

>  <i_i_glide_confnum>  (159) 
2

>  <i_i_glide_posenum>  (159) 
3

>  <r_i_glide_eff_state_penalty>  (159) 
0

>  <ligand_id>  (159) 
37

>  <original_smiles>  (159) 
Cc1nnc2n1-c1ncccc1CNC21CC1

>  <smiles>  (159) 
[H]c1nc2c(c([H])c1[H])C([H])([H])[N+]([H])([H])C1(c3nnc(C([H])([H])[H])n3-2)C([H])([H])C1([H])[H]

$$$$
37:1:1
     RDKit          3D

 31 34  0  0  1  0  0  0  0  0999 V2000
    1.3896    4.8251    6.9564 C   0  0  0  0  0  0  0  0  0  0  0  0
    0.5446    4.3565    5.8159 C   0  0  0  0  0  0  0  0  0  0  0  0
   -0.5744    4.9754    5.4221 N   0  0  0  0  0  0  0  0  0  0  0  0
   -1.0555    4.2619    4.3291 N   0  0  0  0  0  0  0  0  0  0  0  0
   -0.2038    3.2481    4.1587 C   0  0  0  0  0  0  0  0  0  0  0  0
    0.7994    3.2849    5.0449 N   0  0  0  0  0  0  0  0  0  0  0  0
    1.8627    2.3621    5.1255 C   0  0  0  0  0  0  0  0  0  0  0  0
    2.2376    1.8941    6.3337 N   0  0  0  0  0  0  0  0  0  0  0  0
    3.2414    1.0009    6.4014 C   0  0  0  0  0  0  0  0  0  0  0  0
    3.9200    0.5199    5.2684 C   0  0  0  0  0  0  0  0  0  0  0  0
    3.5230    0.9857    4.0017 C   0  0  0  0  0  0  0  0  0  0  0  0
    2.4681    1.9202    3.9195 C   0  0  0  0  0  0  0  0  0  0  0  0
    2.0511    2.4976    2.5658 C   0  0  0  0  0  0  0  0  0  0  0  0
    0.6794    2.1427    2.1280 N   0  0  0  0  0  0  0  0  0  0  0  0
   -0.3849    2.1402    3.1610 C   0  0  0  0  0  0  0  0  0  0  0  0
   -0.8936    0.7727    3.5427 C   0  0  0  0  0  0  0  0  0  0  0  0
   -1.7345    1.6769    2.6641 C   0  0  0  0  0  0  0  0  0  0  0  0
    0.9996    5.7702    7.3406 H   0  0  0  0  0  0  0  0  0  0  0  0
    2.4171    4.9894    6.6274 H   0  0  0  0  0  0  0  0  0  0  0  0
    1.3805    4.1002    7.7735 H   0  0  0  0  0  0  0  0  0  0  0  0
    3.5151    0.6617    7.3886 H   0  0  0  0  0  0  0  0  0  0  0  0
    4.7275   -0.1839    5.3743 H   0  0  0  0  0  0  0  0  0  0  0  0
    4.0467    0.6505    3.1156 H   0  0  0  0  0  0  0  0  0  0  0  0
    2.1480    3.5853    2.5915 H   0  0  0  0  0  0  0  0  0  0  0  0
    2.7431    2.1448    1.8034 H   0  0  0  0  0  0  0  0  0  0  0  0
    0.4218    2.8589    1.4356 H   0  0  0  0  0  0  0  0  0  0  0  0
   -0.4314   -0.0979    3.0791 H   0  0  0  0  0  0  0  0  0  0  0  0
   -1.1979    0.6409    4.5771 H   0  0  0  0  0  0  0  0  0  0  0  0
   -2.6132    2.1441    3.1047 H   0  0  0  0  0  0  0  0  0  0  0  0
   -1.8556    1.3452    1.6329 H   0  0  0  0  0  0  0  0  0  0  0  0
    0.6974    1.2464    1.6680 H   0  0  0  0  0  0  0  0  0  0  0  0
  1  2  1  0
  1 18  1  0
  1 19  1  0
  1 20  1  0
  2  6  1  0
  2  3  2  0
  3  4  1  0
  4  5  2  0
  5 15  1  0
  5  6  1  0
  6  7  1  0
  7 12  2  0
  7  8  1  0
  8  9  2  0
  9 10  1  0
  9 21  1  0
 10 11  2  0
 10 22  1  0
 11 12  1  0
 11 23  1  0
 12 13  1  0
 13 14  1  0
 13 24  1  0
 13 25  1  0
 14 15  1  0
 14 26  1  0
 14 31  1  0
 15 17  1  0
 15 16  1  0
 16 17  1  0
 16 27  1  0
 16 28  1  0
 17 29  1  0
 17 30  1  0
M  CHG  1  14   1
M  END
>  <i_m_ct_stereo_status>  (160) 
1

>  <s_m_source_file>  (160) 
/var/tmp/pbs.5076255.sched01/tmp5gbx45fw/500pp51iot.sdf

>  <i_m_source_file_index>  (160) 
15

>  <i_lp_mmshare_version>  (160) 
48012

>  <i_f3d_flags>  (160) 
0

>  <s_epik_input>  (160) 
W0NIMl0xW0NIMl1DMTJjM24oYyhbQ0gzXSlubjMpYzRjKFtDSDJdW05IXTIpW2NIXVtjSF1bY0hdbjQ=

>  <s_epik_cmdline>  (160) 
J2VwaWtfcHl0aG9uJywgJy1waHQnLCAnMi4wJywgJy1waCcsICc3LjAnLCAnLXRuJywgJzgnLCAnLW1hJywgJzIwMCcsICctaW1hZScsICc8aW5maWxlLm1hZT4nLCAnLW9tYWUnLCAnPG91dGZpbGUubWFlPic=

>  <r_lp_tautomer_probability>  (160) 
1

>  <r_epik_Ionization_Penalty>  (160) 
0.767831

>  <r_epik_Ionization_Penalty_Charging>  (160) 
0.767831

>  <r_epik_Ionization_Penalty_Neutral>  (160) 
4.76365e-08

>  <r_epik_State_Penalty>  (160) 
0.796264

>  <r_epik_Charging_Adjusted_Penalty>  (160) 
1.5641

>  <i_epik_Tot_Q>  (160) 
1

>  <i_epik_Tot_abs_Q>  (160) 
1

>  <s_lp_Force_Field>  (160) 
OPLS3e

>  <r_lp_Energy>  (160) 
32.0701

>  <b_lp_Chiralities_Consistent>  (160) 
1

>  <s_lp_Variant>  (160) 
37:0-2

>  <s_i_glide_gridfile>  (160) 
pfpi4k_grid

>  <i_i_glide_lignum>  (160) 
15

>  <i_i_glide_rotatable_bonds>  (160) 
0

>  <r_i_docking_score>  (160) 
-4.29154

>  <r_i_glide_ligand_efficiency>  (160) 
-0.252444

>  <r_i_glide_ligand_efficiency_sa>  (160) 
-0.649104

>  <r_i_glide_ligand_efficiency_ln>  (160) 
-1.11957

>  <r_i_glide_gscore>  (160) 
-4.29154

>  <r_i_glide_lipo>  (160) 
-0.00753264

>  <r_i_glide_hbond>  (160) 
-0.2

>  <r_i_glide_metal>  (160) 
-0

>  <r_i_glide_rewards>  (160) 
-1.85268

>  <r_i_glide_evdw>  (160) 
-11.8552

>  <r_i_glide_ecoul>  (160) 
-9.16749

>  <r_i_glide_erotb>  (160) 
0

>  <r_i_glide_esite>  (160) 
-0.263443

>  <r_i_glide_emodel>  (160) 
-30.2078

>  <r_i_glide_energy>  (160) 
-21.0227

>  <r_i_glide_einternal>  (160) 
0

>  <r_i_glide_intrahb_reward>  (160) 
-0

>  <i_i_glide_confnum>  (160) 
2

>  <i_i_glide_posenum>  (160) 
15

>  <r_i_glide_eff_state_penalty>  (160) 
0

>  <ligand_id>  (160) 
37

>  <original_smiles>  (160) 
Cc1nnc2n1-c1ncccc1CNC21CC1

>  <smiles>  (160) 
[H]c1nc2c(c([H])c1[H])C([H])([H])[N+]([H])([H])C1(c3nnc(C([H])([H])[H])n3-2)C([H])([H])C1([H])[H]

$$$$
37:1:2
     RDKit          3D

 31 34  0  0  1  0  0  0  0  0999 V2000
    5.4532   -1.3903    2.7797 C   0  0  0  0  0  0  0  0  0  0  0  0
    5.4224   -1.4956    1.2891 C   0  0  0  0  0  0  0  0  0  0  0  0
    6.1036   -0.6805    0.4796 N   0  0  0  0  0  0  0  0  0  0  0  0
    5.8205   -1.0987   -0.8150 N   0  0  0  0  0  0  0  0  0  0  0  0
    4.9824   -2.1216   -0.6960 C   0  0  0  0  0  0  0  0  0  0  0  0
    4.7343   -2.4119    0.5891 N   0  0  0  0  0  0  0  0  0  0  0  0
    3.9037   -3.4553    1.0522 C   0  0  0  0  0  0  0  0  0  0  0  0
    3.0322   -3.2030    2.0470 N   0  0  0  0  0  0  0  0  0  0  0  0
    2.2315   -4.1977    2.4676 C   0  0  0  0  0  0  0  0  0  0  0  0
    2.2547   -5.4881    1.9122 C   0  0  0  0  0  0  0  0  0  0  0  0
    3.1570   -5.7584    0.8730 C   0  0  0  0  0  0  0  0  0  0  0  0
    3.9970   -4.7204    0.4226 C   0  0  0  0  0  0  0  0  0  0  0  0
    5.0382   -4.9886   -0.6578 C   0  0  0  0  0  0  0  0  0  0  0  0
    4.8343   -4.2471   -1.9289 N   0  0  0  0  0  0  0  0  0  0  0  0
    4.3663   -2.8488   -1.8532 C   0  0  0  0  0  0  0  0  0  0  0  0
    2.9475   -2.6316   -2.2922 C   0  0  0  0  0  0  0  0  0  0  0  0
    4.0856   -2.2008   -3.1963 C   0  0  0  0  0  0  0  0  0  0  0  0
    6.1582   -0.6098    3.0719 H   0  0  0  0  0  0  0  0  0  0  0  0
    5.7784   -2.3341    3.2170 H   0  0  0  0  0  0  0  0  0  0  0  0
    4.4686   -1.1246    3.1670 H   0  0  0  0  0  0  0  0  0  0  0  0
    1.5504   -3.9492    3.2637 H   0  0  0  0  0  0  0  0  0  0  0  0
    1.6077   -6.2596    2.2975 H   0  0  0  0  0  0  0  0  0  0  0  0
    3.2218   -6.7554    0.4571 H   0  0  0  0  0  0  0  0  0  0  0  0
    6.0338   -4.7610   -0.2757 H   0  0  0  0  0  0  0  0  0  0  0  0
    5.0342   -6.0508   -0.8951 H   0  0  0  0  0  0  0  0  0  0  0  0
    5.7054   -4.2656   -2.4459 H   0  0  0  0  0  0  0  0  0  0  0  0
    2.3468   -3.4922   -2.5827 H   0  0  0  0  0  0  0  0  0  0  0  0
    2.4293   -1.8563   -1.7536 H   0  0  0  0  0  0  0  0  0  0  0  0
    4.2666   -1.1314   -3.2934 H   0  0  0  0  0  0  0  0  0  0  0  0
    4.2022   -2.7755   -4.1114 H   0  0  0  0  0  0  0  0  0  0  0  0
    4.1311   -4.7709   -2.4452 H   0  0  0  0  0  0  0  0  0  0  0  0
  1  2  1  0
  1 18  1  0
  1 19  1  0
  1 20  1  0
  2  6  1  0
  2  3  2  0
  3  4  1  0
  4  5  2  0
  5 15  1  0
  5  6  1  0
  6  7  1  0
  7 12  2  0
  7  8  1  0
  8  9  2  0
  9 10  1  0
  9 21  1  0
 10 11  2  0
 10 22  1  0
 11 12  1  0
 11 23  1  0
 12 13  1  0
 13 14  1  0
 13 24  1  0
 13 25  1  0
 14 15  1  0
 14 26  1  0
 14 31  1  0
 15 17  1  0
 15 16  1  0
 16 17  1  0
 16 27  1  0
 16 28  1  0
 17 29  1  0
 17 30  1  0
M  CHG  1  14   1
M  END
>  <i_m_ct_stereo_status>  (161) 
1

>  <s_m_source_file>  (161) 
/var/tmp/pbs.5076255.sched01/tmp5gbx45fw/500pp51iot.sdf

>  <i_m_source_file_index>  (161) 
15

>  <i_lp_mmshare_version>  (161) 
48012

>  <i_f3d_flags>  (161) 
0

>  <s_epik_input>  (161) 
W0NIMl0xW0NIMl1DMTJjM24oYyhbQ0gzXSlubjMpYzRjKFtDSDJdW05IXTIpW2NIXVtjSF1bY0hdbjQ=

>  <s_epik_cmdline>  (161) 
J2VwaWtfcHl0aG9uJywgJy1waHQnLCAnMi4wJywgJy1waCcsICc3LjAnLCAnLXRuJywgJzgnLCAnLW1hJywgJzIwMCcsICctaW1hZScsICc8aW5maWxlLm1hZT4nLCAnLW9tYWUnLCAnPG91dGZpbGUubWFlPic=

>  <r_lp_tautomer_probability>  (161) 
1

>  <r_epik_Ionization_Penalty>  (161) 
0.767831

>  <r_epik_Ionization_Penalty_Charging>  (161) 
0.767831

>  <r_epik_Ionization_Penalty_Neutral>  (161) 
4.76365e-08

>  <r_epik_State_Penalty>  (161) 
0.796264

>  <r_epik_Charging_Adjusted_Penalty>  (161) 
1.5641

>  <i_epik_Tot_Q>  (161) 
1

>  <i_epik_Tot_abs_Q>  (161) 
1

>  <s_lp_Force_Field>  (161) 
OPLS3e

>  <r_lp_Energy>  (161) 
32.0701

>  <b_lp_Chiralities_Consistent>  (161) 
1

>  <s_lp_Variant>  (161) 
37:0-2

>  <s_i_glide_gridfile>  (161) 
pfpi4k_grid

>  <i_i_glide_lignum>  (161) 
15

>  <i_i_glide_rotatable_bonds>  (161) 
0

>  <r_i_docking_score>  (161) 
-4.22774

>  <r_i_glide_ligand_efficiency>  (161) 
-0.248691

>  <r_i_glide_ligand_efficiency_sa>  (161) 
-0.639454

>  <r_i_glide_ligand_efficiency_ln>  (161) 
-1.10292

>  <r_i_glide_gscore>  (161) 
-4.22774

>  <r_i_glide_lipo>  (161) 
-0.27284

>  <r_i_glide_hbond>  (161) 
0

>  <r_i_glide_metal>  (161) 
-0

>  <r_i_glide_rewards>  (161) 
-2.03346

>  <r_i_glide_evdw>  (161) 
-16.4996

>  <r_i_glide_ecoul>  (161) 
-6.46415

>  <r_i_glide_erotb>  (161) 
0

>  <r_i_glide_esite>  (161) 
-0.126839

>  <r_i_glide_emodel>  (161) 
-32.0382

>  <r_i_glide_energy>  (161) 
-22.9637

>  <r_i_glide_einternal>  (161) 
0

>  <r_i_glide_intrahb_reward>  (161) 
-0

>  <i_i_glide_confnum>  (161) 
1

>  <i_i_glide_posenum>  (161) 
18

>  <r_i_glide_eff_state_penalty>  (161) 
0

>  <ligand_id>  (161) 
37

>  <original_smiles>  (161) 
Cc1nnc2n1-c1ncccc1CNC21CC1

>  <smiles>  (161) 
[H]c1nc2c(c([H])c1[H])C([H])([H])[N+]([H])([H])C1(c3nnc(C([H])([H])[H])n3-2)C([H])([H])C1([H])[H]

$$$$
38:0:0
     RDKit          3D

 43 43  0  0  1  0  0  0  0  0999 V2000
    4.2814   -8.1621    0.8829 C   0  0  0  0  0  0  0  0  0  0  0  0
    4.2516   -6.7263    1.4380 C   0  0  0  0  0  0  0  0  0  0  0  0
    3.2979   -5.8119    0.6491 C   0  0  0  0  0  0  0  0  0  0  0  0
    3.2522   -4.3901    1.1503 C   0  0  0  0  0  0  0  0  0  0  0  0
    2.6135   -4.0713    2.2771 N   0  0  0  0  0  0  0  0  0  0  0  0
    2.7480   -2.7094    2.4174 N   0  0  0  0  0  0  0  0  0  0  0  0
    3.4530   -2.3146    1.3564 C   0  0  0  0  0  0  0  0  0  0  0  0
    3.9528   -0.5609    1.0588 S   0  0  0  0  0  0  0  0  0  0  0  0
    2.4373    0.2511    1.7624 C   0  0  0  0  0  0  0  0  0  0  0  0
    5.1062   -0.3041    2.0328 O   0  0  0  0  0  0  0  0  0  0  0  0
    3.8027   -3.3223    0.5125 N   0  0  0  0  0  0  0  0  0  0  0  0
    4.5569   -3.2677   -0.7521 C   0  0  2  0  0  0  0  0  0  0  0  0
    6.0301   -2.8441   -0.5391 C   0  0  0  0  0  0  0  0  0  0  0  0
    6.7665   -3.6518    0.5406 C   0  0  0  0  0  0  0  0  0  0  0  0
    3.7801   -2.4540   -1.8207 C   0  0  0  0  0  0  0  0  0  0  0  0
    4.3730   -2.4776   -3.2457 C   0  0  0  0  0  0  0  0  0  0  0  0
    3.6755   -1.4321   -4.1282 C   0  0  0  0  0  0  0  0  0  0  0  0
    4.3157   -3.8722   -3.8928 C   0  0  0  0  0  0  0  0  0  0  0  0
    4.9648   -8.7904    1.4574 H   0  0  0  0  0  0  0  0  0  0  0  0
    4.6120   -8.1878   -0.1580 H   0  0  0  0  0  0  0  0  0  0  0  0
    3.2954   -8.6292    0.9297 H   0  0  0  0  0  0  0  0  0  0  0  0
    3.9592   -6.7514    2.4900 H   0  0  0  0  0  0  0  0  0  0  0  0
    5.2637   -6.3162    1.4104 H   0  0  0  0  0  0  0  0  0  0  0  0
    3.5757   -5.8496   -0.3966 H   0  0  0  0  0  0  0  0  0  0  0  0
    2.2802   -6.2017    0.7017 H   0  0  0  0  0  0  0  0  0  0  0  0
    1.5323   -0.1225    1.2794 H   0  0  0  0  0  0  0  0  0  0  0  0
    2.4888    1.3284    1.5967 H   0  0  0  0  0  0  0  0  0  0  0  0
    2.3703    0.0841    2.8378 H   0  0  0  0  0  0  0  0  0  0  0  0
    4.6256   -4.2804   -1.1455 H   0  0  0  0  0  0  0  0  0  0  0  0
    6.5742   -2.9852   -1.4707 H   0  0  0  0  0  0  0  0  0  0  0  0
    6.0984   -1.7839   -0.3014 H   0  0  0  0  0  0  0  0  0  0  0  0
    7.8159   -3.3632    0.5845 H   0  0  0  0  0  0  0  0  0  0  0  0
    6.7335   -4.7222    0.3280 H   0  0  0  0  0  0  0  0  0  0  0  0
    6.3433   -3.4947    1.5358 H   0  0  0  0  0  0  0  0  0  0  0  0
    2.7561   -2.8261   -1.8665 H   0  0  0  0  0  0  0  0  0  0  0  0
    3.6910   -1.4148   -1.5116 H   0  0  0  0  0  0  0  0  0  0  0  0
    5.4146   -2.1794   -3.1873 H   0  0  0  0  0  0  0  0  0  0  0  0
    2.6140   -1.6579   -4.2473 H   0  0  0  0  0  0  0  0  0  0  0  0
    4.1242   -1.3813   -5.1214 H   0  0  0  0  0  0  0  0  0  0  0  0
    3.7547   -0.4351   -3.6902 H   0  0  0  0  0  0  0  0  0  0  0  0
    3.2918   -4.2474   -3.9348 H   0  0  0  0  0  0  0  0  0  0  0  0
    4.9124   -4.5974   -3.3399 H   0  0  0  0  0  0  0  0  0  0  0  0
    4.7117   -3.8675   -4.9080 H   0  0  0  0  0  0  0  0  0  0  0  0
  1  2  1  0
  1 19  1  0
  1 20  1  0
  1 21  1  0
  2  3  1  0
  2 22  1  0
  2 23  1  0
  3  4  1  0
  3 24  1  0
  3 25  1  0
  4 11  1  0
  4  5  2  0
  5  6  1  0
  6  7  2  0
  7  8  1  0
  7 11  1  0
  8  9  1  1
  8 10  2  0
  9 26  1  0
  9 27  1  0
  9 28  1  0
 11 12  1  0
 12 13  1  0
 12 15  1  0
 12 29  1  6
 13 14  1  0
 13 30  1  0
 13 31  1  0
 14 32  1  0
 14 33  1  0
 14 34  1  0
 15 16  1  0
 15 35  1  0
 15 36  1  0
 16 17  1  0
 16 18  1  0
 16 37  1  0
 17 38  1  0
 17 39  1  0
 17 40  1  0
 18 41  1  0
 18 42  1  0
 18 43  1  0
M  END
>  <i_m_ct_stereo_status>  (162) 
1

>  <s_m_source_file>  (162) 
/var/tmp/pbs.5076255.sched01/tmp5gbx45fw/500pp51iot.sdf

>  <i_m_source_file_index>  (162) 
16

>  <i_lp_mmshare_version>  (162) 
48012

>  <i_f3d_flags>  (162) 
0

>  <s_epik_input>  (162) 
W0NIM11bQ0gyXVtDSDJdYzFubmMoW1MrXShbTy1dKVtDSDNdKW4xW0NASF0oW0NIMl1bQ0gzXSlbQ0gyXVtDSF0oW0NIM10pW0NIM10=

>  <s_epik_cmdline>  (162) 
J2VwaWtfcHl0aG9uJywgJy1waHQnLCAnMi4wJywgJy1waCcsICc3LjAnLCAnLXRuJywgJzgnLCAnLW1hJywgJzIwMCcsICctaW1hZScsICc8aW5maWxlLm1hZT4nLCAnLW9tYWUnLCAnPG91dGZpbGUubWFlPic=

>  <r_lp_tautomer_probability>  (162) 
1

>  <r_epik_Ionization_Penalty>  (162) 
7.38693e-05

>  <r_epik_Ionization_Penalty_Charging>  (162) 
0

>  <r_epik_Ionization_Penalty_Neutral>  (162) 
7.38693e-05

>  <r_epik_State_Penalty>  (162) 
-0

>  <r_epik_Charging_Adjusted_Penalty>  (162) 
0

>  <i_epik_Tot_Q>  (162) 
0

>  <i_epik_Tot_abs_Q>  (162) 
2

>  <s_lp_Force_Field>  (162) 
OPLS3e

>  <r_lp_Energy>  (162) 
4.85084

>  <b_lp_Chiralities_Consistent>  (162) 
1

>  <s_lp_Variant>  (162) 
38:0-1

>  <s_i_glide_gridfile>  (162) 
pfpi4k_grid

>  <i_i_glide_lignum>  (162) 
16

>  <i_i_glide_rotatable_bonds>  (162) 
7

>  <r_i_docking_score>  (162) 
-2.78808

>  <r_i_glide_ligand_efficiency>  (162) 
-0.154893

>  <r_i_glide_ligand_efficiency_sa>  (162) 
-0.405935

>  <r_i_glide_ligand_efficiency_ln>  (162) 
-0.716661

>  <r_i_glide_gscore>  (162) 
-2.78808

>  <r_i_glide_lipo>  (162) 
-0.356324

>  <r_i_glide_hbond>  (162) 
-0.10069

>  <r_i_glide_metal>  (162) 
-0

>  <r_i_glide_rewards>  (162) 
-1.61978

>  <r_i_glide_evdw>  (162) 
-25.1069

>  <r_i_glide_ecoul>  (162) 
-1.08767

>  <r_i_glide_erotb>  (162) 
0.729074

>  <r_i_glide_esite>  (162) 
-0.0218601

>  <r_i_glide_emodel>  (162) 
-30.2027

>  <r_i_glide_energy>  (162) 
-26.1946

>  <r_i_glide_einternal>  (162) 
1.57591

>  <r_i_glide_intrahb_reward>  (162) 
-0

>  <i_i_glide_confnum>  (162) 
4

>  <i_i_glide_posenum>  (162) 
2

>  <r_i_glide_eff_state_penalty>  (162) 
0

>  <ligand_id>  (162) 
38

>  <original_smiles>  (162) 
CCCc1nnc([S+](C)[O-])n1C(CC)CC(C)C

>  <smiles>  (162) 
[H]C([H])([H])S(=O)c1nnc(C([H])([H])C([H])([H])C([H])([H])[H])n1C([H])(C([H])([H])C([H])([H])[H])C([H])([H])C([H])(C([H])([H])[H])C([H])([H])[H]

$$$$
38:0:1
     RDKit          3D

 43 43  0  0  1  0  0  0  0  0999 V2000
    3.5499   -6.9508    2.9431 C   0  0  0  0  0  0  0  0  0  0  0  0
    4.0826   -6.7302    1.5173 C   0  0  0  0  0  0  0  0  0  0  0  0
    3.2127   -5.7996    0.6497 C   0  0  0  0  0  0  0  0  0  0  0  0
    3.1399   -4.3700    1.1269 C   0  0  0  0  0  0  0  0  0  0  0  0
    2.4392   -4.0360    2.2132 N   0  0  0  0  0  0  0  0  0  0  0  0
    2.6003   -2.6819    2.3665 N   0  0  0  0  0  0  0  0  0  0  0  0
    3.3494   -2.2991    1.3313 C   0  0  0  0  0  0  0  0  0  0  0  0
    3.8530   -0.5485    1.0477 S   0  0  0  0  0  0  0  0  0  0  0  0
    2.3333    0.2528    1.7601 C   0  0  0  0  0  0  0  0  0  0  0  0
    5.0090   -0.3060    2.0229 O   0  0  0  0  0  0  0  0  0  0  0  0
    3.7204   -3.3106    0.5042 N   0  0  0  0  0  0  0  0  0  0  0  0
    4.5062   -3.2624   -0.7407 C   0  0  2  0  0  0  0  0  0  0  0  0
    5.9755   -2.8473   -0.4901 C   0  0  0  0  0  0  0  0  0  0  0  0
    6.6835   -3.6776    0.5908 C   0  0  0  0  0  0  0  0  0  0  0  0
    3.7571   -2.4425   -1.8234 C   0  0  0  0  0  0  0  0  0  0  0  0
    4.3735   -2.4804   -3.2374 C   0  0  0  0  0  0  0  0  0  0  0  0
    3.7013   -1.4344   -4.1384 C   0  0  0  0  0  0  0  0  0  0  0  0
    4.3108   -3.8748   -3.8795 C   0  0  0  0  0  0  0  0  0  0  0  0
    4.1750   -7.6577    3.4943 H   0  0  0  0  0  0  0  0  0  0  0  0
    2.5330   -7.3479    2.9149 H   0  0  0  0  0  0  0  0  0  0  0  0
    3.5375   -6.0220    3.5143 H   0  0  0  0  0  0  0  0  0  0  0  0
    5.1116   -6.3631    1.5565 H   0  0  0  0  0  0  0  0  0  0  0  0
    4.1307   -7.7021    1.0231 H   0  0  0  0  0  0  0  0  0  0  0  0
    3.6023   -5.8612   -0.3576 H   0  0  0  0  0  0  0  0  0  0  0  0
    2.1906   -6.1784    0.6036 H   0  0  0  0  0  0  0  0  0  0  0  0
    1.4262   -0.1195    1.2811 H   0  0  0  0  0  0  0  0  0  0  0  0
    2.3817    1.3313    1.5995 H   0  0  0  0  0  0  0  0  0  0  0  0
    2.2676    0.0805    2.8363 H   0  0  0  0  0  0  0  0  0  0  0  0
    4.5734   -4.2754   -1.1360 H   0  0  0  0  0  0  0  0  0  0  0  0
    6.5399   -2.9735   -1.4116 H   0  0  0  0  0  0  0  0  0  0  0  0
    6.0427   -1.7916   -0.2318 H   0  0  0  0  0  0  0  0  0  0  0  0
    7.7328   -3.3958    0.6627 H   0  0  0  0  0  0  0  0  0  0  0  0
    6.6485   -4.7448    0.3607 H   0  0  0  0  0  0  0  0  0  0  0  0
    6.2395   -3.5361    1.5798 H   0  0  0  0  0  0  0  0  0  0  0  0
    2.7305   -2.8018   -1.8853 H   0  0  0  0  0  0  0  0  0  0  0  0
    3.6766   -1.3997   -1.5246 H   0  0  0  0  0  0  0  0  0  0  0  0
    5.4181   -2.1960   -3.1649 H   0  0  0  0  0  0  0  0  0  0  0  0
    2.6392   -1.6504   -4.2730 H   0  0  0  0  0  0  0  0  0  0  0  0
    4.1663   -1.3933   -5.1212 H   0  0  0  0  0  0  0  0  0  0  0  0
    3.7833   -0.4370   -3.7024 H   0  0  0  0  0  0  0  0  0  0  0  0
    3.2844   -4.2398   -3.9382 H   0  0  0  0  0  0  0  0  0  0  0  0
    4.8921   -4.6069   -3.3196 H   0  0  0  0  0  0  0  0  0  0  0  0
    4.7231   -3.8652   -4.8879 H   0  0  0  0  0  0  0  0  0  0  0  0
  1  2  1  0
  1 19  1  0
  1 20  1  0
  1 21  1  0
  2  3  1  0
  2 22  1  0
  2 23  1  0
  3  4  1  0
  3 24  1  0
  3 25  1  0
  4 11  1  0
  4  5  2  0
  5  6  1  0
  6  7  2  0
  7  8  1  0
  7 11  1  0
  8  9  1  1
  8 10  2  0
  9 26  1  0
  9 27  1  0
  9 28  1  0
 11 12  1  0
 12 13  1  0
 12 15  1  0
 12 29  1  6
 13 14  1  0
 13 30  1  0
 13 31  1  0
 14 32  1  0
 14 33  1  0
 14 34  1  0
 15 16  1  0
 15 35  1  0
 15 36  1  0
 16 17  1  0
 16 18  1  0
 16 37  1  0
 17 38  1  0
 17 39  1  0
 17 40  1  0
 18 41  1  0
 18 42  1  0
 18 43  1  0
M  END
>  <i_m_ct_stereo_status>  (163) 
1

>  <s_m_source_file>  (163) 
/var/tmp/pbs.5076255.sched01/tmp5gbx45fw/500pp51iot.sdf

>  <i_m_source_file_index>  (163) 
16

>  <i_lp_mmshare_version>  (163) 
48012

>  <i_f3d_flags>  (163) 
0

>  <s_epik_input>  (163) 
W0NIM11bQ0gyXVtDSDJdYzFubmMoW1MrXShbTy1dKVtDSDNdKW4xW0NASF0oW0NIMl1bQ0gzXSlbQ0gyXVtDSF0oW0NIM10pW0NIM10=

>  <s_epik_cmdline>  (163) 
J2VwaWtfcHl0aG9uJywgJy1waHQnLCAnMi4wJywgJy1waCcsICc3LjAnLCAnLXRuJywgJzgnLCAnLW1hJywgJzIwMCcsICctaW1hZScsICc8aW5maWxlLm1hZT4nLCAnLW9tYWUnLCAnPG91dGZpbGUubWFlPic=

>  <r_lp_tautomer_probability>  (163) 
1

>  <r_epik_Ionization_Penalty>  (163) 
7.38693e-05

>  <r_epik_Ionization_Penalty_Charging>  (163) 
0

>  <r_epik_Ionization_Penalty_Neutral>  (163) 
7.38693e-05

>  <r_epik_State_Penalty>  (163) 
-0

>  <r_epik_Charging_Adjusted_Penalty>  (163) 
0

>  <i_epik_Tot_Q>  (163) 
0

>  <i_epik_Tot_abs_Q>  (163) 
2

>  <s_lp_Force_Field>  (163) 
OPLS3e

>  <r_lp_Energy>  (163) 
4.85084

>  <b_lp_Chiralities_Consistent>  (163) 
1

>  <s_lp_Variant>  (163) 
38:0-1

>  <s_i_glide_gridfile>  (163) 
pfpi4k_grid

>  <i_i_glide_lignum>  (163) 
16

>  <i_i_glide_rotatable_bonds>  (163) 
7

>  <r_i_docking_score>  (163) 
-2.63128

>  <r_i_glide_ligand_efficiency>  (163) 
-0.146182

>  <r_i_glide_ligand_efficiency_sa>  (163) 
-0.383106

>  <r_i_glide_ligand_efficiency_ln>  (163) 
-0.676358

>  <r_i_glide_gscore>  (163) 
-2.63128

>  <r_i_glide_lipo>  (163) 
-0.345039

>  <r_i_glide_hbond>  (163) 
-0.075949

>  <r_i_glide_metal>  (163) 
-0

>  <r_i_glide_rewards>  (163) 
-1.58326

>  <r_i_glide_evdw>  (163) 
-23.8267

>  <r_i_glide_ecoul>  (163) 
-0.887806

>  <r_i_glide_erotb>  (163) 
0.729074

>  <r_i_glide_esite>  (163) 
-0.0316042

>  <r_i_glide_emodel>  (163) 
-27.999

>  <r_i_glide_energy>  (163) 
-24.7145

>  <r_i_glide_einternal>  (163) 
2.4123

>  <r_i_glide_intrahb_reward>  (163) 
-0

>  <i_i_glide_confnum>  (163) 
4

>  <i_i_glide_posenum>  (163) 
17

>  <r_i_glide_eff_state_penalty>  (163) 
0

>  <ligand_id>  (163) 
38

>  <original_smiles>  (163) 
CCCc1nnc([S+](C)[O-])n1C(CC)CC(C)C

>  <smiles>  (163) 
[H]C([H])([H])S(=O)c1nnc(C([H])([H])C([H])([H])C([H])([H])[H])n1C([H])(C([H])([H])C([H])([H])[H])C([H])([H])C([H])(C([H])([H])[H])C([H])([H])[H]

$$$$
38:0:2
     RDKit          3D

 43 43  0  0  1  0  0  0  0  0999 V2000
   -3.2884    2.3737    7.5667 C   0  0  0  0  0  0  0  0  0  0  0  0
   -2.0154    3.0147    7.0078 C   0  0  0  0  0  0  0  0  0  0  0  0
   -1.9419    2.9577    5.4686 C   0  0  0  0  0  0  0  0  0  0  0  0
   -0.7305    3.6550    4.9144 C   0  0  0  0  0  0  0  0  0  0  0  0
   -0.7620    4.9457    4.5773 N   0  0  0  0  0  0  0  0  0  0  0  0
    0.4921    5.2432    4.1089 N   0  0  0  0  0  0  0  0  0  0  0  0
    1.1820    4.1027    4.1986 C   0  0  0  0  0  0  0  0  0  0  0  0
    2.9528    3.9230    3.6906 S   0  0  0  0  0  0  0  0  0  0  0  0
    3.1718    5.5870    2.9036 C   0  0  0  0  0  0  0  0  0  0  0  0
    3.7523    4.0057    4.9909 O   0  0  0  0  0  0  0  0  0  0  0  0
    0.4747    3.0648    4.7239 N   0  0  0  0  0  0  0  0  0  0  0  0
    0.8595    1.6651    4.9758 C   0  0  2  0  0  0  0  0  0  0  0  0
    2.0103    1.5144    5.9988 C   0  0  0  0  0  0  0  0  0  0  0  0
    1.7918    2.2993    7.3033 C   0  0  0  0  0  0  0  0  0  0  0  0
    1.0762    0.9069    3.6423 C   0  0  0  0  0  0  0  0  0  0  0  0
    1.1979   -0.6285    3.7573 C   0  0  0  0  0  0  0  0  0  0  0  0
    1.4495   -1.2465    2.3723 C   0  0  0  0  0  0  0  0  0  0  0  0
   -0.0277   -1.2868    4.4158 C   0  0  0  0  0  0  0  0  0  0  0  0
   -3.2869    2.4002    8.6586 H   0  0  0  0  0  0  0  0  0  0  0  0
   -3.3529    1.3297    7.2605 H   0  0  0  0  0  0  0  0  0  0  0  0
   -4.1828    2.8915    7.2182 H   0  0  0  0  0  0  0  0  0  0  0  0
   -1.9560    4.0496    7.3568 H   0  0  0  0  0  0  0  0  0  0  0  0
   -1.1569    2.4977    7.4435 H   0  0  0  0  0  0  0  0  0  0  0  0
   -1.9931    1.9329    5.0991 H   0  0  0  0  0  0  0  0  0  0  0  0
   -2.8097    3.4658    5.0508 H   0  0  0  0  0  0  0  0  0  0  0  0
    2.4381    5.7473    2.1125 H   0  0  0  0  0  0  0  0  0  0  0  0
    4.1729    5.6520    2.4805 H   0  0  0  0  0  0  0  0  0  0  0  0
    3.0857    6.3664    3.6644 H   0  0  0  0  0  0  0  0  0  0  0  0
    0.0043    1.1996    5.4663 H   0  0  0  0  0  0  0  0  0  0  0  0
    2.1255    0.4630    6.2565 H   0  0  0  0  0  0  0  0  0  0  0  0
    2.9603    1.8038    5.5534 H   0  0  0  0  0  0  0  0  0  0  0  0
    2.6214    2.1453    7.9912 H   0  0  0  0  0  0  0  0  0  0  0  0
    0.8922    1.9680    7.8218 H   0  0  0  0  0  0  0  0  0  0  0  0
    1.7053    3.3776    7.1364 H   0  0  0  0  0  0  0  0  0  0  0  0
    0.2520    1.1355    2.9674 H   0  0  0  0  0  0  0  0  0  0  0  0
    1.9704    1.2859    3.1477 H   0  0  0  0  0  0  0  0  0  0  0  0
    2.0693   -0.8598    4.3689 H   0  0  0  0  0  0  0  0  0  0  0  0
    0.6173   -1.0568    1.6911 H   0  0  0  0  0  0  0  0  0  0  0  0
    1.5854   -2.3302    2.4410 H   0  0  0  0  0  0  0  0  0  0  0  0
    2.3477   -0.8330    1.9103 H   0  0  0  0  0  0  0  0  0  0  0  0
   -0.9481   -1.0327    3.8914 H   0  0  0  0  0  0  0  0  0  0  0  0
   -0.1399   -0.9852    5.4562 H   0  0  0  0  0  0  0  0  0  0  0  0
    0.0672   -2.3755    4.4167 H   0  0  0  0  0  0  0  0  0  0  0  0
  1  2  1  0
  1 19  1  0
  1 20  1  0
  1 21  1  0
  2  3  1  0
  2 22  1  0
  2 23  1  0
  3  4  1  0
  3 24  1  0
  3 25  1  0
  4 11  1  0
  4  5  2  0
  5  6  1  0
  6  7  2  0
  7  8  1  0
  7 11  1  0
  8  9  1  6
  8 10  2  0
  9 26  1  0
  9 27  1  0
  9 28  1  0
 11 12  1  0
 12 13  1  0
 12 15  1  0
 12 29  1  1
 13 14  1  0
 13 30  1  0
 13 31  1  0
 14 32  1  0
 14 33  1  0
 14 34  1  0
 15 16  1  0
 15 35  1  0
 15 36  1  0
 16 17  1  0
 16 18  1  0
 16 37  1  0
 17 38  1  0
 17 39  1  0
 17 40  1  0
 18 41  1  0
 18 42  1  0
 18 43  1  0
M  END
>  <i_m_ct_stereo_status>  (164) 
1

>  <s_m_source_file>  (164) 
/var/tmp/pbs.5076255.sched01/tmp5gbx45fw/500pp51iot.sdf

>  <i_m_source_file_index>  (164) 
16

>  <i_lp_mmshare_version>  (164) 
48012

>  <i_f3d_flags>  (164) 
0

>  <s_epik_input>  (164) 
W0NIM11bQ0gyXVtDSDJdYzFubmMoW1MrXShbTy1dKVtDSDNdKW4xW0NASF0oW0NIMl1bQ0gzXSlbQ0gyXVtDSF0oW0NIM10pW0NIM10=

>  <s_epik_cmdline>  (164) 
J2VwaWtfcHl0aG9uJywgJy1waHQnLCAnMi4wJywgJy1waCcsICc3LjAnLCAnLXRuJywgJzgnLCAnLW1hJywgJzIwMCcsICctaW1hZScsICc8aW5maWxlLm1hZT4nLCAnLW9tYWUnLCAnPG91dGZpbGUubWFlPic=

>  <r_lp_tautomer_probability>  (164) 
1

>  <r_epik_Ionization_Penalty>  (164) 
7.38693e-05

>  <r_epik_Ionization_Penalty_Charging>  (164) 
0

>  <r_epik_Ionization_Penalty_Neutral>  (164) 
7.38693e-05

>  <r_epik_State_Penalty>  (164) 
-0

>  <r_epik_Charging_Adjusted_Penalty>  (164) 
0

>  <i_epik_Tot_Q>  (164) 
0

>  <i_epik_Tot_abs_Q>  (164) 
2

>  <s_lp_Force_Field>  (164) 
OPLS3e

>  <r_lp_Energy>  (164) 
4.85084

>  <b_lp_Chiralities_Consistent>  (164) 
1

>  <s_lp_Variant>  (164) 
38:0-1

>  <s_i_glide_gridfile>  (164) 
pfpi4k_grid

>  <i_i_glide_lignum>  (164) 
16

>  <i_i_glide_rotatable_bonds>  (164) 
7

>  <r_i_docking_score>  (164) 
-2.47442

>  <r_i_glide_ligand_efficiency>  (164) 
-0.137468

>  <r_i_glide_ligand_efficiency_sa>  (164) 
-0.360268

>  <r_i_glide_ligand_efficiency_ln>  (164) 
-0.636038

>  <r_i_glide_gscore>  (164) 
-2.47442

>  <r_i_glide_lipo>  (164) 
-0.215168

>  <r_i_glide_hbond>  (164) 
0

>  <r_i_glide_metal>  (164) 
-0

>  <r_i_glide_rewards>  (164) 
-1.55848

>  <r_i_glide_evdw>  (164) 
-16.2861

>  <r_i_glide_ecoul>  (164) 
-2.52561

>  <r_i_glide_erotb>  (164) 
0.729074

>  <r_i_glide_esite>  (164) 
-0.236705

>  <r_i_glide_emodel>  (164) 
-22.0432

>  <r_i_glide_energy>  (164) 
-18.8117

>  <r_i_glide_einternal>  (164) 
1.94034

>  <r_i_glide_intrahb_reward>  (164) 
-0

>  <i_i_glide_confnum>  (164) 
4

>  <i_i_glide_posenum>  (164) 
20

>  <r_i_glide_eff_state_penalty>  (164) 
0

>  <ligand_id>  (164) 
38

>  <original_smiles>  (164) 
CCCc1nnc([S+](C)[O-])n1C(CC)CC(C)C

>  <smiles>  (164) 
[H]C([H])([H])S(=O)c1nnc(C([H])([H])C([H])([H])C([H])([H])[H])n1C([H])(C([H])([H])C([H])([H])[H])C([H])([H])C([H])(C([H])([H])[H])C([H])([H])[H]

$$$$
39:0:0
     RDKit          3D

 26 28  0  0  1  0  0  0  0  0999 V2000
    5.9829   -3.9072   -0.6338 O   0  0  0  0  0  0  0  0  0  0  0  0
    5.5209   -2.5216   -0.4710 S   0  0  0  0  0  0  0  0  0  0  0  0
    6.4679   -1.4693   -0.0681 O   0  0  0  0  0  0  0  0  0  0  0  0
    4.7445   -2.0118   -1.9929 C   0  0  0  0  0  0  0  0  0  0  0  0
    4.4317   -0.6575   -2.1688 C   0  0  0  0  0  0  0  0  0  0  0  0
    3.8117   -0.2591   -3.3642 C   0  0  0  0  0  0  0  0  0  0  0  0
    3.5056   -1.2437   -4.3148 C   0  0  0  0  0  0  0  0  0  0  0  0
    3.8147   -2.5511   -4.1629 N   0  0  0  0  0  0  0  0  0  0  0  0
    4.4222   -2.9303   -3.0131 C   0  0  0  0  0  0  0  0  0  0  0  0
    4.2121   -2.5747    0.7093 C   0  0  0  0  0  0  0  0  0  0  0  0
    3.5827   -3.7531    1.1738 C   0  0  0  0  0  0  0  0  0  0  0  0
    2.6224   -3.5047    2.0374 N   0  0  0  0  0  0  0  0  0  0  0  0
    2.6111   -2.1292    2.1352 N   0  0  0  0  0  0  0  0  0  0  0  0
    1.7784   -1.3894    2.9192 C   0  0  0  0  0  0  0  0  0  0  0  0
    1.9167   -0.0206    2.8827 C   0  0  0  0  0  0  0  0  0  0  0  0
    2.9062    0.5345    2.0373 C   0  0  0  0  0  0  0  0  0  0  0  0
    3.7337   -0.1777    1.2744 N   0  0  0  0  0  0  0  0  0  0  0  0
    3.5913   -1.5161    1.3130 C   0  0  0  0  0  0  0  0  0  0  0  0
    4.6458    0.0657   -1.3962 H   0  0  0  0  0  0  0  0  0  0  0  0
    3.5366    0.7711   -3.5274 H   0  0  0  0  0  0  0  0  0  0  0  0
    3.0159   -0.9600   -5.2313 H   0  0  0  0  0  0  0  0  0  0  0  0
    4.6594   -3.9807   -2.9220 H   0  0  0  0  0  0  0  0  0  0  0  0
    3.8098   -4.7790    0.9080 H   0  0  0  0  0  0  0  0  0  0  0  0
    1.0500   -1.9121    3.5316 H   0  0  0  0  0  0  0  0  0  0  0  0
    1.2772    0.6159    3.4807 H   0  0  0  0  0  0  0  0  0  0  0  0
    3.0241    1.6134    1.9963 H   0  0  0  0  0  0  0  0  0  0  0  0
  1  2  2  0
  2  3  2  0
  2  4  1  0
  2 10  1  0
  4  9  1  0
  4  5  2  0
  5  6  1  0
  5 19  1  0
  6  7  2  0
  6 20  1  0
  7  8  1  0
  7 21  1  0
  8  9  2  0
  9 22  1  0
 10 18  2  0
 10 11  1  0
 11 12  2  0
 11 23  1  0
 12 13  1  0
 13 18  1  0
 13 14  1  0
 14 15  2  0
 14 24  1  0
 15 16  1  0
 15 25  1  0
 16 17  2  0
 16 26  1  0
 17 18  1  0
M  END
>  <i_m_ct_stereo_status>  (165) 
1

>  <s_m_source_file>  (165) 
/var/tmp/pbs.5076255.sched01/tmp5gbx45fw/500pp51iot.sdf

>  <i_m_source_file_index>  (165) 
17

>  <i_lp_mmshare_version>  (165) 
48012

>  <i_f3d_flags>  (165) 
0

>  <s_epik_input>  (165) 
W2NIXTFbY0hdW2NIXW5jKG4xMiljKFtjSF1uMilTKD1PKSg9TyljM1tjSF1bY0hdW2NIXW5bY0hdMw==

>  <s_epik_cmdline>  (165) 
J2VwaWtfcHl0aG9uJywgJy1waHQnLCAnMi4wJywgJy1waCcsICc3LjAnLCAnLXRuJywgJzgnLCAnLW1hJywgJzIwMCcsICctaW1hZScsICc8aW5maWxlLm1hZT4nLCAnLW9tYWUnLCAnPG91dGZpbGUubWFlPic=

>  <r_lp_tautomer_probability>  (165) 
1

>  <r_epik_Ionization_Penalty>  (165) 
5.88948e-06

>  <r_epik_Ionization_Penalty_Charging>  (165) 
0

>  <r_epik_Ionization_Penalty_Neutral>  (165) 
5.88948e-06

>  <r_epik_State_Penalty>  (165) 
-0

>  <r_epik_Charging_Adjusted_Penalty>  (165) 
0

>  <i_epik_Tot_Q>  (165) 
0

>  <i_epik_Tot_abs_Q>  (165) 
0

>  <s_lp_Force_Field>  (165) 
OPLS3e

>  <r_lp_Energy>  (165) 
13.8657

>  <b_lp_Chiralities_Consistent>  (165) 
1

>  <s_lp_Variant>  (165) 
39:0-1

>  <s_i_glide_gridfile>  (165) 
pfpi4k_grid

>  <i_i_glide_lignum>  (165) 
17

>  <i_i_glide_rotatable_bonds>  (165) 
2

>  <r_i_docking_score>  (165) 
-3.91356

>  <r_i_glide_ligand_efficiency>  (165) 
-0.21742

>  <r_i_glide_ligand_efficiency_sa>  (165) 
-0.569802

>  <r_i_glide_ligand_efficiency_ln>  (165) 
-1.00596

>  <r_i_glide_gscore>  (165) 
-3.91356

>  <r_i_glide_lipo>  (165) 
-0.354046

>  <r_i_glide_hbond>  (165) 
-0.32

>  <r_i_glide_metal>  (165) 
-0

>  <r_i_glide_rewards>  (165) 
-1.6345

>  <r_i_glide_evdw>  (165) 
-24.8491

>  <r_i_glide_ecoul>  (165) 
-5.34584

>  <r_i_glide_erotb>  (165) 
0.52256

>  <r_i_glide_esite>  (165) 
-0.0832443

>  <r_i_glide_emodel>  (165) 
-37.4652

>  <r_i_glide_energy>  (165) 
-30.1949

>  <r_i_glide_einternal>  (165) 
0.297294

>  <r_i_glide_intrahb_reward>  (165) 
-0

>  <i_i_glide_confnum>  (165) 
3

>  <i_i_glide_posenum>  (165) 
11

>  <r_i_glide_eff_state_penalty>  (165) 
0

>  <ligand_id>  (165) 
39

>  <original_smiles>  (165) 
O=S(=O)(c1cccnc1)c1cnn2cccnc12

>  <smiles>  (165) 
[H]c1nc([H])c(S(=O)(=O)c2c([H])nn3c([H])c([H])c([H])nc23)c([H])c1[H]

$$$$
39:0:1
     RDKit          3D

 26 28  0  0  1  0  0  0  0  0999 V2000
    5.7206   -3.8694   -0.8745 O   0  0  0  0  0  0  0  0  0  0  0  0
    5.2861   -2.4827   -0.6537 S   0  0  0  0  0  0  0  0  0  0  0  0
    6.2757   -1.4445   -0.3180 O   0  0  0  0  0  0  0  0  0  0  0  0
    4.3844   -1.9619   -2.0980 C   0  0  0  0  0  0  0  0  0  0  0  0
    3.5450   -2.8569   -2.7824 C   0  0  0  0  0  0  0  0  0  0  0  0
    2.8488   -2.3906   -3.9143 C   0  0  0  0  0  0  0  0  0  0  0  0
    3.0144   -1.0442   -4.2951 C   0  0  0  0  0  0  0  0  0  0  0  0
    3.8316   -0.1894   -3.6559 N   0  0  0  0  0  0  0  0  0  0  0  0
    4.4885   -0.6433   -2.5680 C   0  0  0  0  0  0  0  0  0  0  0  0
    4.0891   -2.5391    0.6363 C   0  0  0  0  0  0  0  0  0  0  0  0
    3.4977   -3.7157    1.1451 C   0  0  0  0  0  0  0  0  0  0  0  0
    2.6179   -3.4722    2.0920 N   0  0  0  0  0  0  0  0  0  0  0  0
    2.6251   -2.1010    2.2059 N   0  0  0  0  0  0  0  0  0  0  0  0
    1.8716   -1.3627    3.0682 C   0  0  0  0  0  0  0  0  0  0  0  0
    2.0138    0.0050    3.0321 C   0  0  0  0  0  0  0  0  0  0  0  0
    2.9276    0.5631    2.1044 C   0  0  0  0  0  0  0  0  0  0  0  0
    3.6771   -0.1479    1.2666 N   0  0  0  0  0  0  0  0  0  0  0  0
    3.5318   -1.4851    1.3022 C   0  0  0  0  0  0  0  0  0  0  0  0
    3.4331   -3.8704   -2.4424 H   0  0  0  0  0  0  0  0  0  0  0  0
    2.1762   -3.0384   -4.4536 H   0  0  0  0  0  0  0  0  0  0  0  0
    2.4856   -0.6310   -5.1368 H   0  0  0  0  0  0  0  0  0  0  0  0
    5.1404    0.0675   -2.0870 H   0  0  0  0  0  0  0  0  0  0  0  0
    3.6949   -4.7373    0.8493 H   0  0  0  0  0  0  0  0  0  0  0  0
    1.2017   -1.8901    3.7409 H   0  0  0  0  0  0  0  0  0  0  0  0
    1.4366    0.6404    3.6947 H   0  0  0  0  0  0  0  0  0  0  0  0
    3.0477    1.6420    2.0635 H   0  0  0  0  0  0  0  0  0  0  0  0
  1  2  2  0
  2  3  2  0
  2  4  1  0
  2 10  1  0
  4  9  1  0
  4  5  2  0
  5  6  1  0
  5 19  1  0
  6  7  2  0
  6 20  1  0
  7  8  1  0
  7 21  1  0
  8  9  2  0
  9 22  1  0
 10 18  2  0
 10 11  1  0
 11 12  2  0
 11 23  1  0
 12 13  1  0
 13 18  1  0
 13 14  1  0
 14 15  2  0
 14 24  1  0
 15 16  1  0
 15 25  1  0
 16 17  2  0
 16 26  1  0
 17 18  1  0
M  END
>  <i_m_ct_stereo_status>  (166) 
1

>  <s_m_source_file>  (166) 
/var/tmp/pbs.5076255.sched01/tmp5gbx45fw/500pp51iot.sdf

>  <i_m_source_file_index>  (166) 
17

>  <i_lp_mmshare_version>  (166) 
48012

>  <i_f3d_flags>  (166) 
0

>  <s_epik_input>  (166) 
W2NIXTFbY0hdW2NIXW5jKG4xMiljKFtjSF1uMilTKD1PKSg9TyljM1tjSF1bY0hdW2NIXW5bY0hdMw==

>  <s_epik_cmdline>  (166) 
J2VwaWtfcHl0aG9uJywgJy1waHQnLCAnMi4wJywgJy1waCcsICc3LjAnLCAnLXRuJywgJzgnLCAnLW1hJywgJzIwMCcsICctaW1hZScsICc8aW5maWxlLm1hZT4nLCAnLW9tYWUnLCAnPG91dGZpbGUubWFlPic=

>  <r_lp_tautomer_probability>  (166) 
1

>  <r_epik_Ionization_Penalty>  (166) 
5.88948e-06

>  <r_epik_Ionization_Penalty_Charging>  (166) 
0

>  <r_epik_Ionization_Penalty_Neutral>  (166) 
5.88948e-06

>  <r_epik_State_Penalty>  (166) 
-0

>  <r_epik_Charging_Adjusted_Penalty>  (166) 
0

>  <i_epik_Tot_Q>  (166) 
0

>  <i_epik_Tot_abs_Q>  (166) 
0

>  <s_lp_Force_Field>  (166) 
OPLS3e

>  <r_lp_Energy>  (166) 
13.8657

>  <b_lp_Chiralities_Consistent>  (166) 
1

>  <s_lp_Variant>  (166) 
39:0-1

>  <s_i_glide_gridfile>  (166) 
pfpi4k_grid

>  <i_i_glide_lignum>  (166) 
17

>  <i_i_glide_rotatable_bonds>  (166) 
2

>  <r_i_docking_score>  (166) 
-3.28113

>  <r_i_glide_ligand_efficiency>  (166) 
-0.182285

>  <r_i_glide_ligand_efficiency_sa>  (166) 
-0.477722

>  <r_i_glide_ligand_efficiency_ln>  (166) 
-0.843398

>  <r_i_glide_gscore>  (166) 
-3.28113

>  <r_i_glide_lipo>  (166) 
-0.285147

>  <r_i_glide_hbond>  (166) 
0

>  <r_i_glide_metal>  (166) 
-0

>  <r_i_glide_rewards>  (166) 
-1.6345

>  <r_i_glide_evdw>  (166) 
-25.4109

>  <r_i_glide_ecoul>  (166) 
-3.43428

>  <r_i_glide_erotb>  (166) 
0.52256

>  <r_i_glide_esite>  (166) 
-0.0983517

>  <r_i_glide_emodel>  (166) 
-34.8694

>  <r_i_glide_energy>  (166) 
-28.8452

>  <r_i_glide_einternal>  (166) 
0.39051

>  <r_i_glide_intrahb_reward>  (166) 
-0

>  <i_i_glide_confnum>  (166) 
3

>  <i_i_glide_posenum>  (166) 
15

>  <r_i_glide_eff_state_penalty>  (166) 
0

>  <ligand_id>  (166) 
39

>  <original_smiles>  (166) 
O=S(=O)(c1cccnc1)c1cnn2cccnc12

>  <smiles>  (166) 
[H]c1nc([H])c(S(=O)(=O)c2c([H])nn3c([H])c([H])c([H])nc23)c([H])c1[H]

$$$$
39:0:2
     RDKit          3D

 26 28  0  0  1  0  0  0  0  0999 V2000
    5.3037   -2.9496    1.2197 O   0  0  0  0  0  0  0  0  0  0  0  0
    4.6838   -1.6863    0.7957 S   0  0  0  0  0  0  0  0  0  0  0  0
    5.4282   -0.4210    0.9019 O   0  0  0  0  0  0  0  0  0  0  0  0
    4.1308   -1.8994   -0.8905 C   0  0  0  0  0  0  0  0  0  0  0  0
    3.2467   -2.9421   -1.2176 C   0  0  0  0  0  0  0  0  0  0  0  0
    2.8238   -3.0549   -2.5553 C   0  0  0  0  0  0  0  0  0  0  0  0
    3.3249   -2.1468   -3.5054 C   0  0  0  0  0  0  0  0  0  0  0  0
    4.2124   -1.1745   -3.2074 N   0  0  0  0  0  0  0  0  0  0  0  0
    4.5917   -1.0508   -1.9154 C   0  0  0  0  0  0  0  0  0  0  0  0
    3.2078   -1.5230    1.7482 C   0  0  0  0  0  0  0  0  0  0  0  0
    2.5219   -2.5896    2.3741 C   0  0  0  0  0  0  0  0  0  0  0  0
    1.4338   -2.1945    2.9989 N   0  0  0  0  0  0  0  0  0  0  0  0
    1.3986   -0.8357    2.7755 N   0  0  0  0  0  0  0  0  0  0  0  0
    0.4478    0.0270    3.2333 C   0  0  0  0  0  0  0  0  0  0  0  0
    0.5798    1.3566    2.9051 C   0  0  0  0  0  0  0  0  0  0  0  0
    1.6872    1.7488    2.1177 C   0  0  0  0  0  0  0  0  0  0  0  0
    2.6267    0.9158    1.6765 N   0  0  0  0  0  0  0  0  0  0  0  0
    2.4920   -0.3842    1.9943 C   0  0  0  0  0  0  0  0  0  0  0  0
    2.8874   -3.6252   -0.4580 H   0  0  0  0  0  0  0  0  0  0  0  0
    2.1294   -3.8321   -2.8466 H   0  0  0  0  0  0  0  0  0  0  0  0
    3.0232   -2.2168   -4.5393 H   0  0  0  0  0  0  0  0  0  0  0  0
    5.2977   -0.2588   -1.7081 H   0  0  0  0  0  0  0  0  0  0  0  0
    2.7899   -3.6387    2.3812 H   0  0  0  0  0  0  0  0  0  0  0  0
   -0.3653   -0.3753    3.8284 H   0  0  0  0  0  0  0  0  0  0  0  0
   -0.1502    2.0874    3.2295 H   0  0  0  0  0  0  0  0  0  0  0  0
    1.8064    2.7938    1.8436 H   0  0  0  0  0  0  0  0  0  0  0  0
  1  2  2  0
  2  3  2  0
  2  4  1  0
  2 10  1  0
  4  9  1  0
  4  5  2  0
  5  6  1  0
  5 19  1  0
  6  7  2  0
  6 20  1  0
  7  8  1  0
  7 21  1  0
  8  9  2  0
  9 22  1  0
 10 18  2  0
 10 11  1  0
 11 12  2  0
 11 23  1  0
 12 13  1  0
 13 18  1  0
 13 14  1  0
 14 15  2  0
 14 24  1  0
 15 16  1  0
 15 25  1  0
 16 17  2  0
 16 26  1  0
 17 18  1  0
M  END
>  <i_m_ct_stereo_status>  (167) 
1

>  <s_m_source_file>  (167) 
/var/tmp/pbs.5076255.sched01/tmp5gbx45fw/500pp51iot.sdf

>  <i_m_source_file_index>  (167) 
17

>  <i_lp_mmshare_version>  (167) 
48012

>  <i_f3d_flags>  (167) 
0

>  <s_epik_input>  (167) 
W2NIXTFbY0hdW2NIXW5jKG4xMiljKFtjSF1uMilTKD1PKSg9TyljM1tjSF1bY0hdW2NIXW5bY0hdMw==

>  <s_epik_cmdline>  (167) 
J2VwaWtfcHl0aG9uJywgJy1waHQnLCAnMi4wJywgJy1waCcsICc3LjAnLCAnLXRuJywgJzgnLCAnLW1hJywgJzIwMCcsICctaW1hZScsICc8aW5maWxlLm1hZT4nLCAnLW9tYWUnLCAnPG91dGZpbGUubWFlPic=

>  <r_lp_tautomer_probability>  (167) 
1

>  <r_epik_Ionization_Penalty>  (167) 
5.88948e-06

>  <r_epik_Ionization_Penalty_Charging>  (167) 
0

>  <r_epik_Ionization_Penalty_Neutral>  (167) 
5.88948e-06

>  <r_epik_State_Penalty>  (167) 
-0

>  <r_epik_Charging_Adjusted_Penalty>  (167) 
0

>  <i_epik_Tot_Q>  (167) 
0

>  <i_epik_Tot_abs_Q>  (167) 
0

>  <s_lp_Force_Field>  (167) 
OPLS3e

>  <r_lp_Energy>  (167) 
13.8657

>  <b_lp_Chiralities_Consistent>  (167) 
1

>  <s_lp_Variant>  (167) 
39:0-1

>  <s_i_glide_gridfile>  (167) 
pfpi4k_grid

>  <i_i_glide_lignum>  (167) 
17

>  <i_i_glide_rotatable_bonds>  (167) 
2

>  <r_i_docking_score>  (167) 
-2.99833

>  <r_i_glide_ligand_efficiency>  (167) 
-0.166574

>  <r_i_glide_ligand_efficiency_sa>  (167) 
-0.436547

>  <r_i_glide_ligand_efficiency_ln>  (167) 
-0.770705

>  <r_i_glide_gscore>  (167) 
-2.99833

>  <r_i_glide_lipo>  (167) 
-0.203852

>  <r_i_glide_hbond>  (167) 
0

>  <r_i_glide_metal>  (167) 
-0

>  <r_i_glide_rewards>  (167) 
-1.65479

>  <r_i_glide_evdw>  (167) 
-26.9207

>  <r_i_glide_ecoul>  (167) 
-1.65966

>  <r_i_glide_erotb>  (167) 
0.52256

>  <r_i_glide_esite>  (167) 
-0.0672635

>  <r_i_glide_emodel>  (167) 
-33.7999

>  <r_i_glide_energy>  (167) 
-28.5804

>  <r_i_glide_einternal>  (167) 
0.982756

>  <r_i_glide_intrahb_reward>  (167) 
-0

>  <i_i_glide_confnum>  (167) 
3

>  <i_i_glide_posenum>  (167) 
1

>  <r_i_glide_eff_state_penalty>  (167) 
0

>  <ligand_id>  (167) 
39

>  <original_smiles>  (167) 
O=S(=O)(c1cccnc1)c1cnn2cccnc12

>  <smiles>  (167) 
[H]c1nc([H])c(S(=O)(=O)c2c([H])nn3c([H])c([H])c([H])nc23)c([H])c1[H]

$$$$
40:0:0
     RDKit          3D

 87 93  0  0  1  0  0  0  0  0999 V2000
    0.0685   -9.2076    7.3457 C   0  0  0  0  0  0  0  0  0  0  0  0
    1.5663   -8.8818    7.6429 C   0  0  0  0  0  0  0  0  0  0  0  0
    1.6535   -7.5115    8.3911 C   0  0  0  0  0  0  0  0  0  0  0  0
    1.7030   -9.8129    8.7229 O   0  0  0  0  0  0  0  0  0  0  0  0
    2.6699   -9.1502    6.4371 C   0  0  2  0  0  0  0  0  0  0  0  0
    4.0007   -9.7336    7.1311 C   0  0  1  0  0  0  0  0  0  0  0  0
    3.8645  -11.0309    7.6944 O   0  0  0  0  0  0  0  0  0  0  0  0
    5.2192   -9.8861    6.2895 C   0  0  0  0  0  0  0  0  0  0  0  0
    5.9609   -8.9193    5.7746 C   0  0  0  0  0  0  0  0  0  0  0  0
    6.5929   -9.0332    4.5059 C   0  0  0  0  0  0  0  0  0  0  0  0
    7.3137   -9.8971    3.9931 O   0  0  0  0  0  0  0  0  0  0  0  0
    6.0484   -7.6303    4.2064 C   0  0  1  0  0  0  0  0  0  0  0  0
    4.8130   -7.6138    3.2601 C   0  0  1  0  0  0  0  0  0  0  0  0
    3.4243   -8.3379    3.6795 C   0  0  2  0  0  0  0  0  0  0  0  0
    3.5028   -9.8959    3.5563 C   0  0  0  0  0  0  0  0  0  0  0  0
    2.4898   -8.1173    2.3906 C   0  0  0  0  0  0  0  0  0  0  0  0
    2.6326   -6.9002    1.4377 C   0  0  0  0  0  0  0  0  0  0  0  0
    3.4462   -5.6908    1.8994 C   0  0  2  0  0  0  0  0  0  0  0  0
    2.5571   -4.9191    2.9144 C   0  0  0  0  0  0  0  0  0  0  0  0
    3.6982   -4.6587    0.7395 C   0  0  1  0  0  0  0  0  0  0  0  0
    2.4912   -4.2409   -0.1532 C   0  0  0  0  0  0  0  0  0  0  0  0
    2.8916   -3.4533   -1.4174 C   0  0  0  0  0  0  0  0  0  0  0  0
    2.1640   -3.3916   -2.3900 O   0  0  0  0  0  0  0  0  0  0  0  0
    4.1941   -2.8006   -1.3027 C   0  0  0  0  0  0  0  0  0  0  0  0
    4.9093   -2.0218   -2.2503 C   0  0  0  0  0  0  0  0  0  0  0  0
    5.9999   -1.5700   -1.6596 N   0  0  0  0  0  0  0  0  0  0  0  0
    5.9873   -2.0034   -0.3236 O   0  0  0  0  0  0  0  0  0  0  0  0
    4.9107   -2.8010   -0.1760 C   0  0  0  0  0  0  0  0  0  0  0  0
    4.5632   -3.4083    1.1489 C   0  0  1  0  0  0  0  0  0  0  0  0
    3.8299   -2.2867    1.9321 C   0  0  0  0  0  0  0  0  0  0  0  0
    5.8075   -3.8304    1.9618 C   0  0  0  0  0  0  0  0  0  0  0  0
    5.6193   -5.0049    2.9712 C   0  0  0  0  0  0  0  0  0  0  0  0
    4.8552   -6.2534    2.3814 C   0  0  1  0  0  0  0  0  0  0  0  0
    5.7748   -6.7198    1.1924 C   0  0  0  0  0  0  0  0  0  0  0  0
    2.7928   -8.0065    5.1952 C   0  0  1  0  0  0  0  0  0  0  0  0
    1.2926   -7.6919    4.9763 C   0  0  0  0  0  0  0  0  0  0  0  0
    3.4619   -6.6769    5.6699 C   0  0  0  0  0  0  0  0  0  0  0  0
    4.7936   -6.7285    6.4328 C   0  0  0  0  0  0  0  0  0  0  0  0
    5.9839   -7.4021    5.7544 C   0  0  1  0  0  0  0  0  0  0  0  0
    7.2703   -6.8860    6.4313 C   0  0  0  0  0  0  0  0  0  0  0  0
   -0.4680   -8.4924    6.7110 H   0  0  0  0  0  0  0  0  0  0  0  0
   -0.4779   -9.1833    8.2934 H   0  0  0  0  0  0  0  0  0  0  0  0
   -0.0457  -10.2103    6.9196 H   0  0  0  0  0  0  0  0  0  0  0  0
    1.5091   -6.6298    7.7699 H   0  0  0  0  0  0  0  0  0  0  0  0
    2.6127   -7.4309    8.9126 H   0  0  0  0  0  0  0  0  0  0  0  0
    0.8742   -7.4803    9.1783 H   0  0  0  0  0  0  0  0  0  0  0  0
    1.5212  -10.7072    8.4412 H   0  0  0  0  0  0  0  0  0  0  0  0
    2.2773  -10.0435    5.9415 H   0  0  0  0  0  0  0  0  0  0  0  0
    4.3196   -9.1013    7.9484 H   0  0  0  0  0  0  0  0  0  0  0  0
    3.0100  -11.4071    7.4872 H   0  0  0  0  0  0  0  0  0  0  0  0
    5.3973  -10.8615    5.8545 H   0  0  0  0  0  0  0  0  0  0  0  0
    6.8936   -7.0792    3.8119 H   0  0  0  0  0  0  0  0  0  0  0  0
    5.0526   -8.3651    2.5041 H   0  0  0  0  0  0  0  0  0  0  0  0
    2.4991  -10.3371    3.6174 H   0  0  0  0  0  0  0  0  0  0  0  0
    4.1035  -10.4213    4.2727 H   0  0  0  0  0  0  0  0  0  0  0  0
    3.9341  -10.2092    2.6020 H   0  0  0  0  0  0  0  0  0  0  0  0
    2.5933   -8.9601    1.6809 H   0  0  0  0  0  0  0  0  0  0  0  0
    1.4387   -8.2427    2.5929 H   0  0  0  0  0  0  0  0  0  0  0  0
    3.1403   -7.2636    0.5576 H   0  0  0  0  0  0  0  0  0  0  0  0
    1.6356   -6.5914    1.1064 H   0  0  0  0  0  0  0  0  0  0  0  0
    3.0968   -4.2833    3.6016 H   0  0  0  0  0  0  0  0  0  0  0  0
    2.0045   -5.5740    3.5448 H   0  0  0  0  0  0  0  0  0  0  0  0
    1.8003   -4.3066    2.4228 H   0  0  0  0  0  0  0  0  0  0  0  0
    4.2611   -5.2114   -0.0063 H   0  0  0  0  0  0  0  0  0  0  0  0
    1.9639   -5.1273   -0.5078 H   0  0  0  0  0  0  0  0  0  0  0  0
    1.8154   -3.5989    0.4081 H   0  0  0  0  0  0  0  0  0  0  0  0
    4.6832   -1.7622   -3.2674 H   0  0  0  0  0  0  0  0  0  0  0  0
    3.7964   -2.4585    3.0012 H   0  0  0  0  0  0  0  0  0  0  0  0
    2.8134   -2.1208    1.5825 H   0  0  0  0  0  0  0  0  0  0  0  0
    4.3508   -1.3339    1.8166 H   0  0  0  0  0  0  0  0  0  0  0  0
    6.6164   -4.0912    1.2824 H   0  0  0  0  0  0  0  0  0  0  0  0
    6.1899   -2.9565    2.4910 H   0  0  0  0  0  0  0  0  0  0  0  0
    6.6328   -5.2306    3.3005 H   0  0  0  0  0  0  0  0  0  0  0  0
    5.1323   -4.6386    3.8718 H   0  0  0  0  0  0  0  0  0  0  0  0
    6.0931   -5.9479    0.4992 H   0  0  0  0  0  0  0  0  0  0  0  0
    5.3026   -7.4963    0.5875 H   0  0  0  0  0  0  0  0  0  0  0  0
    6.7076   -7.1378    1.5754 H   0  0  0  0  0  0  0  0  0  0  0  0
    1.0084   -7.1029    4.1261 H   0  0  0  0  0  0  0  0  0  0  0  0
    0.8921   -7.1085    5.7971 H   0  0  0  0  0  0  0  0  0  0  0  0
    0.7121   -8.6036    4.8595 H   0  0  0  0  0  0  0  0  0  0  0  0
    3.7175   -6.1021    4.7819 H   0  0  0  0  0  0  0  0  0  0  0  0
    2.7952   -6.0549    6.2566 H   0  0  0  0  0  0  0  0  0  0  0  0
    5.0660   -5.6862    6.5595 H   0  0  0  0  0  0  0  0  0  0  0  0
    4.6890   -7.0913    7.4538 H   0  0  0  0  0  0  0  0  0  0  0  0
    7.4361   -5.8270    6.2026 H   0  0  0  0  0  0  0  0  0  0  0  0
    8.1677   -7.4292    6.1078 H   0  0  0  0  0  0  0  0  0  0  0  0
    7.2075   -6.9853    7.5215 H   0  0  0  0  0  0  0  0  0  0  0  0
  1  2  1  0
  1 41  1  0
  1 42  1  0
  1 43  1  0
  2  3  1  0
  2  4  1  0
  2  5  1  0
  3 44  1  0
  3 45  1  0
  3 46  1  0
  4 47  1  0
  5 35  1  0
  5  6  1  0
  5 48  1  6
  6  7  1  0
  6  8  1  0
  6 49  1  1
  7 50  1  0
  8  9  2  3
  8 51  1  0
  9 39  1  0
  9 10  1  0
 10 11  2  0
 10 12  1  0
 12 39  1  0
 12 13  1  0
 12 52  1  6
 13 33  1  0
 13 14  1  0
 13 53  1  6
 14 15  1  1
 14 16  1  0
 14 35  1  0
 15 54  1  0
 15 55  1  0
 15 56  1  0
 16 17  1  0
 16 57  1  0
 16 58  1  0
 17 18  1  0
 17 59  1  0
 17 60  1  0
 18 33  1  0
 18 19  1  1
 18 20  1  0
 19 61  1  0
 19 62  1  0
 19 63  1  0
 20 29  1  0
 20 21  1  0
 20 64  1  6
 21 22  1  0
 21 65  1  0
 21 66  1  0
 22 23  2  0
 22 24  1  0
 24 28  2  0
 24 25  1  0
 25 26  2  0
 25 67  1  0
 26 27  1  0
 27 28  1  0
 28 29  1  0
 29 30  1  1
 29 31  1  0
 30 68  1  0
 30 69  1  0
 30 70  1  0
 31 32  1  0
 31 71  1  0
 31 72  1  0
 32 33  1  0
 32 73  1  0
 32 74  1  0
 33 34  1  6
 34 75  1  0
 34 76  1  0
 34 77  1  0
 35 36  1  6
 35 37  1  0
 36 78  1  0
 36 79  1  0
 36 80  1  0
 37 38  1  0
 37 81  1  0
 37 82  1  0
 38 39  1  0
 38 83  1  0
 38 84  1  0
 39 40  1  1
 40 85  1  0
 40 86  1  0
 40 87  1  0
M  END
>  <i_m_ct_stereo_status>  (168) 
1

>  <s_m_source_file>  (168) 
/var/tmp/pbs.5076255.sched01/tmp5gbx45fw/500pp51iot.sdf

>  <i_m_source_file_index>  (168) 
18

>  <i_lp_mmshare_version>  (168) 
48012

>  <i_f3d_flags>  (168) 
0

>  <s_epik_input>  (168) 
W0NIMl0xW0NIMl1DMihbQ0gzXSlbQ0BIXShDKFtDSDNdKShbQ0gzXSlbT0hdKVtDQEBIXShbT0hdKS9bQ0hdPUMoL0MzPU8pW0NAQF0xKFtDSDNdKVtDQEBIXTNbQ0BASF0oW0NAQF0yNFtDSDNdKVtDQEBdNShbQ0gzXSlbQ0BdKFtDSDNdKShbQ0gyXVtDSDJdNClbQ0BASF02W0NAQF0oW0NIM10pKFtDSDJdW0NIMl01KWM3YyhDKD1PKVtDSDJdNilbY0hdbm83

>  <s_epik_cmdline>  (168) 
J2VwaWtfcHl0aG9uJywgJy1waHQnLCAnMi4wJywgJy1waCcsICc3LjAnLCAnLXRuJywgJzgnLCAnLW1hJywgJzIwMCcsICctaW1hZScsICc8aW5maWxlLm1hZT4nLCAnLW9tYWUnLCAnPG91dGZpbGUubWFlPic=

>  <r_lp_tautomer_probability>  (168) 
1

>  <r_epik_Ionization_Penalty>  (168) 
2.19546e-07

>  <r_epik_Ionization_Penalty_Charging>  (168) 
0

>  <r_epik_Ionization_Penalty_Neutral>  (168) 
2.19546e-07

>  <r_epik_State_Penalty>  (168) 
-0

>  <r_epik_Charging_Adjusted_Penalty>  (168) 
0

>  <i_epik_Tot_Q>  (168) 
0

>  <i_epik_Tot_abs_Q>  (168) 
0

>  <s_lp_Force_Field>  (168) 
OPLS3e

>  <r_lp_Energy>  (168) 
199.769

>  <b_lp_Chiralities_Consistent>  (168) 
1

>  <s_lp_Variant>  (168) 
40:0-1

>  <s_i_glide_gridfile>  (168) 
pfpi4k_grid

>  <i_i_glide_lignum>  (168) 
18

>  <i_i_glide_rotatable_bonds>  (168) 
3

>  <r_i_docking_score>  (168) 
-2.54803

>  <r_i_glide_ligand_efficiency>  (168) 
-0.0637006

>  <r_i_glide_ligand_efficiency_sa>  (168) 
-0.217853

>  <r_i_glide_ligand_efficiency_ln>  (168) 
-0.543419

>  <r_i_glide_gscore>  (168) 
-2.54803

>  <r_i_glide_lipo>  (168) 
-0.186917

>  <r_i_glide_hbond>  (168) 
0

>  <r_i_glide_metal>  (168) 
-0

>  <r_i_glide_rewards>  (168) 
-0.125919

>  <r_i_glide_evdw>  (168) 
-21.6777

>  <r_i_glide_ecoul>  (168) 
-7.40893

>  <r_i_glide_erotb>  (168) 
0.0685912

>  <r_i_glide_esite>  (168) 
-0.108554

>  <r_i_glide_emodel>  (168) 
-32.1005

>  <r_i_glide_energy>  (168) 
-29.0867

>  <r_i_glide_einternal>  (168) 
2.22057

>  <r_i_glide_intrahb_reward>  (168) 
-0

>  <i_i_glide_confnum>  (168) 
6

>  <i_i_glide_posenum>  (168) 
27

>  <r_i_glide_eff_state_penalty>  (168) 
0

>  <ligand_id>  (168) 
40

>  <original_smiles>  (168) 
CC(C)(O)C1C(O)C=C2C(=O)C3C4C(C)(CCC5(C)C6CC(=O)c7cnoc7C6(C)CCC45C)C1(C)CCC23C

>  <smiles>  (168) 
[H]OC1([H])C([H])=C2C(=O)C3([H])C4([H])C(C([H])([H])[H])(C([H])([H])C([H])([H])C5(C([H])([H])[H])C6([H])C([H])([H])C(=O)c7c([H])noc7C6(C([H])([H])[H])C([H])([H])C([H])([H])C45C([H])([H])[H])C(C([H])([H])[H])(C([H])([H])C([H])([H])C23C([H])([H])[H])C1([H])C(O[H])(C([H])([H])[H])C([H])([H])[H]

$$$$
40:0:1
     RDKit          3D

 87 93  0  0  1  0  0  0  0  0999 V2000
    7.7606   -3.9894   -0.4224 C   0  0  0  0  0  0  0  0  0  0  0  0
    6.6391   -3.1541   -1.1530 C   0  0  0  0  0  0  0  0  0  0  0  0
    7.3869   -1.8812   -1.4091 C   0  0  0  0  0  0  0  0  0  0  0  0
    6.4408   -3.7028   -2.4593 O   0  0  0  0  0  0  0  0  0  0  0  0
    5.0996   -3.0338   -0.5804 C   0  0  2  0  0  0  0  0  0  0  0  0
    4.8359   -1.4830   -0.2650 C   0  0  1  0  0  0  0  0  0  0  0  0
    4.8560   -0.6854   -1.4457 O   0  0  0  0  0  0  0  0  0  0  0  0
    3.5783   -1.0876    0.3941 C   0  0  0  0  0  0  0  0  0  0  0  0
    3.2726   -1.3898    1.6497 C   0  0  0  0  0  0  0  0  0  0  0  0
    1.9686   -1.6472    2.1507 C   0  0  0  0  0  0  0  0  0  0  0  0
    0.9009   -1.0307    2.1447 O   0  0  0  0  0  0  0  0  0  0  0  0
    2.5965   -2.8490    2.8748 C   0  0  1  0  0  0  0  0  0  0  0  0
    2.4000   -4.2402    2.2095 C   0  0  1  0  0  0  0  0  0  0  0  0
    2.9464   -4.5579    0.7039 C   0  0  2  0  0  0  0  0  0  0  0  0
    2.1589   -3.8432   -0.4631 C   0  0  0  0  0  0  0  0  0  0  0  0
    2.3828   -6.0302    0.4321 C   0  0  0  0  0  0  0  0  0  0  0  0
    2.0012   -7.0696    1.5161 C   0  0  0  0  0  0  0  0  0  0  0  0
    2.5862   -6.8618    2.9141 C   0  0  2  0  0  0  0  0  0  0  0  0
    4.0986   -7.2128    2.8416 C   0  0  0  0  0  0  0  0  0  0  0  0
    1.9930   -7.8633    3.9660 C   0  0  1  0  0  0  0  0  0  0  0  0
    1.9027   -9.3747    3.5647 C   0  0  0  0  0  0  0  0  0  0  0  0
    1.0498  -10.2129    4.5428 C   0  0  0  0  0  0  0  0  0  0  0  0
    0.5603  -11.2715    4.1920 O   0  0  0  0  0  0  0  0  0  0  0  0
    0.8839   -9.5950    5.8745 C   0  0  0  0  0  0  0  0  0  0  0  0
    0.1361  -10.0114    6.9964 C   0  0  0  0  0  0  0  0  0  0  0  0
    0.3305   -9.1749    8.0116 N   0  0  0  0  0  0  0  0  0  0  0  0
    1.2434   -8.1988    7.5691 O   0  0  0  0  0  0  0  0  0  0  0  0
    1.5165   -8.4772    6.2587 C   0  0  0  0  0  0  0  0  0  0  0  0
    2.4955   -7.6468    5.4568 C   0  0  1  0  0  0  0  0  0  0  0  0
    3.9093   -8.2186    5.7639 C   0  0  0  0  0  0  0  0  0  0  0  0
    2.4849   -6.1359    5.8380 C   0  0  0  0  0  0  0  0  0  0  0  0
    2.8849   -5.1391    4.7175 C   0  0  0  0  0  0  0  0  0  0  0  0
    2.1736   -5.3868    3.3430 C   0  0  1  0  0  0  0  0  0  0  0  0
    0.6317   -5.2299    3.6644 C   0  0  0  0  0  0  0  0  0  0  0  0
    4.5642   -4.2867    0.3970 C   0  0  1  0  0  0  0  0  0  0  0  0
    5.0679   -5.5605   -0.3622 C   0  0  0  0  0  0  0  0  0  0  0  0
    5.2730   -4.1710    1.7694 C   0  0  0  0  0  0  0  0  0  0  0  0
    5.2700   -2.8497    2.5620 C   0  0  0  0  0  0  0  0  0  0  0  0
    3.9579   -2.0902    2.8222 C   0  0  1  0  0  0  0  0  0  0  0  0
    4.2103   -1.1383    4.0061 C   0  0  0  0  0  0  0  0  0  0  0  0
    8.0274   -3.5046    0.5211 H   0  0  0  0  0  0  0  0  0  0  0  0
    8.6585   -4.0249   -1.0634 H   0  0  0  0  0  0  0  0  0  0  0  0
    7.6487   -5.0449   -0.2157 H   0  0  0  0  0  0  0  0  0  0  0  0
    7.3333   -1.2080   -0.4880 H   0  0  0  0  0  0  0  0  0  0  0  0
    6.9193   -1.4636   -2.3102 H   0  0  0  0  0  0  0  0  0  0  0  0
    8.4481   -1.9859   -1.6380 H   0  0  0  0  0  0  0  0  0  0  0  0
    6.2101   -4.6354   -2.3835 H   0  0  0  0  0  0  0  0  0  0  0  0
    4.4745   -3.1706   -1.4737 H   0  0  0  0  0  0  0  0  0  0  0  0
    5.5986   -1.1008    0.3965 H   0  0  0  0  0  0  0  0  0  0  0  0
    4.9204    0.2370   -1.2148 H   0  0  0  0  0  0  0  0  0  0  0  0
    2.7972   -0.7326   -0.2633 H   0  0  0  0  0  0  0  0  0  0  0  0
    2.1559   -2.8173    3.8638 H   0  0  0  0  0  0  0  0  0  0  0  0
    1.4175   -4.1113    1.8383 H   0  0  0  0  0  0  0  0  0  0  0  0
    2.4081   -4.2328   -1.4487 H   0  0  0  0  0  0  0  0  0  0  0  0
    2.2201   -2.7765   -0.5304 H   0  0  0  0  0  0  0  0  0  0  0  0
    1.1105   -4.0486   -0.4585 H   0  0  0  0  0  0  0  0  0  0  0  0
    1.4242   -5.9880   -0.0786 H   0  0  0  0  0  0  0  0  0  0  0  0
    2.9072   -6.5278   -0.3441 H   0  0  0  0  0  0  0  0  0  0  0  0
    0.9133   -7.0801    1.5862 H   0  0  0  0  0  0  0  0  0  0  0  0
    2.2374   -8.0711    1.1478 H   0  0  0  0  0  0  0  0  0  0  0  0
    4.7130   -6.7704    3.6102 H   0  0  0  0  0  0  0  0  0  0  0  0
    4.5647   -6.9154    1.9342 H   0  0  0  0  0  0  0  0  0  0  0  0
    4.2739   -8.2838    2.8778 H   0  0  0  0  0  0  0  0  0  0  0  0
    0.9278   -7.6438    3.9831 H   0  0  0  0  0  0  0  0  0  0  0  0
    1.4444   -9.5004    2.5840 H   0  0  0  0  0  0  0  0  0  0  0  0
    2.8806   -9.8412    3.5185 H   0  0  0  0  0  0  0  0  0  0  0  0
   -0.4629  -10.8936    7.1077 H   0  0  0  0  0  0  0  0  0  0  0  0
    4.7135   -7.5303    5.5260 H   0  0  0  0  0  0  0  0  0  0  0  0
    4.1029   -9.1581    5.2486 H   0  0  0  0  0  0  0  0  0  0  0  0
    4.0239   -8.4214    6.8293 H   0  0  0  0  0  0  0  0  0  0  0  0
    1.5010   -5.8656    6.2175 H   0  0  0  0  0  0  0  0  0  0  0  0
    3.1312   -5.9748    6.6990 H   0  0  0  0  0  0  0  0  0  0  0  0
    2.6508   -4.1712    5.1412 H   0  0  0  0  0  0  0  0  0  0  0  0
    3.9639   -5.1037    4.5980 H   0  0  0  0  0  0  0  0  0  0  0  0
    0.2596   -5.7821    4.5194 H   0  0  0  0  0  0  0  0  0  0  0  0
    0.0079   -5.5393    2.8320 H   0  0  0  0  0  0  0  0  0  0  0  0
    0.3671   -4.1961    3.8952 H   0  0  0  0  0  0  0  0  0  0  0  0
    4.7760   -6.5130    0.0552 H   0  0  0  0  0  0  0  0  0  0  0  0
    6.0803   -5.7700   -0.3157 H   0  0  0  0  0  0  0  0  0  0  0  0
    4.7382   -5.5578   -1.4021 H   0  0  0  0  0  0  0  0  0  0  0  0
    4.8545   -4.8945    2.4384 H   0  0  0  0  0  0  0  0  0  0  0  0
    6.3065   -4.4937    1.6812 H   0  0  0  0  0  0  0  0  0  0  0  0
    5.6629   -3.1435    3.5385 H   0  0  0  0  0  0  0  0  0  0  0  0
    6.0301   -2.1840    2.1760 H   0  0  0  0  0  0  0  0  0  0  0  0
    4.3799   -1.7174    4.9207 H   0  0  0  0  0  0  0  0  0  0  0  0
    3.3671   -0.4780    4.2126 H   0  0  0  0  0  0  0  0  0  0  0  0
    5.0843   -0.5167    3.8362 H   0  0  0  0  0  0  0  0  0  0  0  0
  1  2  1  0
  1 41  1  0
  1 42  1  0
  1 43  1  0
  2  3  1  0
  2  4  1  0
  2  5  1  0
  3 44  1  0
  3 45  1  0
  3 46  1  0
  4 47  1  0
  5 35  1  0
  5  6  1  0
  5 48  1  6
  6  7  1  0
  6  8  1  0
  6 49  1  1
  7 50  1  0
  8  9  2  3
  8 51  1  0
  9 39  1  0
  9 10  1  0
 10 11  2  0
 10 12  1  0
 12 39  1  0
 12 13  1  0
 12 52  1  1
 13 33  1  0
 13 14  1  0
 13 53  1  6
 14 15  1  6
 14 16  1  0
 14 35  1  0
 15 54  1  0
 15 55  1  0
 15 56  1  0
 16 17  1  0
 16 57  1  0
 16 58  1  0
 17 18  1  0
 17 59  1  0
 17 60  1  0
 18 33  1  0
 18 19  1  6
 18 20  1  0
 19 61  1  0
 19 62  1  0
 19 63  1  0
 20 29  1  0
 20 21  1  0
 20 64  1  1
 21 22  1  0
 21 65  1  0
 21 66  1  0
 22 23  2  0
 22 24  1  0
 24 28  2  0
 24 25  1  0
 25 26  2  0
 25 67  1  0
 26 27  1  0
 27 28  1  0
 28 29  1  0
 29 30  1  6
 29 31  1  0
 30 68  1  0
 30 69  1  0
 30 70  1  0
 31 32  1  0
 31 71  1  0
 31 72  1  0
 32 33  1  0
 32 73  1  0
 32 74  1  0
 33 34  1  1
 34 75  1  0
 34 76  1  0
 34 77  1  0
 35 36  1  6
 35 37  1  0
 36 78  1  0
 36 79  1  0
 36 80  1  0
 37 38  1  0
 37 81  1  0
 37 82  1  0
 38 39  1  0
 38 83  1  0
 38 84  1  0
 39 40  1  1
 40 85  1  0
 40 86  1  0
 40 87  1  0
M  END
>  <i_m_ct_stereo_status>  (169) 
1

>  <s_m_source_file>  (169) 
/var/tmp/pbs.5076255.sched01/tmp5gbx45fw/500pp51iot.sdf

>  <i_m_source_file_index>  (169) 
18

>  <i_lp_mmshare_version>  (169) 
48012

>  <i_f3d_flags>  (169) 
0

>  <s_epik_input>  (169) 
W0NIMl0xW0NIMl1DMihbQ0gzXSlbQ0BIXShDKFtDSDNdKShbQ0gzXSlbT0hdKVtDQEBIXShbT0hdKS9bQ0hdPUMoL0MzPU8pW0NAQF0xKFtDSDNdKVtDQEBIXTNbQ0BASF0oW0NAQF0yNFtDSDNdKVtDQEBdNShbQ0gzXSlbQ0BdKFtDSDNdKShbQ0gyXVtDSDJdNClbQ0BASF02W0NAQF0oW0NIM10pKFtDSDJdW0NIMl01KWM3YyhDKD1PKVtDSDJdNilbY0hdbm83

>  <s_epik_cmdline>  (169) 
J2VwaWtfcHl0aG9uJywgJy1waHQnLCAnMi4wJywgJy1waCcsICc3LjAnLCAnLXRuJywgJzgnLCAnLW1hJywgJzIwMCcsICctaW1hZScsICc8aW5maWxlLm1hZT4nLCAnLW9tYWUnLCAnPG91dGZpbGUubWFlPic=

>  <r_lp_tautomer_probability>  (169) 
1

>  <r_epik_Ionization_Penalty>  (169) 
2.19546e-07

>  <r_epik_Ionization_Penalty_Charging>  (169) 
0

>  <r_epik_Ionization_Penalty_Neutral>  (169) 
2.19546e-07

>  <r_epik_State_Penalty>  (169) 
-0

>  <r_epik_Charging_Adjusted_Penalty>  (169) 
0

>  <i_epik_Tot_Q>  (169) 
0

>  <i_epik_Tot_abs_Q>  (169) 
0

>  <s_lp_Force_Field>  (169) 
OPLS3e

>  <r_lp_Energy>  (169) 
199.769

>  <b_lp_Chiralities_Consistent>  (169) 
1

>  <s_lp_Variant>  (169) 
40:0-1

>  <s_i_glide_gridfile>  (169) 
pfpi4k_grid

>  <i_i_glide_lignum>  (169) 
18

>  <i_i_glide_rotatable_bonds>  (169) 
3

>  <r_i_docking_score>  (169) 
-0.123149

>  <r_i_glide_ligand_efficiency>  (169) 
-0.00307872

>  <r_i_glide_ligand_efficiency_sa>  (169) 
-0.0105291

>  <r_i_glide_ligand_efficiency_ln>  (169) 
-0.026264

>  <r_i_glide_gscore>  (169) 
-0.123149

>  <r_i_glide_lipo>  (169) 
-0.334546

>  <r_i_glide_hbond>  (169) 
-0.32

>  <r_i_glide_metal>  (169) 
-0

>  <r_i_glide_rewards>  (169) 
0

>  <r_i_glide_evdw>  (169) 
-1.43166

>  <r_i_glide_ecoul>  (169) 
-3.06253

>  <r_i_glide_erotb>  (169) 
0.0685912

>  <r_i_glide_esite>  (169) 
-0.173147

>  <r_i_glide_emodel>  (169) 
5.22311

>  <r_i_glide_energy>  (169) 
-4.4942

>  <r_i_glide_einternal>  (169) 
7.642

>  <r_i_glide_intrahb_reward>  (169) 
-0

>  <i_i_glide_confnum>  (169) 
2

>  <i_i_glide_posenum>  (169) 
1

>  <r_i_glide_eff_state_penalty>  (169) 
0

>  <ligand_id>  (169) 
40

>  <original_smiles>  (169) 
CC(C)(O)C1C(O)C=C2C(=O)C3C4C(C)(CCC5(C)C6CC(=O)c7cnoc7C6(C)CCC45C)C1(C)CCC23C

>  <smiles>  (169) 
[H]OC1([H])C([H])=C2C(=O)C3([H])C4([H])C(C([H])([H])[H])(C([H])([H])C([H])([H])C5(C([H])([H])[H])C6([H])C([H])([H])C(=O)c7c([H])noc7C6(C([H])([H])[H])C([H])([H])C([H])([H])C45C([H])([H])[H])C(C([H])([H])[H])(C([H])([H])C([H])([H])C23C([H])([H])[H])C1([H])C(O[H])(C([H])([H])[H])C([H])([H])[H]

$$$$
40:0:2
     RDKit          3D

 87 93  0  0  1  0  0  0  0  0999 V2000
    7.7715   -4.0425   -0.3984 C   0  0  0  0  0  0  0  0  0  0  0  0
    6.6269   -3.2551   -1.1042 C   0  0  0  0  0  0  0  0  0  0  0  0
    7.4183   -1.9159   -1.3325 C   0  0  0  0  0  0  0  0  0  0  0  0
    6.4351   -3.6866   -2.4288 O   0  0  0  0  0  0  0  0  0  0  0  0
    5.1179   -3.0653   -0.5320 C   0  0  2  0  0  0  0  0  0  0  0  0
    4.8813   -1.4960   -0.1808 C   0  0  1  0  0  0  0  0  0  0  0  0
    4.9034   -0.6916   -1.3426 O   0  0  0  0  0  0  0  0  0  0  0  0
    3.6251   -1.1075    0.4905 C   0  0  0  0  0  0  0  0  0  0  0  0
    3.3135   -1.4438    1.7347 C   0  0  0  0  0  0  0  0  0  0  0  0
    2.0208   -1.6914    2.2281 C   0  0  0  0  0  0  0  0  0  0  0  0
    0.9513   -1.0664    2.2385 O   0  0  0  0  0  0  0  0  0  0  0  0
    2.6216   -2.9278    2.9170 C   0  0  1  0  0  0  0  0  0  0  0  0
    2.3962   -4.2918    2.2064 C   0  0  1  0  0  0  0  0  0  0  0  0
    2.9528   -4.5744    0.6902 C   0  0  2  0  0  0  0  0  0  0  0  0
    2.1697   -3.8096   -0.4564 C   0  0  0  0  0  0  0  0  0  0  0  0
    2.3433   -6.0220    0.3745 C   0  0  0  0  0  0  0  0  0  0  0  0
    1.9564   -7.0941    1.4244 C   0  0  0  0  0  0  0  0  0  0  0  0
    2.5440   -6.9420    2.8305 C   0  0  2  0  0  0  0  0  0  0  0  0
    4.0464   -7.3153    2.7459 C   0  0  0  0  0  0  0  0  0  0  0  0
    1.9315   -7.9656    3.8517 C   0  0  1  0  0  0  0  0  0  0  0  0
    1.8165   -9.4646    3.4025 C   0  0  0  0  0  0  0  0  0  0  0  0
    0.9550  -10.3100    4.3554 C   0  0  0  0  0  0  0  0  0  0  0  0
    0.4398  -11.3516    3.9734 O   0  0  0  0  0  0  0  0  0  0  0  0
    0.7929   -9.7396    5.7067 C   0  0  0  0  0  0  0  0  0  0  0  0
    0.0440  -10.1868    6.8138 C   0  0  0  0  0  0  0  0  0  0  0  0
    0.2418   -9.3795    7.8552 N   0  0  0  0  0  0  0  0  0  0  0  0
    1.1727   -8.4056    7.4386 O   0  0  0  0  0  0  0  0  0  0  0  0
    1.4475   -8.6395    6.1220 C   0  0  0  0  0  0  0  0  0  0  0  0
    2.4309   -7.8042    5.3481 C   0  0  1  0  0  0  0  0  0  0  0  0
    3.8369   -8.4072    5.6344 C   0  0  0  0  0  0  0  0  0  0  0  0
    2.4508   -6.3070    5.7741 C   0  0  0  0  0  0  0  0  0  0  0  0
    2.8692   -5.2803    4.6867 C   0  0  0  0  0  0  0  0  0  0  0  0
    2.1579   -5.4713    3.3045 C   0  0  1  0  0  0  0  0  0  0  0  0
    0.6172   -5.3023    3.6295 C   0  0  0  0  0  0  0  0  0  0  0  0
    4.5685   -4.3088    0.3877 C   0  0  1  0  0  0  0  0  0  0  0  0
    5.0307   -5.5789   -0.4011 C   0  0  0  0  0  0  0  0  0  0  0  0
    5.2761   -4.2624    1.7698 C   0  0  0  0  0  0  0  0  0  0  0  0
    5.2939   -2.9626    2.5995 C   0  0  0  0  0  0  0  0  0  0  0  0
    3.9934   -2.2005    2.8905 C   0  0  1  0  0  0  0  0  0  0  0  0
    4.2619   -1.2826    4.0981 C   0  0  0  0  0  0  0  0  0  0  0  0
    8.0468   -3.5880    0.5438 H   0  0  0  0  0  0  0  0  0  0  0  0
    8.6567   -4.0809   -1.0365 H   0  0  0  0  0  0  0  0  0  0  0  0
    7.6538   -5.0832   -0.2054 H   0  0  0  0  0  0  0  0  0  0  0  0
    7.4007   -1.2811   -0.4676 H   0  0  0  0  0  0  0  0  0  0  0  0
    6.9658   -1.4842   -2.2385 H   0  0  0  0  0  0  0  0  0  0  0  0
    8.4854   -2.0372   -1.5954 H   0  0  0  0  0  0  0  0  0  0  0  0
    6.1238   -4.5503   -2.3945 H   0  0  0  0  0  0  0  0  0  0  0  0
    4.4948   -3.1452   -1.4327 H   0  0  0  0  0  0  0  0  0  0  0  0
    5.6430   -1.1529    0.4912 H   0  0  0  0  0  0  0  0  0  0  0  0
    4.1079   -0.8035   -1.8353 H   0  0  0  0  0  0  0  0  0  0  0  0
    2.8511   -0.7153   -0.1408 H   0  0  0  0  0  0  0  0  0  0  0  0
    2.1807   -2.9212    3.9036 H   0  0  0  0  0  0  0  0  0  0  0  0
    1.4204   -4.1381    1.8376 H   0  0  0  0  0  0  0  0  0  0  0  0
    2.4269   -4.1720   -1.4522 H   0  0  0  0  0  0  0  0  0  0  0  0
    2.2309   -2.7385   -0.4830 H   0  0  0  0  0  0  0  0  0  0  0  0
    1.1190   -4.0062   -0.4719 H   0  0  0  0  0  0  0  0  0  0  0  0
    1.3965   -5.9538   -0.1339 H   0  0  0  0  0  0  0  0  0  0  0  0
    2.8620   -6.4783   -0.4170 H   0  0  0  0  0  0  0  0  0  0  0  0
    0.8650   -7.0923    1.4989 H   0  0  0  0  0  0  0  0  0  0  0  0
    2.1738   -8.0849    1.0246 H   0  0  0  0  0  0  0  0  0  0  0  0
    4.6697   -6.9066    3.5286 H   0  0  0  0  0  0  0  0  0  0  0  0
    4.5191   -6.9969    1.8470 H   0  0  0  0  0  0  0  0  0  0  0  0
    4.2048   -8.3907    2.7494 H   0  0  0  0  0  0  0  0  0  0  0  0
    0.8714   -7.7303    3.8719 H   0  0  0  0  0  0  0  0  0  0  0  0
    1.3558   -9.5480    2.4167 H   0  0  0  0  0  0  0  0  0  0  0  0
    2.7872   -9.9442    3.3377 H   0  0  0  0  0  0  0  0  0  0  0  0
   -0.5802  -11.0581    6.8971 H   0  0  0  0  0  0  0  0  0  0  0  0
    4.6564   -7.7231    5.4155 H   0  0  0  0  0  0  0  0  0  0  0  0
    4.0173   -9.3339    5.0907 H   0  0  0  0  0  0  0  0  0  0  0  0
    3.9529   -8.6424    6.6940 H   0  0  0  0  0  0  0  0  0  0  0  0
    1.4716   -6.0303    6.1615 H   0  0  0  0  0  0  0  0  0  0  0  0
    3.1013   -6.1827    6.6387 H   0  0  0  0  0  0  0  0  0  0  0  0
    2.6495   -4.3237    5.1392 H   0  0  0  0  0  0  0  0  0  0  0  0
    3.9476   -5.2591    4.5657 H   0  0  0  0  0  0  0  0  0  0  0  0
    0.2363   -5.8779    4.4656 H   0  0  0  0  0  0  0  0  0  0  0  0
   -0.0098   -5.5730    2.7853 H   0  0  0  0  0  0  0  0  0  0  0  0
    0.3716   -4.2710    3.8954 H   0  0  0  0  0  0  0  0  0  0  0  0
    4.7411   -6.5271   -0.0277 H   0  0  0  0  0  0  0  0  0  0  0  0
    6.0513   -5.8202   -0.3499 H   0  0  0  0  0  0  0  0  0  0  0  0
    4.7233   -5.5342   -1.4351 H   0  0  0  0  0  0  0  0  0  0  0  0
    4.8439   -4.9993    2.4178 H   0  0  0  0  0  0  0  0  0  0  0  0
    6.2995   -4.5957    1.6692 H   0  0  0  0  0  0  0  0  0  0  0  0
    5.6849   -3.2922    3.5664 H   0  0  0  0  0  0  0  0  0  0  0  0
    6.0625   -2.2978    2.2315 H   0  0  0  0  0  0  0  0  0  0  0  0
    4.4211   -1.8917    4.9972 H   0  0  0  0  0  0  0  0  0  0  0  0
    3.4253   -0.6158    4.3256 H   0  0  0  0  0  0  0  0  0  0  0  0
    5.1432   -0.6695    3.9464 H   0  0  0  0  0  0  0  0  0  0  0  0
  1  2  1  0
  1 41  1  0
  1 42  1  0
  1 43  1  0
  2  3  1  0
  2  4  1  0
  2  5  1  0
  3 44  1  0
  3 45  1  0
  3 46  1  0
  4 47  1  0
  5 35  1  0
  5  6  1  0
  5 48  1  6
  6  7  1  0
  6  8  1  0
  6 49  1  1
  7 50  1  0
  8  9  2  3
  8 51  1  0
  9 39  1  0
  9 10  1  0
 10 11  2  0
 10 12  1  0
 12 39  1  0
 12 13  1  0
 12 52  1  1
 13 33  1  0
 13 14  1  0
 13 53  1  6
 14 15  1  6
 14 16  1  0
 14 35  1  0
 15 54  1  0
 15 55  1  0
 15 56  1  0
 16 17  1  0
 16 57  1  0
 16 58  1  0
 17 18  1  0
 17 59  1  0
 17 60  1  0
 18 33  1  0
 18 19  1  6
 18 20  1  0
 19 61  1  0
 19 62  1  0
 19 63  1  0
 20 29  1  0
 20 21  1  0
 20 64  1  1
 21 22  1  0
 21 65  1  0
 21 66  1  0
 22 23  2  0
 22 24  1  0
 24 28  2  0
 24 25  1  0
 25 26  2  0
 25 67  1  0
 26 27  1  0
 27 28  1  0
 28 29  1  0
 29 30  1  6
 29 31  1  0
 30 68  1  0
 30 69  1  0
 30 70  1  0
 31 32  1  0
 31 71  1  0
 31 72  1  0
 32 33  1  0
 32 73  1  0
 32 74  1  0
 33 34  1  1
 34 75  1  0
 34 76  1  0
 34 77  1  0
 35 36  1  6
 35 37  1  0
 36 78  1  0
 36 79  1  0
 36 80  1  0
 37 38  1  0
 37 81  1  0
 37 82  1  0
 38 39  1  0
 38 83  1  0
 38 84  1  0
 39 40  1  1
 40 85  1  0
 40 86  1  0
 40 87  1  0
M  END
>  <i_m_ct_stereo_status>  (170) 
1

>  <s_m_source_file>  (170) 
/var/tmp/pbs.5076255.sched01/tmp5gbx45fw/500pp51iot.sdf

>  <i_m_source_file_index>  (170) 
18

>  <i_lp_mmshare_version>  (170) 
48012

>  <i_f3d_flags>  (170) 
0

>  <s_epik_input>  (170) 
W0NIMl0xW0NIMl1DMihbQ0gzXSlbQ0BIXShDKFtDSDNdKShbQ0gzXSlbT0hdKVtDQEBIXShbT0hdKS9bQ0hdPUMoL0MzPU8pW0NAQF0xKFtDSDNdKVtDQEBIXTNbQ0BASF0oW0NAQF0yNFtDSDNdKVtDQEBdNShbQ0gzXSlbQ0BdKFtDSDNdKShbQ0gyXVtDSDJdNClbQ0BASF02W0NAQF0oW0NIM10pKFtDSDJdW0NIMl01KWM3YyhDKD1PKVtDSDJdNilbY0hdbm83

>  <s_epik_cmdline>  (170) 
J2VwaWtfcHl0aG9uJywgJy1waHQnLCAnMi4wJywgJy1waCcsICc3LjAnLCAnLXRuJywgJzgnLCAnLW1hJywgJzIwMCcsICctaW1hZScsICc8aW5maWxlLm1hZT4nLCAnLW9tYWUnLCAnPG91dGZpbGUubWFlPic=

>  <r_lp_tautomer_probability>  (170) 
1

>  <r_epik_Ionization_Penalty>  (170) 
2.19546e-07

>  <r_epik_Ionization_Penalty_Charging>  (170) 
0

>  <r_epik_Ionization_Penalty_Neutral>  (170) 
2.19546e-07

>  <r_epik_State_Penalty>  (170) 
-0

>  <r_epik_Charging_Adjusted_Penalty>  (170) 
0

>  <i_epik_Tot_Q>  (170) 
0

>  <i_epik_Tot_abs_Q>  (170) 
0

>  <s_lp_Force_Field>  (170) 
OPLS3e

>  <r_lp_Energy>  (170) 
199.769

>  <b_lp_Chiralities_Consistent>  (170) 
1

>  <s_lp_Variant>  (170) 
40:0-1

>  <s_i_glide_gridfile>  (170) 
pfpi4k_grid

>  <i_i_glide_lignum>  (170) 
18

>  <i_i_glide_rotatable_bonds>  (170) 
3

>  <r_i_docking_score>  (170) 
0.0319191

>  <r_i_glide_ligand_efficiency>  (170) 
0.000797978

>  <r_i_glide_ligand_efficiency_sa>  (170) 
0.00272905

>  <r_i_glide_ligand_efficiency_ln>  (170) 
0.00680741

>  <r_i_glide_gscore>  (170) 
0.0319191

>  <r_i_glide_lipo>  (170) 
-0.362232

>  <r_i_glide_hbond>  (170) 
0

>  <r_i_glide_metal>  (170) 
-0

>  <r_i_glide_rewards>  (170) 
0

>  <r_i_glide_evdw>  (170) 
-0.854764

>  <r_i_glide_ecoul>  (170) 
-0.624013

>  <r_i_glide_erotb>  (170) 
0.0685912

>  <r_i_glide_esite>  (170) 
-0.18265

>  <r_i_glide_emodel>  (170) 
7.30162

>  <r_i_glide_energy>  (170) 
-1.47878

>  <r_i_glide_einternal>  (170) 
7.03653

>  <r_i_glide_intrahb_reward>  (170) 
-0

>  <i_i_glide_confnum>  (170) 
4

>  <i_i_glide_posenum>  (170) 
11

>  <r_i_glide_eff_state_penalty>  (170) 
0

>  <ligand_id>  (170) 
40

>  <original_smiles>  (170) 
CC(C)(O)C1C(O)C=C2C(=O)C3C4C(C)(CCC5(C)C6CC(=O)c7cnoc7C6(C)CCC45C)C1(C)CCC23C

>  <smiles>  (170) 
[H]OC1([H])C([H])=C2C(=O)C3([H])C4([H])C(C([H])([H])[H])(C([H])([H])C([H])([H])C5(C([H])([H])[H])C6([H])C([H])([H])C(=O)c7c([H])noc7C6(C([H])([H])[H])C([H])([H])C([H])([H])C45C([H])([H])[H])C(C([H])([H])[H])(C([H])([H])C([H])([H])C23C([H])([H])[H])C1([H])C(O[H])(C([H])([H])[H])C([H])([H])[H]

$$$$
40:1:0
     RDKit          3D

 87 93  0  0  1  0  0  0  0  0999 V2000
    4.0939  -12.6379    3.5587 C   0  0  0  0  0  0  0  0  0  0  0  0
    5.3348  -11.7226    3.3246 C   0  0  0  0  0  0  0  0  0  0  0  0
    6.4518  -12.0605    4.3596 C   0  0  0  0  0  0  0  0  0  0  0  0
    5.8624  -12.3209    2.1392 O   0  0  0  0  0  0  0  0  0  0  0  0
    4.9517  -10.1742    3.0398 C   0  0  2  0  0  0  0  0  0  0  0  0
    5.7960   -9.5509    1.8593 C   0  0  1  0  0  0  0  0  0  0  0  0
    4.9933   -8.8074    0.9498 O   0  0  0  0  0  0  0  0  0  0  0  0
    7.0390   -8.8353    2.3760 C   0  0  0  0  0  0  0  0  0  0  0  0
    7.2003   -7.5364    2.5593 C   0  0  0  0  0  0  0  0  0  0  0  0
    6.4980   -6.4516    1.9093 C   0  0  0  0  0  0  0  0  0  0  0  0
    6.5932   -5.9748    0.7981 O   0  0  0  0  0  0  0  0  0  0  0  0
    5.8320   -6.1236    3.2506 C   0  0  1  0  0  0  0  0  0  0  0  0
    4.3207   -6.5563    3.1863 C   0  0  1  0  0  0  0  0  0  0  0  0
    3.7783   -7.8191    4.0550 C   0  0  2  0  0  0  0  0  0  0  0  0
    2.4877   -8.3638    3.3543 C   0  0  0  0  0  0  0  0  0  0  0  0
    3.3112   -7.2072    5.4238 C   0  0  0  0  0  0  0  0  0  0  0  0
    2.4919   -5.9013    5.4153 C   0  0  0  0  0  0  0  0  0  0  0  0
    3.1305   -4.7306    4.6353 C   0  0  2  0  0  0  0  0  0  0  0  0
    4.4055   -4.3388    5.4340 C   0  0  0  0  0  0  0  0  0  0  0  0
    2.1660   -3.4925    4.5911 C   0  0  1  0  0  0  0  0  0  0  0  0
    1.5090   -3.0669    5.9447 C   0  0  0  0  0  0  0  0  0  0  0  0
    0.3533   -2.0635    5.7635 C   0  0  0  0  0  0  0  0  0  0  0  0
   -0.5387   -1.9713    6.5979 O   0  0  0  0  0  0  0  0  0  0  0  0
    0.4283   -1.2541    4.5395 C   0  0  0  0  0  0  0  0  0  0  0  0
   -0.3993   -0.2078    4.0589 C   0  0  0  0  0  0  0  0  0  0  0  0
    0.1203    0.2804    2.9403 N   0  0  0  0  0  0  0  0  0  0  0  0
    1.3153   -0.4208    2.6961 O   0  0  0  0  0  0  0  0  0  0  0  0
    1.4420   -1.3717    3.6559 C   0  0  0  0  0  0  0  0  0  0  0  0
    2.6513   -2.2619    3.7310 C   0  0  1  0  0  0  0  0  0  0  0  0
    3.7821   -1.4285    4.3877 C   0  0  0  0  0  0  0  0  0  0  0  0
    3.1204   -2.7290    2.3312 C   0  0  0  0  0  0  0  0  0  0  0  0
    3.9873   -4.0211    2.3399 C   0  0  0  0  0  0  0  0  0  0  0  0
    3.3996   -5.2355    3.1604 C   0  0  1  0  0  0  0  0  0  0  0  0
    2.0908   -5.5630    2.3620 C   0  0  0  0  0  0  0  0  0  0  0  0
    4.6806   -9.1753    4.3274 C   0  0  1  0  0  0  0  0  0  0  0  0
    3.8640  -10.0312    5.3968 C   0  0  0  0  0  0  0  0  0  0  0  0
    6.0166   -8.9111    5.1287 C   0  0  0  0  0  0  0  0  0  0  0  0
    6.8044   -7.6019    5.1711 C   0  0  0  0  0  0  0  0  0  0  0  0
    7.0682   -6.8053    3.9071 C   0  0  1  0  0  0  0  0  0  0  0  0
    8.3015   -5.9129    4.1738 C   0  0  0  0  0  0  0  0  0  0  0  0
    3.4966  -12.4446    4.4534 H   0  0  0  0  0  0  0  0  0  0  0  0
    4.4155  -13.6712    3.6829 H   0  0  0  0  0  0  0  0  0  0  0  0
    3.3899  -12.6221    2.7197 H   0  0  0  0  0  0  0  0  0  0  0  0
    6.2422  -11.7554    5.3834 H   0  0  0  0  0  0  0  0  0  0  0  0
    7.4130  -11.6407    4.0300 H   0  0  0  0  0  0  0  0  0  0  0  0
    6.5877  -13.1504    4.4222 H   0  0  0  0  0  0  0  0  0  0  0  0
    5.1814  -12.2549    1.4580 H   0  0  0  0  0  0  0  0  0  0  0  0
    3.9943  -10.3121    2.5415 H   0  0  0  0  0  0  0  0  0  0  0  0
    6.2301  -10.2783    1.1855 H   0  0  0  0  0  0  0  0  0  0  0  0
    4.3730   -9.4001    0.5452 H   0  0  0  0  0  0  0  0  0  0  0  0
    7.6448   -9.4706    3.0063 H   0  0  0  0  0  0  0  0  0  0  0  0
    5.9820   -5.0873    3.5119 H   0  0  0  0  0  0  0  0  0  0  0  0
    4.1586   -6.9048    2.1679 H   0  0  0  0  0  0  0  0  0  0  0  0
    2.2995   -9.4276    3.4309 H   0  0  0  0  0  0  0  0  0  0  0  0
    2.4914   -8.2103    2.2797 H   0  0  0  0  0  0  0  0  0  0  0  0
    1.5821   -7.9452    3.7809 H   0  0  0  0  0  0  0  0  0  0  0  0
    2.6242   -7.8817    5.9273 H   0  0  0  0  0  0  0  0  0  0  0  0
    4.1522   -7.1068    6.1051 H   0  0  0  0  0  0  0  0  0  0  0  0
    1.4883   -6.1082    5.0526 H   0  0  0  0  0  0  0  0  0  0  0  0
    2.3528   -5.6236    6.4601 H   0  0  0  0  0  0  0  0  0  0  0  0
    5.0752   -3.6889    4.8908 H   0  0  0  0  0  0  0  0  0  0  0  0
    5.0158   -5.1922    5.7000 H   0  0  0  0  0  0  0  0  0  0  0  0
    4.1574   -3.8389    6.3702 H   0  0  0  0  0  0  0  0  0  0  0  0
    1.2927   -3.8666    4.0594 H   0  0  0  0  0  0  0  0  0  0  0  0
    1.0677   -3.9304    6.4336 H   0  0  0  0  0  0  0  0  0  0  0  0
    2.2353   -2.6464    6.6421 H   0  0  0  0  0  0  0  0  0  0  0  0
   -1.3104    0.2130    4.4599 H   0  0  0  0  0  0  0  0  0  0  0  0
    4.7757   -1.7919    4.1440 H   0  0  0  0  0  0  0  0  0  0  0  0
    3.6948   -1.3906    5.4722 H   0  0  0  0  0  0  0  0  0  0  0  0
    3.7654   -0.3952    4.0349 H   0  0  0  0  0  0  0  0  0  0  0  0
    2.2644   -2.8397    1.6697 H   0  0  0  0  0  0  0  0  0  0  0  0
    3.6871   -1.9259    1.8609 H   0  0  0  0  0  0  0  0  0  0  0  0
    4.1754   -4.3372    1.3113 H   0  0  0  0  0  0  0  0  0  0  0  0
    4.9503   -3.6903    2.7068 H   0  0  0  0  0  0  0  0  0  0  0  0
    1.5376   -4.6945    2.0322 H   0  0  0  0  0  0  0  0  0  0  0  0
    1.3487   -6.1080    2.9263 H   0  0  0  0  0  0  0  0  0  0  0  0
    2.3083   -6.1199    1.4501 H   0  0  0  0  0  0  0  0  0  0  0  0
    3.7384   -9.5000    6.3443 H   0  0  0  0  0  0  0  0  0  0  0  0
    4.3456  -10.9371    5.7272 H   0  0  0  0  0  0  0  0  0  0  0  0
    2.8566  -10.3240    5.0903 H   0  0  0  0  0  0  0  0  0  0  0  0
    5.8478   -9.1123    6.1809 H   0  0  0  0  0  0  0  0  0  0  0  0
    6.7697   -9.6452    4.8798 H   0  0  0  0  0  0  0  0  0  0  0  0
    6.3105   -6.9429    5.8749 H   0  0  0  0  0  0  0  0  0  0  0  0
    7.7633   -7.8225    5.6548 H   0  0  0  0  0  0  0  0  0  0  0  0
    8.1034   -5.2233    4.9978 H   0  0  0  0  0  0  0  0  0  0  0  0
    8.5984   -5.3248    3.3019 H   0  0  0  0  0  0  0  0  0  0  0  0
    9.1728   -6.5075    4.4506 H   0  0  0  0  0  0  0  0  0  0  0  0
  1  2  1  0
  1 41  1  0
  1 42  1  0
  1 43  1  0
  2  3  1  0
  2  4  1  0
  2  5  1  0
  3 44  1  0
  3 45  1  0
  3 46  1  0
  4 47  1  0
  5 35  1  0
  5  6  1  0
  5 48  1  6
  6  7  1  0
  6  8  1  0
  6 49  1  6
  7 50  1  0
  8  9  2  3
  8 51  1  0
  9 39  1  0
  9 10  1  0
 10 11  2  0
 10 12  1  0
 12 39  1  0
 12 13  1  0
 12 52  1  1
 13 33  1  0
 13 14  1  0
 13 53  1  6
 14 15  1  6
 14 16  1  0
 14 35  1  0
 15 54  1  0
 15 55  1  0
 15 56  1  0
 16 17  1  0
 16 57  1  0
 16 58  1  0
 17 18  1  0
 17 59  1  0
 17 60  1  0
 18 33  1  0
 18 19  1  1
 18 20  1  0
 19 61  1  0
 19 62  1  0
 19 63  1  0
 20 29  1  0
 20 21  1  0
 20 64  1  6
 21 22  1  0
 21 65  1  0
 21 66  1  0
 22 23  2  0
 22 24  1  0
 24 28  2  0
 24 25  1  0
 25 26  2  0
 25 67  1  0
 26 27  1  0
 27 28  1  0
 28 29  1  0
 29 30  1  1
 29 31  1  0
 30 68  1  0
 30 69  1  0
 30 70  1  0
 31 32  1  0
 31 71  1  0
 31 72  1  0
 32 33  1  0
 32 73  1  0
 32 74  1  0
 33 34  1  6
 34 75  1  0
 34 76  1  0
 34 77  1  0
 35 36  1  1
 35 37  1  0
 36 78  1  0
 36 79  1  0
 36 80  1  0
 37 38  1  0
 37 81  1  0
 37 82  1  0
 38 39  1  0
 38 83  1  0
 38 84  1  0
 39 40  1  1
 40 85  1  0
 40 86  1  0
 40 87  1  0
M  END
>  <i_m_ct_stereo_status>  (171) 
1

>  <s_m_source_file>  (171) 
/var/tmp/pbs.5076255.sched01/tmp5gbx45fw/500pp51iot.sdf

>  <i_m_source_file_index>  (171) 
19

>  <i_lp_mmshare_version>  (171) 
48012

>  <i_f3d_flags>  (171) 
0

>  <s_epik_input>  (171) 
W0NIMl0xW0NIMl1DMihbQ0gzXSlbQ0BIXShDKFtDSDNdKShbQ0gzXSlbT0hdKVtDQEBIXShbT0hdKS9bQ0hdPUMoL0MzPU8pW0NAQF0xKFtDSDNdKVtDQEBIXTNbQ0BASF0oW0NAQF0yNFtDSDNdKVtDQEBdNShbQ0gzXSlbQ0BdKFtDSDNdKShbQ0gyXVtDSDJdNClbQ0BASF02W0NAQF0oW0NIM10pKFtDSDJdW0NIMl01KWM3YyhDKD1PKVtDSDJdNilbY0hdbm83

>  <s_epik_cmdline>  (171) 
J2VwaWtfcHl0aG9uJywgJy1waHQnLCAnMi4wJywgJy1waCcsICc3LjAnLCAnLXRuJywgJzgnLCAnLW1hJywgJzIwMCcsICctaW1hZScsICc8aW5maWxlLm1hZT4nLCAnLW9tYWUnLCAnPG91dGZpbGUubWFlPic=

>  <r_lp_tautomer_probability>  (171) 
1

>  <r_epik_Ionization_Penalty>  (171) 
2.19546e-07

>  <r_epik_Ionization_Penalty_Charging>  (171) 
0

>  <r_epik_Ionization_Penalty_Neutral>  (171) 
2.19546e-07

>  <r_epik_State_Penalty>  (171) 
-0

>  <r_epik_Charging_Adjusted_Penalty>  (171) 
0

>  <i_epik_Tot_Q>  (171) 
0

>  <i_epik_Tot_abs_Q>  (171) 
0

>  <s_lp_Force_Field>  (171) 
OPLS3e

>  <r_lp_Energy>  (171) 
194.421

>  <b_lp_Chiralities_Consistent>  (171) 
1

>  <s_lp_Variant>  (171) 
40:0-2

>  <s_i_glide_gridfile>  (171) 
pfpi4k_grid

>  <i_i_glide_lignum>  (171) 
19

>  <i_i_glide_rotatable_bonds>  (171) 
3

>  <r_i_docking_score>  (171) 
-2.70668

>  <r_i_glide_ligand_efficiency>  (171) 
-0.0676671

>  <r_i_glide_ligand_efficiency_sa>  (171) 
-0.231418

>  <r_i_glide_ligand_efficiency_ln>  (171) 
-0.577256

>  <r_i_glide_gscore>  (171) 
-2.70668

>  <r_i_glide_lipo>  (171) 
-0.1177

>  <r_i_glide_hbond>  (171) 
-0.16

>  <r_i_glide_metal>  (171) 
-0

>  <r_i_glide_rewards>  (171) 
-0.0764502

>  <r_i_glide_evdw>  (171) 
-22.029

>  <r_i_glide_ecoul>  (171) 
-8.27738

>  <r_i_glide_erotb>  (171) 
0.0685912

>  <r_i_glide_esite>  (171) 
-0.0780687

>  <r_i_glide_emodel>  (171) 
-34.6012

>  <r_i_glide_energy>  (171) 
-30.3064

>  <r_i_glide_einternal>  (171) 
1.29719

>  <r_i_glide_intrahb_reward>  (171) 
-0

>  <i_i_glide_confnum>  (171) 
4

>  <i_i_glide_posenum>  (171) 
39

>  <r_i_glide_eff_state_penalty>  (171) 
0

>  <ligand_id>  (171) 
40

>  <original_smiles>  (171) 
CC(C)(O)C1C(O)C=C2C(=O)C3C4C(C)(CCC5(C)C6CC(=O)c7cnoc7C6(C)CCC45C)C1(C)CCC23C

>  <smiles>  (171) 
[H]OC1([H])C([H])=C2C(=O)C3([H])C4([H])C(C([H])([H])[H])(C([H])([H])C([H])([H])C5(C([H])([H])[H])C6([H])C([H])([H])C(=O)c7c([H])noc7C6(C([H])([H])[H])C([H])([H])C([H])([H])C45C([H])([H])[H])C(C([H])([H])[H])(C([H])([H])C([H])([H])C23C([H])([H])[H])C1([H])C(O[H])(C([H])([H])[H])C([H])([H])[H]

$$$$
40:1:1
     RDKit          3D

 87 93  0  0  1  0  0  0  0  0999 V2000
    0.4394  -11.2209    5.3570 C   0  0  0  0  0  0  0  0  0  0  0  0
    0.7848   -9.7516    5.6562 C   0  0  0  0  0  0  0  0  0  0  0  0
   -0.5811   -9.1232    6.0980 C   0  0  0  0  0  0  0  0  0  0  0  0
    1.5699   -9.8484    6.8375 O   0  0  0  0  0  0  0  0  0  0  0  0
    1.4883   -8.9560    4.4366 C   0  0  2  0  0  0  0  0  0  0  0  0
    2.1646   -9.9381    3.4093 C   0  0  1  0  0  0  0  0  0  0  0  0
    1.8051   -9.6102    2.0827 O   0  0  0  0  0  0  0  0  0  0  0  0
    3.6419  -10.1236    3.6816 C   0  0  0  0  0  0  0  0  0  0  0  0
    4.6462   -9.4929    3.0636 C   0  0  0  0  0  0  0  0  0  0  0  0
    4.6203   -8.9000    1.7595 C   0  0  0  0  0  0  0  0  0  0  0  0
    4.6079   -9.3652    0.6359 O   0  0  0  0  0  0  0  0  0  0  0  0
    4.7577   -7.5296    2.3852 C   0  0  1  0  0  0  0  0  0  0  0  0
    3.3856   -6.7794    2.2095 C   0  0  1  0  0  0  0  0  0  0  0  0
    2.4357   -6.4810    3.4962 C   0  0  2  0  0  0  0  0  0  0  0  0
    0.9651   -6.3000    2.9842 C   0  0  0  0  0  0  0  0  0  0  0  0
    2.8820   -5.0735    4.0327 C   0  0  0  0  0  0  0  0  0  0  0  0
    3.1366   -3.9470    3.0083 C   0  0  0  0  0  0  0  0  0  0  0  0
    4.1228   -4.3111    1.8741 C   0  0  2  0  0  0  0  0  0  0  0  0
    5.5120   -4.4715    2.5436 C   0  0  0  0  0  0  0  0  0  0  0  0
    4.2288   -3.1539    0.8323 C   0  0  1  0  0  0  0  0  0  0  0  0
    4.4483   -1.7495    1.4300 C   0  0  0  0  0  0  0  0  0  0  0  0
    4.2076   -0.6585    0.4134 C   0  0  0  0  0  0  0  0  0  0  0  0
    3.8673    0.4156    0.8871 O   0  0  0  0  0  0  0  0  0  0  0  0
    4.4104   -1.0378   -1.0284 C   0  0  0  0  0  0  0  0  0  0  0  0
    4.3489   -0.3192   -2.2810 C   0  0  0  0  0  0  0  0  0  0  0  0
    4.6056   -1.1703   -3.2847 N   0  0  0  0  0  0  0  0  0  0  0  0
    5.0208   -2.3897   -2.7000 O   0  0  0  0  0  0  0  0  0  0  0  0
    4.8142   -2.2815   -1.3626 C   0  0  0  0  0  0  0  0  0  0  0  0
    5.1358   -3.3999   -0.4303 C   0  0  1  0  0  0  0  0  0  0  0  0
    6.6607   -3.3498   -0.1771 C   0  0  0  0  0  0  0  0  0  0  0  0
    4.7433   -4.7316   -1.0484 C   0  0  0  0  0  0  0  0  0  0  0  0
    4.5494   -5.9034   -0.0512 C   0  0  0  0  0  0  0  0  0  0  0  0
    3.5753   -5.5928    1.1438 C   0  0  1  0  0  0  0  0  0  0  0  0
    2.2144   -5.3626    0.4079 C   0  0  0  0  0  0  0  0  0  0  0  0
    2.3043   -7.5530    4.7432 C   0  0  1  0  0  0  0  0  0  0  0  0
    1.5041   -6.8077    5.8822 C   0  0  0  0  0  0  0  0  0  0  0  0
    3.6361   -7.8375    5.5367 C   0  0  0  0  0  0  0  0  0  0  0  0
    5.0472   -7.7151    4.9649 C   0  0  0  0  0  0  0  0  0  0  0  0
    5.3897   -8.2632    3.5993 C   0  0  1  0  0  0  0  0  0  0  0  0
    6.9154   -8.4886    3.5530 C   0  0  0  0  0  0  0  0  0  0  0  0
   -0.1424  -11.3481    4.4315 H   0  0  0  0  0  0  0  0  0  0  0  0
   -0.2186  -11.6161    6.1091 H   0  0  0  0  0  0  0  0  0  0  0  0
    1.2989  -11.8645    5.3104 H   0  0  0  0  0  0  0  0  0  0  0  0
   -1.2654   -9.0337    5.2670 H   0  0  0  0  0  0  0  0  0  0  0  0
   -0.5153   -8.1394    6.5387 H   0  0  0  0  0  0  0  0  0  0  0  0
   -1.0517   -9.7289    6.8704 H   0  0  0  0  0  0  0  0  0  0  0  0
    1.4699  -10.7211    7.1729 H   0  0  0  0  0  0  0  0  0  0  0  0
    0.5896   -8.6768    3.8975 H   0  0  0  0  0  0  0  0  0  0  0  0
    1.7654  -10.9366    3.4231 H   0  0  0  0  0  0  0  0  0  0  0  0
    2.1469  -10.2810    1.5082 H   0  0  0  0  0  0  0  0  0  0  0  0
    3.8183  -10.4109    4.6986 H   0  0  0  0  0  0  0  0  0  0  0  0
    5.6008   -6.9982    1.9761 H   0  0  0  0  0  0  0  0  0  0  0  0
    2.7512   -7.4407    1.6232 H   0  0  0  0  0  0  0  0  0  0  0  0
    0.1779   -6.6166    3.6559 H   0  0  0  0  0  0  0  0  0  0  0  0
    0.7658   -6.8717    2.0817 H   0  0  0  0  0  0  0  0  0  0  0  0
    0.7174   -5.2603    2.8092 H   0  0  0  0  0  0  0  0  0  0  0  0
    2.1102   -4.6465    4.6654 H   0  0  0  0  0  0  0  0  0  0  0  0
    3.7482   -5.1697    4.6793 H   0  0  0  0  0  0  0  0  0  0  0  0
    2.1926   -3.5924    2.6019 H   0  0  0  0  0  0  0  0  0  0  0  0
    3.5159   -3.0947    3.5739 H   0  0  0  0  0  0  0  0  0  0  0  0
    6.2544   -4.9327    1.9082 H   0  0  0  0  0  0  0  0  0  0  0  0
    5.4802   -5.0996    3.4224 H   0  0  0  0  0  0  0  0  0  0  0  0
    5.9170   -3.5133    2.8685 H   0  0  0  0  0  0  0  0  0  0  0  0
    3.2182   -3.0446    0.4327 H   0  0  0  0  0  0  0  0  0  0  0  0
    3.7015   -1.5281    2.1916 H   0  0  0  0  0  0  0  0  0  0  0  0
    5.4323   -1.5812    1.8715 H   0  0  0  0  0  0  0  0  0  0  0  0
    4.1777    0.6955   -2.5347 H   0  0  0  0  0  0  0  0  0  0  0  0
    7.0582   -4.3183    0.1112 H   0  0  0  0  0  0  0  0  0  0  0  0
    6.9280   -2.6251    0.5914 H   0  0  0  0  0  0  0  0  0  0  0  0
    7.2041   -3.0735   -1.0836 H   0  0  0  0  0  0  0  0  0  0  0  0
    3.8651   -4.5314   -1.6356 H   0  0  0  0  0  0  0  0  0  0  0  0
    5.4414   -5.0085   -1.8156 H   0  0  0  0  0  0  0  0  0  0  0  0
    4.2079   -6.7781   -0.6019 H   0  0  0  0  0  0  0  0  0  0  0  0
    5.5558   -6.1584    0.2522 H   0  0  0  0  0  0  0  0  0  0  0  0
    2.2600   -4.7943   -0.5127 H   0  0  0  0  0  0  0  0  0  0  0  0
    1.5248   -4.7943    1.0001 H   0  0  0  0  0  0  0  0  0  0  0  0
    1.7371   -6.2978    0.1236 H   0  0  0  0  0  0  0  0  0  0  0  0
    1.9927   -5.9217    6.2772 H   0  0  0  0  0  0  0  0  0  0  0  0
    1.4306   -7.4032    6.7858 H   0  0  0  0  0  0  0  0  0  0  0  0
    0.5016   -6.4835    5.6282 H   0  0  0  0  0  0  0  0  0  0  0  0
    3.7004   -7.1747    6.3968 H   0  0  0  0  0  0  0  0  0  0  0  0
    3.5815   -8.7994    6.0303 H   0  0  0  0  0  0  0  0  0  0  0  0
    5.2999   -6.6653    4.9519 H   0  0  0  0  0  0  0  0  0  0  0  0
    5.7255   -8.1327    5.7065 H   0  0  0  0  0  0  0  0  0  0  0  0
    7.4384   -7.5433    3.6959 H   0  0  0  0  0  0  0  0  0  0  0  0
    7.2613   -8.9006    2.6005 H   0  0  0  0  0  0  0  0  0  0  0  0
    7.2414   -9.1685    4.3389 H   0  0  0  0  0  0  0  0  0  0  0  0
  1  2  1  0
  1 41  1  0
  1 42  1  0
  1 43  1  0
  2  3  1  0
  2  4  1  0
  2  5  1  0
  3 44  1  0
  3 45  1  0
  3 46  1  0
  4 47  1  0
  5 35  1  0
  5  6  1  0
  5 48  1  6
  6  7  1  0
  6  8  1  0
  6 49  1  1
  7 50  1  0
  8  9  2  3
  8 51  1  0
  9 39  1  0
  9 10  1  0
 10 11  2  0
 10 12  1  0
 12 39  1  0
 12 13  1  0
 12 52  1  6
 13 33  1  0
 13 14  1  0
 13 53  1  6
 14 15  1  6
 14 16  1  0
 14 35  1  0
 15 54  1  0
 15 55  1  0
 15 56  1  0
 16 17  1  0
 16 57  1  0
 16 58  1  0
 17 18  1  0
 17 59  1  0
 17 60  1  0
 18 33  1  0
 18 19  1  1
 18 20  1  0
 19 61  1  0
 19 62  1  0
 19 63  1  0
 20 29  1  0
 20 21  1  0
 20 64  1  6
 21 22  1  0
 21 65  1  0
 21 66  1  0
 22 23  2  0
 22 24  1  0
 24 28  2  0
 24 25  1  0
 25 26  2  0
 25 67  1  0
 26 27  1  0
 27 28  1  0
 28 29  1  0
 29 30  1  1
 29 31  1  0
 30 68  1  0
 30 69  1  0
 30 70  1  0
 31 32  1  0
 31 71  1  0
 31 72  1  0
 32 33  1  0
 32 73  1  0
 32 74  1  0
 33 34  1  6
 34 75  1  0
 34 76  1  0
 34 77  1  0
 35 36  1  1
 35 37  1  0
 36 78  1  0
 36 79  1  0
 36 80  1  0
 37 38  1  0
 37 81  1  0
 37 82  1  0
 38 39  1  0
 38 83  1  0
 38 84  1  0
 39 40  1  6
 40 85  1  0
 40 86  1  0
 40 87  1  0
M  END
>  <i_m_ct_stereo_status>  (172) 
1

>  <s_m_source_file>  (172) 
/var/tmp/pbs.5076255.sched01/tmp5gbx45fw/500pp51iot.sdf

>  <i_m_source_file_index>  (172) 
19

>  <i_lp_mmshare_version>  (172) 
48012

>  <i_f3d_flags>  (172) 
0

>  <s_epik_input>  (172) 
W0NIMl0xW0NIMl1DMihbQ0gzXSlbQ0BIXShDKFtDSDNdKShbQ0gzXSlbT0hdKVtDQEBIXShbT0hdKS9bQ0hdPUMoL0MzPU8pW0NAQF0xKFtDSDNdKVtDQEBIXTNbQ0BASF0oW0NAQF0yNFtDSDNdKVtDQEBdNShbQ0gzXSlbQ0BdKFtDSDNdKShbQ0gyXVtDSDJdNClbQ0BASF02W0NAQF0oW0NIM10pKFtDSDJdW0NIMl01KWM3YyhDKD1PKVtDSDJdNilbY0hdbm83

>  <s_epik_cmdline>  (172) 
J2VwaWtfcHl0aG9uJywgJy1waHQnLCAnMi4wJywgJy1waCcsICc3LjAnLCAnLXRuJywgJzgnLCAnLW1hJywgJzIwMCcsICctaW1hZScsICc8aW5maWxlLm1hZT4nLCAnLW9tYWUnLCAnPG91dGZpbGUubWFlPic=

>  <r_lp_tautomer_probability>  (172) 
1

>  <r_epik_Ionization_Penalty>  (172) 
2.19546e-07

>  <r_epik_Ionization_Penalty_Charging>  (172) 
0

>  <r_epik_Ionization_Penalty_Neutral>  (172) 
2.19546e-07

>  <r_epik_State_Penalty>  (172) 
-0

>  <r_epik_Charging_Adjusted_Penalty>  (172) 
0

>  <i_epik_Tot_Q>  (172) 
0

>  <i_epik_Tot_abs_Q>  (172) 
0

>  <s_lp_Force_Field>  (172) 
OPLS3e

>  <r_lp_Energy>  (172) 
194.421

>  <b_lp_Chiralities_Consistent>  (172) 
1

>  <s_lp_Variant>  (172) 
40:0-2

>  <s_i_glide_gridfile>  (172) 
pfpi4k_grid

>  <i_i_glide_lignum>  (172) 
19

>  <i_i_glide_rotatable_bonds>  (172) 
3

>  <r_i_docking_score>  (172) 
-2.65266

>  <r_i_glide_ligand_efficiency>  (172) 
-0.0663164

>  <r_i_glide_ligand_efficiency_sa>  (172) 
-0.226799

>  <r_i_glide_ligand_efficiency_ln>  (172) 
-0.565733

>  <r_i_glide_gscore>  (172) 
-2.65266

>  <r_i_glide_lipo>  (172) 
-0.339788

>  <r_i_glide_hbond>  (172) 
-0.16

>  <r_i_glide_metal>  (172) 
-0

>  <r_i_glide_rewards>  (172) 
-0.112108

>  <r_i_glide_evdw>  (172) 
-22.5218

>  <r_i_glide_ecoul>  (172) 
-6.36711

>  <r_i_glide_erotb>  (172) 
0.0685912

>  <r_i_glide_esite>  (172) 
-0.0281916

>  <r_i_glide_emodel>  (172) 
-32.8811

>  <r_i_glide_energy>  (172) 
-28.889

>  <r_i_glide_einternal>  (172) 
1.54231

>  <r_i_glide_intrahb_reward>  (172) 
-0

>  <i_i_glide_confnum>  (172) 
4

>  <i_i_glide_posenum>  (172) 
4

>  <r_i_glide_eff_state_penalty>  (172) 
0

>  <ligand_id>  (172) 
40

>  <original_smiles>  (172) 
CC(C)(O)C1C(O)C=C2C(=O)C3C4C(C)(CCC5(C)C6CC(=O)c7cnoc7C6(C)CCC45C)C1(C)CCC23C

>  <smiles>  (172) 
[H]OC1([H])C([H])=C2C(=O)C3([H])C4([H])C(C([H])([H])[H])(C([H])([H])C([H])([H])C5(C([H])([H])[H])C6([H])C([H])([H])C(=O)c7c([H])noc7C6(C([H])([H])[H])C([H])([H])C([H])([H])C45C([H])([H])[H])C(C([H])([H])[H])(C([H])([H])C([H])([H])C23C([H])([H])[H])C1([H])C(O[H])(C([H])([H])[H])C([H])([H])[H]

$$$$
40:1:2
     RDKit          3D

 87 93  0  0  1  0  0  0  0  0999 V2000
    3.8296  -12.2984    3.9677 C   0  0  0  0  0  0  0  0  0  0  0  0
    2.9739  -11.2673    4.7576 C   0  0  0  0  0  0  0  0  0  0  0  0
    1.5302  -11.8282    4.5892 C   0  0  0  0  0  0  0  0  0  0  0  0
    3.4231  -11.4993    6.0773 O   0  0  0  0  0  0  0  0  0  0  0  0
    3.1499   -9.7150    4.3363 C   0  0  2  0  0  0  0  0  0  0  0  0
    4.5397   -9.4390    3.6330 C   0  0  1  0  0  0  0  0  0  0  0  0
    4.3743   -8.6770    2.4496 O   0  0  0  0  0  0  0  0  0  0  0  0
    5.5838   -8.9274    4.6173 C   0  0  0  0  0  0  0  0  0  0  0  0
    5.9670   -7.6439    4.7985 C   0  0  0  0  0  0  0  0  0  0  0  0
    5.8101   -6.5720    3.8782 C   0  0  0  0  0  0  0  0  0  0  0  0
    6.4632   -6.2603    2.8642 O   0  0  0  0  0  0  0  0  0  0  0  0
    4.7543   -5.9271    4.7754 C   0  0  1  0  0  0  0  0  0  0  0  0
    3.3598   -6.0640    4.0748 C   0  0  1  0  0  0  0  0  0  0  0  0
    2.2266   -7.0698    4.6773 C   0  0  2  0  0  0  0  0  0  0  0  0
    1.2492   -7.4549    3.5017 C   0  0  0  0  0  0  0  0  0  0  0  0
    1.3722   -6.2123    5.6705 C   0  0  0  0  0  0  0  0  0  0  0  0
    0.9626   -4.7789    5.2467 C   0  0  0  0  0  0  0  0  0  0  0  0
    2.1196   -3.8660    4.7775 C   0  0  2  0  0  0  0  0  0  0  0  0
    2.9986   -3.6195    6.0414 C   0  0  0  0  0  0  0  0  0  0  0  0
    1.5841   -2.4830    4.2648 C   0  0  1  0  0  0  0  0  0  0  0  0
    0.5348   -1.7542    5.1803 C   0  0  0  0  0  0  0  0  0  0  0  0
   -0.1691   -0.5837    4.4724 C   0  0  0  0  0  0  0  0  0  0  0  0
   -1.2832   -0.2195    4.8497 O   0  0  0  0  0  0  0  0  0  0  0  0
    0.6134    0.0250    3.3763 C   0  0  0  0  0  0  0  0  0  0  0  0
    0.3030    1.1275    2.5217 C   0  0  0  0  0  0  0  0  0  0  0  0
    1.3483    1.3473    1.7239 N   0  0  0  0  0  0  0  0  0  0  0  0
    2.3449    0.3988    2.0634 O   0  0  0  0  0  0  0  0  0  0  0  0
    1.8316   -0.4103    3.0353 C   0  0  0  0  0  0  0  0  0  0  0  0
    2.6512   -1.4884    3.6589 C   0  0  1  0  0  0  0  0  0  0  0  0
    3.5673   -0.8116    4.7172 C   0  0  0  0  0  0  0  0  0  0  0  0
    3.5460   -2.2286    2.6323 C   0  0  0  0  0  0  0  0  0  0  0  0
    4.0023   -3.6523    3.0704 C   0  0  0  0  0  0  0  0  0  0  0  0
    2.8636   -4.6090    3.6038 C   0  0  1  0  0  0  0  0  0  0  0  0
    1.9741   -4.7855    2.3177 C   0  0  0  0  0  0  0  0  0  0  0  0
    2.6180   -8.5271    5.3523 C   0  0  1  0  0  0  0  0  0  0  0  0
    1.2991   -9.0662    6.0276 C   0  0  0  0  0  0  0  0  0  0  0  0
    3.5048   -8.4358    6.6549 C   0  0  0  0  0  0  0  0  0  0  0  0
    4.4749   -7.3038    6.9827 C   0  0  0  0  0  0  0  0  0  0  0  0
    5.4044   -6.7276    5.9413 C   0  0  1  0  0  0  0  0  0  0  0  0
    6.5801   -6.0667    6.6772 C   0  0  0  0  0  0  0  0  0  0  0  0
    3.6247  -12.2677    2.8963 H   0  0  0  0  0  0  0  0  0  0  0  0
    3.6188  -13.3195    4.2952 H   0  0  0  0  0  0  0  0  0  0  0  0
    4.9028  -12.1995    4.1265 H   0  0  0  0  0  0  0  0  0  0  0  0
    1.1925  -11.7347    3.5545 H   0  0  0  0  0  0  0  0  0  0  0  0
    0.7401  -11.4169    5.2008 H   0  0  0  0  0  0  0  0  0  0  0  0
    1.4889  -12.8796    4.8755 H   0  0  0  0  0  0  0  0  0  0  0  0
    2.7175  -11.9155    6.5828 H   0  0  0  0  0  0  0  0  0  0  0  0
    2.4846   -9.7081    3.4823 H   0  0  0  0  0  0  0  0  0  0  0  0
    4.9998  -10.3248    3.2134 H   0  0  0  0  0  0  0  0  0  0  0  0
    4.0828   -9.2561    1.7690 H   0  0  0  0  0  0  0  0  0  0  0  0
    5.6612   -9.5730    5.4847 H   0  0  0  0  0  0  0  0  0  0  0  0
    5.0198   -4.9148    5.0374 H   0  0  0  0  0  0  0  0  0  0  0  0
    3.5608   -6.5167    3.1196 H   0  0  0  0  0  0  0  0  0  0  0  0
    0.8011   -8.4403    3.5428 H   0  0  0  0  0  0  0  0  0  0  0  0
    1.7358   -7.4453    2.5265 H   0  0  0  0  0  0  0  0  0  0  0  0
    0.3732   -6.8101    3.4582 H   0  0  0  0  0  0  0  0  0  0  0  0
    0.4112   -6.6835    5.8633 H   0  0  0  0  0  0  0  0  0  0  0  0
    1.8558   -6.1705    6.6441 H   0  0  0  0  0  0  0  0  0  0  0  0
    0.1854   -4.8330    4.4863 H   0  0  0  0  0  0  0  0  0  0  0  0
    0.4631   -4.3358    6.1069 H   0  0  0  0  0  0  0  0  0  0  0  0
    3.9683   -3.1903    5.8227 H   0  0  0  0  0  0  0  0  0  0  0  0
    3.2293   -4.5279    6.5846 H   0  0  0  0  0  0  0  0  0  0  0  0
    2.5104   -2.9571    6.7540 H   0  0  0  0  0  0  0  0  0  0  0  0
    0.9551   -2.7488    3.4160 H   0  0  0  0  0  0  0  0  0  0  0  0
   -0.2585   -2.4448    5.4583 H   0  0  0  0  0  0  0  0  0  0  0  0
    0.9852   -1.3958    6.1009 H   0  0  0  0  0  0  0  0  0  0  0  0
   -0.5600    1.7600    2.4662 H   0  0  0  0  0  0  0  0  0  0  0  0
    4.4594   -1.3870    4.9461 H   0  0  0  0  0  0  0  0  0  0  0  0
    3.0457   -0.6146    5.6531 H   0  0  0  0  0  0  0  0  0  0  0  0
    3.9378    0.1484    4.3572 H   0  0  0  0  0  0  0  0  0  0  0  0
    3.0473   -2.2654    1.6650 H   0  0  0  0  0  0  0  0  0  0  0  0
    4.4297   -1.6236    2.4237 H   0  0  0  0  0  0  0  0  0  0  0  0
    4.5257   -4.1307    2.2448 H   0  0  0  0  0  0  0  0  0  0  0  0
    4.7756   -3.4612    3.8079 H   0  0  0  0  0  0  0  0  0  0  0  0
    1.8272   -3.8848    1.7336 H   0  0  0  0  0  0  0  0  0  0  0  0
    0.9572   -5.0919    2.5186 H   0  0  0  0  0  0  0  0  0  0  0  0
    2.4112   -5.4941    1.6143 H   0  0  0  0  0  0  0  0  0  0  0  0
    0.8791   -8.4361    6.8051 H   0  0  0  0  0  0  0  0  0  0  0  0
    1.4873   -9.9744    6.6026 H   0  0  0  0  0  0  0  0  0  0  0  0
    0.4680   -9.2707    5.3530 H   0  0  0  0  0  0  0  0  0  0  0  0
    2.8791   -8.4351    7.5467 H   0  0  0  0  0  0  0  0  0  0  0  0
    4.0559   -9.3541    6.8050 H   0  0  0  0  0  0  0  0  0  0  0  0
    3.8833   -6.4679    7.3623 H   0  0  0  0  0  0  0  0  0  0  0  0
    5.0429   -7.6212    7.8553 H   0  0  0  0  0  0  0  0  0  0  0  0
    6.2057   -5.2424    7.3016 H   0  0  0  0  0  0  0  0  0  0  0  0
    7.3249   -5.6260    6.0093 H   0  0  0  0  0  0  0  0  0  0  0  0
    7.1023   -6.7549    7.3366 H   0  0  0  0  0  0  0  0  0  0  0  0
  1  2  1  0
  1 41  1  0
  1 42  1  0
  1 43  1  0
  2  3  1  0
  2  4  1  0
  2  5  1  0
  3 44  1  0
  3 45  1  0
  3 46  1  0
  4 47  1  0
  5 35  1  0
  5  6  1  0
  5 48  1  6
  6  7  1  0
  6  8  1  0
  6 49  1  6
  7 50  1  0
  8  9  2  3
  8 51  1  0
  9 39  1  0
  9 10  1  0
 10 11  2  0
 10 12  1  0
 12 39  1  0
 12 13  1  0
 12 52  1  1
 13 33  1  0
 13 14  1  0
 13 53  1  6
 14 15  1  6
 14 16  1  0
 14 35  1  0
 15 54  1  0
 15 55  1  0
 15 56  1  0
 16 17  1  0
 16 57  1  0
 16 58  1  0
 17 18  1  0
 17 59  1  0
 17 60  1  0
 18 33  1  0
 18 19  1  1
 18 20  1  0
 19 61  1  0
 19 62  1  0
 19 63  1  0
 20 29  1  0
 20 21  1  0
 20 64  1  6
 21 22  1  0
 21 65  1  0
 21 66  1  0
 22 23  2  0
 22 24  1  0
 24 28  2  0
 24 25  1  0
 25 26  2  0
 25 67  1  0
 26 27  1  0
 27 28  1  0
 28 29  1  0
 29 30  1  1
 29 31  1  0
 30 68  1  0
 30 69  1  0
 30 70  1  0
 31 32  1  0
 31 71  1  0
 31 72  1  0
 32 33  1  0
 32 73  1  0
 32 74  1  0
 33 34  1  6
 34 75  1  0
 34 76  1  0
 34 77  1  0
 35 36  1  1
 35 37  1  0
 36 78  1  0
 36 79  1  0
 36 80  1  0
 37 38  1  0
 37 81  1  0
 37 82  1  0
 38 39  1  0
 38 83  1  0
 38 84  1  0
 39 40  1  1
 40 85  1  0
 40 86  1  0
 40 87  1  0
M  END
>  <i_m_ct_stereo_status>  (173) 
1

>  <s_m_source_file>  (173) 
/var/tmp/pbs.5076255.sched01/tmp5gbx45fw/500pp51iot.sdf

>  <i_m_source_file_index>  (173) 
19

>  <i_lp_mmshare_version>  (173) 
48012

>  <i_f3d_flags>  (173) 
0

>  <s_epik_input>  (173) 
W0NIMl0xW0NIMl1DMihbQ0gzXSlbQ0BIXShDKFtDSDNdKShbQ0gzXSlbT0hdKVtDQEBIXShbT0hdKS9bQ0hdPUMoL0MzPU8pW0NAQF0xKFtDSDNdKVtDQEBIXTNbQ0BASF0oW0NAQF0yNFtDSDNdKVtDQEBdNShbQ0gzXSlbQ0BdKFtDSDNdKShbQ0gyXVtDSDJdNClbQ0BASF02W0NAQF0oW0NIM10pKFtDSDJdW0NIMl01KWM3YyhDKD1PKVtDSDJdNilbY0hdbm83

>  <s_epik_cmdline>  (173) 
J2VwaWtfcHl0aG9uJywgJy1waHQnLCAnMi4wJywgJy1waCcsICc3LjAnLCAnLXRuJywgJzgnLCAnLW1hJywgJzIwMCcsICctaW1hZScsICc8aW5maWxlLm1hZT4nLCAnLW9tYWUnLCAnPG91dGZpbGUubWFlPic=

>  <r_lp_tautomer_probability>  (173) 
1

>  <r_epik_Ionization_Penalty>  (173) 
2.19546e-07

>  <r_epik_Ionization_Penalty_Charging>  (173) 
0

>  <r_epik_Ionization_Penalty_Neutral>  (173) 
2.19546e-07

>  <r_epik_State_Penalty>  (173) 
-0

>  <r_epik_Charging_Adjusted_Penalty>  (173) 
0

>  <i_epik_Tot_Q>  (173) 
0

>  <i_epik_Tot_abs_Q>  (173) 
0

>  <s_lp_Force_Field>  (173) 
OPLS3e

>  <r_lp_Energy>  (173) 
194.421

>  <b_lp_Chiralities_Consistent>  (173) 
1

>  <s_lp_Variant>  (173) 
40:0-2

>  <s_i_glide_gridfile>  (173) 
pfpi4k_grid

>  <i_i_glide_lignum>  (173) 
19

>  <i_i_glide_rotatable_bonds>  (173) 
3

>  <r_i_docking_score>  (173) 
-2.12518

>  <r_i_glide_ligand_efficiency>  (173) 
-0.0531294

>  <r_i_glide_ligand_efficiency_sa>  (173) 
-0.1817

>  <r_i_glide_ligand_efficiency_ln>  (173) 
-0.453237

>  <r_i_glide_gscore>  (173) 
-2.12518

>  <r_i_glide_lipo>  (173) 
-0.00648771

>  <r_i_glide_hbond>  (173) 
-0.16

>  <r_i_glide_metal>  (173) 
-0

>  <r_i_glide_rewards>  (173) 
0

>  <r_i_glide_evdw>  (173) 
-23.8148

>  <r_i_glide_ecoul>  (173) 
-4.99449

>  <r_i_glide_erotb>  (173) 
0.0685912

>  <r_i_glide_esite>  (173) 
-0.0873638

>  <r_i_glide_emodel>  (173) 
-31.8521

>  <r_i_glide_energy>  (173) 
-28.8093

>  <r_i_glide_einternal>  (173) 
1.99081

>  <r_i_glide_intrahb_reward>  (173) 
-0

>  <i_i_glide_confnum>  (173) 
5

>  <i_i_glide_posenum>  (173) 
38

>  <r_i_glide_eff_state_penalty>  (173) 
0

>  <ligand_id>  (173) 
40

>  <original_smiles>  (173) 
CC(C)(O)C1C(O)C=C2C(=O)C3C4C(C)(CCC5(C)C6CC(=O)c7cnoc7C6(C)CCC45C)C1(C)CCC23C

>  <smiles>  (173) 
[H]OC1([H])C([H])=C2C(=O)C3([H])C4([H])C(C([H])([H])[H])(C([H])([H])C([H])([H])C5(C([H])([H])[H])C6([H])C([H])([H])C(=O)c7c([H])noc7C6(C([H])([H])[H])C([H])([H])C([H])([H])C45C([H])([H])[H])C(C([H])([H])[H])(C([H])([H])C([H])([H])C23C([H])([H])[H])C1([H])C(O[H])(C([H])([H])[H])C([H])([H])[H]

$$$$
40:2:0
     RDKit          3D

 87 93  0  0  1  0  0  0  0  0999 V2000
    3.2606  -12.0519    3.3471 C   0  0  0  0  0  0  0  0  0  0  0  0
    3.1430  -10.5378    3.6300 C   0  0  0  0  0  0  0  0  0  0  0  0
    1.6735  -10.1243    3.4342 C   0  0  0  0  0  0  0  0  0  0  0  0
    3.4081  -10.4759    5.0211 O   0  0  0  0  0  0  0  0  0  0  0  0
    4.1195   -9.6874    2.7032 C   0  0  2  0  0  0  0  0  0  0  0  0
    5.7307  -10.0537    2.8555 C   0  0  1  0  0  0  0  0  0  0  0  0
    6.0248  -11.1971    2.0724 O   0  0  0  0  0  0  0  0  0  0  0  0
    6.8227   -8.9192    2.5201 C   0  0  0  0  0  0  0  0  0  0  0  0
    6.9422   -7.5687    2.8123 C   0  0  0  0  0  0  0  0  0  0  0  0
    6.9669   -6.5222    1.7839 C   0  0  0  0  0  0  0  0  0  0  0  0
    7.6277   -6.3994    0.7519 O   0  0  0  0  0  0  0  0  0  0  0  0
    5.9115   -5.6613    2.5902 C   0  0  1  0  0  0  0  0  0  0  0  0
    4.3268   -5.5113    2.1662 C   0  0  1  0  0  0  0  0  0  0  0  0
    3.2134   -6.7243    2.4270 C   0  0  2  0  0  0  0  0  0  0  0  0
    2.2062   -6.8873    1.2345 C   0  0  0  0  0  0  0  0  0  0  0  0
    2.2328   -6.2977    3.5842 C   0  0  0  0  0  0  0  0  0  0  0  0
    1.6952   -4.8410    3.5363 C   0  0  0  0  0  0  0  0  0  0  0  0
    2.8032   -3.7514    3.5366 C   0  0  2  0  0  0  0  0  0  0  0  0
    3.5078   -3.8210    4.9295 C   0  0  0  0  0  0  0  0  0  0  0  0
    2.1851   -2.3026    3.4286 C   0  0  1  0  0  0  0  0  0  0  0  0
    1.0089   -1.9560    4.4069 C   0  0  0  0  0  0  0  0  0  0  0  0
    0.2783   -0.6532    4.0341 C   0  0  0  0  0  0  0  0  0  0  0  0
   -0.8839   -0.4676    4.3957 O   0  0  0  0  0  0  0  0  0  0  0  0
    1.0806    0.3014    3.2507 C   0  0  0  0  0  0  0  0  0  0  0  0
    0.7702    1.5832    2.7315 C   0  0  0  0  0  0  0  0  0  0  0  0
    1.8445    2.0998    2.1509 N   0  0  0  0  0  0  0  0  0  0  0  0
    2.8821    1.1555    2.2933 O   0  0  0  0  0  0  0  0  0  0  0  0
    2.3714    0.0646    2.9173 C   0  0  0  0  0  0  0  0  0  0  0  0
    3.2219   -1.1141    3.2850 C   0  0  1  0  0  0  0  0  0  0  0  0
    3.9728   -0.7417    4.5901 C   0  0  0  0  0  0  0  0  0  0  0  0
    4.2867   -1.4355    2.2067 C   0  0  0  0  0  0  0  0  0  0  0  0
    4.8281   -2.8895    2.2609 C   0  0  0  0  0  0  0  0  0  0  0  0
    3.7345   -4.0113    2.2641 C   0  0  1  0  0  0  0  0  0  0  0  0
    2.9637   -3.7757    0.9064 C   0  0  0  0  0  0  0  0  0  0  0  0
    4.0841   -8.0797    2.6141 C   0  0  2  0  0  0  0  0  0  0  0  0
    4.6041   -8.1869    1.0547 C   0  0  0  0  0  0  0  0  0  0  0  0
    4.5663   -7.9620    4.1592 C   0  0  0  0  0  0  0  0  0  0  0  0
    5.3603   -6.8537    4.7395 C   0  0  0  0  0  0  0  0  0  0  0  0
    6.4214   -6.4715    3.8151 C   0  0  1  0  0  0  0  0  0  0  0  0
    7.5792   -5.8404    4.6048 C   0  0  0  0  0  0  0  0  0  0  0  0
    3.0137  -12.3041    2.3187 H   0  0  0  0  0  0  0  0  0  0  0  0
    2.5838  -12.6237    3.9834 H   0  0  0  0  0  0  0  0  0  0  0  0
    4.2594  -12.4369    3.5511 H   0  0  0  0  0  0  0  0  0  0  0  0
    1.3988  -10.0968    2.3795 H   0  0  0  0  0  0  0  0  0  0  0  0
    1.4789   -9.1434    3.8593 H   0  0  0  0  0  0  0  0  0  0  0  0
    0.9901  -10.8222    3.9223 H   0  0  0  0  0  0  0  0  0  0  0  0
    2.7962  -11.0430    5.4753 H   0  0  0  0  0  0  0  0  0  0  0  0
    3.7926  -10.1277    1.7595 H   0  0  0  0  0  0  0  0  0  0  0  0
    5.9617  -10.4071    3.8570 H   0  0  0  0  0  0  0  0  0  0  0  0
    5.2695  -11.4242    1.5276 H   0  0  0  0  0  0  0  0  0  0  0  0
    7.2927   -9.1593    1.5727 H   0  0  0  0  0  0  0  0  0  0  0  0
    6.3699   -4.6818    2.6650 H   0  0  0  0  0  0  0  0  0  0  0  0
    4.4539   -5.5350    1.0943 H   0  0  0  0  0  0  0  0  0  0  0  0
    1.8281   -7.9111    1.1612 H   0  0  0  0  0  0  0  0  0  0  0  0
    2.6581   -6.6109    0.2815 H   0  0  0  0  0  0  0  0  0  0  0  0
    1.3062   -6.2844    1.3127 H   0  0  0  0  0  0  0  0  0  0  0  0
    1.3745   -6.9672    3.5908 H   0  0  0  0  0  0  0  0  0  0  0  0
    2.6329   -6.4066    4.5775 H   0  0  0  0  0  0  0  0  0  0  0  0
    1.0190   -4.6939    2.6996 H   0  0  0  0  0  0  0  0  0  0  0  0
    1.0564   -4.7181    4.4111 H   0  0  0  0  0  0  0  0  0  0  0  0
    4.5929   -3.8161    4.8723 H   0  0  0  0  0  0  0  0  0  0  0  0
    3.2172   -4.6755    5.5333 H   0  0  0  0  0  0  0  0  0  0  0  0
    3.2253   -3.0000    5.5834 H   0  0  0  0  0  0  0  0  0  0  0  0
    1.6392   -2.3178    2.4892 H   0  0  0  0  0  0  0  0  0  0  0  0
    0.2557   -2.7391    4.3810 H   0  0  0  0  0  0  0  0  0  0  0  0
    1.3518   -1.8745    5.4376 H   0  0  0  0  0  0  0  0  0  0  0  0
   -0.1437    2.1563    2.7831 H   0  0  0  0  0  0  0  0  0  0  0  0
    4.7284   -1.4723    4.8670 H   0  0  0  0  0  0  0  0  0  0  0  0
    3.2939   -0.6220    5.4340 H   0  0  0  0  0  0  0  0  0  0  0  0
    4.5023    0.2054    4.4794 H   0  0  0  0  0  0  0  0  0  0  0  0
    3.8986   -1.2182    1.2135 H   0  0  0  0  0  0  0  0  0  0  0  0
    5.1254   -0.7450    2.3068 H   0  0  0  0  0  0  0  0  0  0  0  0
    5.5075   -3.0405    1.4193 H   0  0  0  0  0  0  0  0  0  0  0  0
    5.4545   -2.9502    3.1483 H   0  0  0  0  0  0  0  0  0  0  0  0
    2.6254   -2.7597    0.7237 H   0  0  0  0  0  0  0  0  0  0  0  0
    2.0681   -4.3719    0.8092 H   0  0  0  0  0  0  0  0  0  0  0  0
    3.5847   -3.9953    0.0368 H   0  0  0  0  0  0  0  0  0  0  0  0
    5.2957   -8.9541    0.7276 H   0  0  0  0  0  0  0  0  0  0  0  0
    3.7918   -8.5202    0.4177 H   0  0  0  0  0  0  0  0  0  0  0  0
    4.9419   -7.3202    0.5182 H   0  0  0  0  0  0  0  0  0  0  0  0
    3.6917   -8.0580    4.7851 H   0  0  0  0  0  0  0  0  0  0  0  0
    5.1139   -8.7645    4.6259 H   0  0  0  0  0  0  0  0  0  0  0  0
    4.7363   -5.9990    4.9222 H   0  0  0  0  0  0  0  0  0  0  0  0
    5.7599   -7.1381    5.7147 H   0  0  0  0  0  0  0  0  0  0  0  0
    7.2260   -4.9556    5.1390 H   0  0  0  0  0  0  0  0  0  0  0  0
    8.3991   -5.5126    3.9599 H   0  0  0  0  0  0  0  0  0  0  0  0
    7.9969   -6.5208    5.3425 H   0  0  0  0  0  0  0  0  0  0  0  0
  1  2  1  0
  1 41  1  0
  1 42  1  0
  1 43  1  0
  2  3  1  0
  2  4  1  0
  2  5  1  0
  3 44  1  0
  3 45  1  0
  3 46  1  0
  4 47  1  0
  5 35  1  0
  5  6  1  0
  5 48  1  6
  6  7  1  0
  6  8  1  0
  6 49  1  1
  7 50  1  0
  8  9  2  3
  8 51  1  0
  9 39  1  0
  9 10  1  0
 10 11  2  0
 10 12  1  0
 12 39  1  0
 12 13  1  0
 12 52  1  1
 13 33  1  0
 13 14  1  0
 13 53  1  6
 14 15  1  6
 14 16  1  0
 14 35  1  0
 15 54  1  0
 15 55  1  0
 15 56  1  0
 16 17  1  0
 16 57  1  0
 16 58  1  0
 17 18  1  0
 17 59  1  0
 17 60  1  0
 18 33  1  0
 18 19  1  1
 18 20  1  0
 19 61  1  0
 19 62  1  0
 19 63  1  0
 20 29  1  0
 20 21  1  0
 20 64  1  6
 21 22  1  0
 21 65  1  0
 21 66  1  0
 22 23  2  0
 22 24  1  0
 24 28  2  0
 24 25  1  0
 25 26  2  0
 25 67  1  0
 26 27  1  0
 27 28  1  0
 28 29  1  0
 29 30  1  1
 29 31  1  0
 30 68  1  0
 30 69  1  0
 30 70  1  0
 31 32  1  0
 31 71  1  0
 31 72  1  0
 32 33  1  0
 32 73  1  0
 32 74  1  0
 33 34  1  6
 34 75  1  0
 34 76  1  0
 34 77  1  0
 35 36  1  6
 35 37  1  0
 36 78  1  0
 36 79  1  0
 36 80  1  0
 37 38  1  0
 37 81  1  0
 37 82  1  0
 38 39  1  0
 38 83  1  0
 38 84  1  0
 39 40  1  1
 40 85  1  0
 40 86  1  0
 40 87  1  0
M  END
>  <i_m_ct_stereo_status>  (174) 
1

>  <s_m_source_file>  (174) 
/var/tmp/pbs.5076255.sched01/tmp5gbx45fw/500pp51iot.sdf

>  <i_m_source_file_index>  (174) 
20

>  <i_lp_mmshare_version>  (174) 
48012

>  <i_f3d_flags>  (174) 
0

>  <s_epik_input>  (174) 
W0NIMl0xW0NIMl1DMihbQ0gzXSlbQ0BIXShDKFtDSDNdKShbQ0gzXSlbT0hdKVtDQEBIXShbT0hdKS9bQ0hdPUMoL0MzPU8pW0NAQF0xKFtDSDNdKVtDQEBIXTNbQ0BASF0oW0NAQF0yNFtDSDNdKVtDQEBdNShbQ0gzXSlbQ0BdKFtDSDNdKShbQ0gyXVtDSDJdNClbQ0BASF02W0NAQF0oW0NIM10pKFtDSDJdW0NIMl01KWM3YyhDKD1PKVtDSDJdNilbY0hdbm83

>  <s_epik_cmdline>  (174) 
J2VwaWtfcHl0aG9uJywgJy1waHQnLCAnMi4wJywgJy1waCcsICc3LjAnLCAnLXRuJywgJzgnLCAnLW1hJywgJzIwMCcsICctaW1hZScsICc8aW5maWxlLm1hZT4nLCAnLW9tYWUnLCAnPG91dGZpbGUubWFlPic=

>  <r_lp_tautomer_probability>  (174) 
1

>  <r_epik_Ionization_Penalty>  (174) 
2.19546e-07

>  <r_epik_Ionization_Penalty_Charging>  (174) 
0

>  <r_epik_Ionization_Penalty_Neutral>  (174) 
2.19546e-07

>  <r_epik_State_Penalty>  (174) 
-0

>  <r_epik_Charging_Adjusted_Penalty>  (174) 
0

>  <i_epik_Tot_Q>  (174) 
0

>  <i_epik_Tot_abs_Q>  (174) 
0

>  <s_lp_Force_Field>  (174) 
OPLS3e

>  <r_lp_Energy>  (174) 
301.259

>  <b_lp_Chiralities_Consistent>  (174) 
1

>  <s_lp_Variant>  (174) 
40:0-3

>  <s_i_glide_gridfile>  (174) 
pfpi4k_grid

>  <i_i_glide_lignum>  (174) 
20

>  <i_i_glide_rotatable_bonds>  (174) 
3

>  <r_i_docking_score>  (174) 
-2.78328

>  <r_i_glide_ligand_efficiency>  (174) 
-0.0695819

>  <r_i_glide_ligand_efficiency_sa>  (174) 
-0.237967

>  <r_i_glide_ligand_efficiency_ln>  (174) 
-0.593591

>  <r_i_glide_gscore>  (174) 
-2.78328

>  <r_i_glide_lipo>  (174) 
-0.233385

>  <r_i_glide_hbond>  (174) 
-0.16

>  <r_i_glide_metal>  (174) 
-0

>  <r_i_glide_rewards>  (174) 
-0.0872562

>  <r_i_glide_evdw>  (174) 
-28.3018

>  <r_i_glide_ecoul>  (174) 
-6.08474

>  <r_i_glide_erotb>  (174) 
0.0685912

>  <r_i_glide_esite>  (174) 
-0.0434275

>  <r_i_glide_emodel>  (174) 
-39.8013

>  <r_i_glide_energy>  (174) 
-34.3865

>  <r_i_glide_einternal>  (174) 
1.17614

>  <r_i_glide_intrahb_reward>  (174) 
-0

>  <i_i_glide_confnum>  (174) 
1

>  <i_i_glide_posenum>  (174) 
22

>  <r_i_glide_eff_state_penalty>  (174) 
0

>  <ligand_id>  (174) 
40

>  <original_smiles>  (174) 
CC(C)(O)C1C(O)C=C2C(=O)C3C4C(C)(CCC5(C)C6CC(=O)c7cnoc7C6(C)CCC45C)C1(C)CCC23C

>  <smiles>  (174) 
[H]OC1([H])C([H])=C2C(=O)C3([H])C4([H])C(C([H])([H])[H])(C([H])([H])C([H])([H])C5(C([H])([H])[H])C6([H])C([H])([H])C(=O)c7c([H])noc7C6(C([H])([H])[H])C([H])([H])C([H])([H])C45C([H])([H])[H])C(C([H])([H])[H])(C([H])([H])C([H])([H])C23C([H])([H])[H])C1([H])C(O[H])(C([H])([H])[H])C([H])([H])[H]

$$$$
40:2:1
     RDKit          3D

 87 93  0  0  1  0  0  0  0  0999 V2000
    3.9539  -12.6887    3.6320 C   0  0  0  0  0  0  0  0  0  0  0  0
    3.6015  -11.2230    3.9683 C   0  0  0  0  0  0  0  0  0  0  0  0
    2.0748  -11.0575    3.8602 C   0  0  0  0  0  0  0  0  0  0  0  0
    3.9239  -11.1538    5.3466 O   0  0  0  0  0  0  0  0  0  0  0  0
    4.3676  -10.2033    3.0126 C   0  0  2  0  0  0  0  0  0  0  0  0
    6.0188  -10.3609    2.9773 C   0  0  1  0  0  0  0  0  0  0  0  0
    6.3510  -11.3938    2.0597 O   0  0  0  0  0  0  0  0  0  0  0  0
    6.9180   -9.0748    2.6190 C   0  0  0  0  0  0  0  0  0  0  0  0
    6.8953   -7.7375    2.9831 C   0  0  0  0  0  0  0  0  0  0  0  0
    6.6824   -6.6518    2.0168 C   0  0  0  0  0  0  0  0  0  0  0  0
    7.1954   -6.4142    0.9214 O   0  0  0  0  0  0  0  0  0  0  0  0
    5.6146   -5.9764    2.9720 C   0  0  1  0  0  0  0  0  0  0  0  0
    3.9876   -6.0175    2.7109 C   0  0  1  0  0  0  0  0  0  0  0  0
    3.0659   -7.3783    2.9923 C   0  0  2  0  0  0  0  0  0  0  0  0
    1.9739   -7.6138    1.8838 C   0  0  0  0  0  0  0  0  0  0  0  0
    2.1598   -7.1440    4.2619 C   0  0  0  0  0  0  0  0  0  0  0  0
    1.4410   -5.7699    4.3569 C   0  0  0  0  0  0  0  0  0  0  0  0
    2.3973   -4.5446    4.3252 C   0  0  2  0  0  0  0  0  0  0  0  0
    3.2406   -4.5891    5.6395 C   0  0  0  0  0  0  0  0  0  0  0  0
    1.5924   -3.1853    4.3654 C   0  0  1  0  0  0  0  0  0  0  0  0
    0.4834   -3.0447    5.4659 C   0  0  0  0  0  0  0  0  0  0  0  0
   -0.4394   -1.8326    5.2342 C   0  0  0  0  0  0  0  0  0  0  0  0
   -1.5836   -1.8146    5.6887 O   0  0  0  0  0  0  0  0  0  0  0  0
    0.1577   -0.7413    4.4518 C   0  0  0  0  0  0  0  0  0  0  0  0
   -0.3614    0.5126    4.0501 C   0  0  0  0  0  0  0  0  0  0  0  0
    0.5707    1.1975    3.4025 N   0  0  0  0  0  0  0  0  0  0  0  0
    1.7311    0.3948    3.3913 O   0  0  0  0  0  0  0  0  0  0  0  0
    1.4291   -0.7875    3.9869 C   0  0  0  0  0  0  0  0  0  0  0  0
    2.4525   -1.8643    4.2002 C   0  0  1  0  0  0  0  0  0  0  0  0
    3.2755   -1.4627    5.4517 C   0  0  0  0  0  0  0  0  0  0  0  0
    3.4356   -1.9887    3.0099 C   0  0  0  0  0  0  0  0  0  0  0  0
    4.1597   -3.3598    2.9239 C   0  0  0  0  0  0  0  0  0  0  0  0
    3.2238   -4.6155    2.9589 C   0  0  1  0  0  0  0  0  0  0  0  0
    2.2974   -4.4173    1.6987 C   0  0  0  0  0  0  0  0  0  0  0  0
    4.1165   -8.6128    3.0179 C   0  0  2  0  0  0  0  0  0  0  0  0
    4.4805   -8.5784    1.4106 C   0  0  0  0  0  0  0  0  0  0  0  0
    4.7364   -8.5063    4.5143 C   0  0  0  0  0  0  0  0  0  0  0  0
    5.4366   -7.3324    5.0879 C   0  0  0  0  0  0  0  0  0  0  0  0
    6.3435   -6.7674    4.0934 C   0  0  1  0  0  0  0  0  0  0  0  0
    7.4806   -6.0181    4.8100 C   0  0  0  0  0  0  0  0  0  0  0  0
    3.6987  -12.9556    2.6054 H   0  0  0  0  0  0  0  0  0  0  0  0
    3.4190  -13.3762    4.2899 H   0  0  0  0  0  0  0  0  0  0  0  0
    5.0135  -12.8998    3.7769 H   0  0  0  0  0  0  0  0  0  0  0  0
    1.7396  -11.0669    2.8238 H   0  0  0  0  0  0  0  0  0  0  0  0
    1.7393  -10.1269    4.3101 H   0  0  0  0  0  0  0  0  0  0  0  0
    1.5468  -11.8674    4.3678 H   0  0  0  0  0  0  0  0  0  0  0  0
    3.3213  -11.7125    5.8271 H   0  0  0  0  0  0  0  0  0  0  0  0
    4.0017  -10.6384    2.0808 H   0  0  0  0  0  0  0  0  0  0  0  0
    6.3983  -10.7375    3.9249 H   0  0  0  0  0  0  0  0  0  0  0  0
    5.5872  -11.5948    1.5228 H   0  0  0  0  0  0  0  0  0  0  0  0
    7.3179   -9.2011    1.6187 H   0  0  0  0  0  0  0  0  0  0  0  0
    5.9491   -4.9496    3.0681 H   0  0  0  0  0  0  0  0  0  0  0  0
    4.0092   -5.9718    1.6321 H   0  0  0  0  0  0  0  0  0  0  0  0
    1.7212   -8.6740    1.7878 H   0  0  0  0  0  0  0  0  0  0  0  0
    2.2812   -7.2473    0.9025 H   0  0  0  0  0  0  0  0  0  0  0  0
    1.0172   -7.1406    2.0864 H   0  0  0  0  0  0  0  0  0  0  0  0
    1.4028   -7.9251    4.3100 H   0  0  0  0  0  0  0  0  0  0  0  0
    2.6667   -7.2429    5.2063 H   0  0  0  0  0  0  0  0  0  0  0  0
    0.6703   -5.6726    3.5977 H   0  0  0  0  0  0  0  0  0  0  0  0
    0.8832   -5.7767    5.2940 H   0  0  0  0  0  0  0  0  0  0  0  0
    4.3051   -4.4381    5.4823 H   0  0  0  0  0  0  0  0  0  0  0  0
    3.1223   -5.5035    6.2131 H   0  0  0  0  0  0  0  0  0  0  0  0
    2.9232   -3.8464    6.3669 H   0  0  0  0  0  0  0  0  0  0  0  0
    0.9626   -3.2265    3.4812 H   0  0  0  0  0  0  0  0  0  0  0  0
   -0.1606   -3.9200    5.4644 H   0  0  0  0  0  0  0  0  0  0  0  0
    0.9153   -2.9702    6.4637 H   0  0  0  0  0  0  0  0  0  0  0  0
   -1.3338    0.9507    4.2253 H   0  0  0  0  0  0  0  0  0  0  0  0
    4.1412   -2.1001    5.6109 H   0  0  0  0  0  0  0  0  0  0  0  0
    2.6748   -1.4761    6.3607 H   0  0  0  0  0  0  0  0  0  0  0  0
    3.6678   -0.4500    5.3522 H   0  0  0  0  0  0  0  0  0  0  0  0
    2.9274   -1.7730    2.0721 H   0  0  0  0  0  0  0  0  0  0  0  0
    4.1859   -1.1998    3.0758 H   0  0  0  0  0  0  0  0  0  0  0  0
    4.7639   -3.3774    2.0141 H   0  0  0  0  0  0  0  0  0  0  0  0
    4.8750   -3.3811    3.7427 H   0  0  0  0  0  0  0  0  0  0  0  0
    1.8230   -3.4445    1.6160 H   0  0  0  0  0  0  0  0  0  0  0  0
    1.4755   -5.1178    1.6559 H   0  0  0  0  0  0  0  0  0  0  0  0
    2.8495   -4.5109    0.7620 H   0  0  0  0  0  0  0  0  0  0  0  0
    5.2293   -9.2284    0.9749 H   0  0  0  0  0  0  0  0  0  0  0  0
    3.6504   -8.9809    0.8305 H   0  0  0  0  0  0  0  0  0  0  0  0
    4.6569   -7.6490    0.9033 H   0  0  0  0  0  0  0  0  0  0  0  0
    3.9476   -8.7378    5.2132 H   0  0  0  0  0  0  0  0  0  0  0  0
    5.4198   -9.2572    4.8789 H   0  0  0  0  0  0  0  0  0  0  0  0
    4.7292   -6.5803    5.3824 H   0  0  0  0  0  0  0  0  0  0  0  0
    5.9640   -7.6123    6.0021 H   0  0  0  0  0  0  0  0  0  0  0  0
    7.0783   -5.2033    5.4163 H   0  0  0  0  0  0  0  0  0  0  0  0
    8.1889   -5.5666    4.1118 H   0  0  0  0  0  0  0  0  0  0  0  0
    8.0488   -6.6732    5.4667 H   0  0  0  0  0  0  0  0  0  0  0  0
  1  2  1  0
  1 41  1  0
  1 42  1  0
  1 43  1  0
  2  3  1  0
  2  4  1  0
  2  5  1  0
  3 44  1  0
  3 45  1  0
  3 46  1  0
  4 47  1  0
  5 35  1  0
  5  6  1  0
  5 48  1  6
  6  7  1  0
  6  8  1  0
  6 49  1  1
  7 50  1  0
  8  9  2  3
  8 51  1  0
  9 39  1  0
  9 10  1  0
 10 11  2  0
 10 12  1  0
 12 39  1  0
 12 13  1  0
 12 52  1  1
 13 33  1  0
 13 14  1  0
 13 53  1  6
 14 15  1  6
 14 16  1  0
 14 35  1  0
 15 54  1  0
 15 55  1  0
 15 56  1  0
 16 17  1  0
 16 57  1  0
 16 58  1  0
 17 18  1  0
 17 59  1  0
 17 60  1  0
 18 33  1  0
 18 19  1  1
 18 20  1  0
 19 61  1  0
 19 62  1  0
 19 63  1  0
 20 29  1  0
 20 21  1  0
 20 64  1  6
 21 22  1  0
 21 65  1  0
 21 66  1  0
 22 23  2  0
 22 24  1  0
 24 28  2  0
 24 25  1  0
 25 26  2  0
 25 67  1  0
 26 27  1  0
 27 28  1  0
 28 29  1  0
 29 30  1  1
 29 31  1  0
 30 68  1  0
 30 69  1  0
 30 70  1  0
 31 32  1  0
 31 71  1  0
 31 72  1  0
 32 33  1  0
 32 73  1  0
 32 74  1  0
 33 34  1  6
 34 75  1  0
 34 76  1  0
 34 77  1  0
 35 36  1  6
 35 37  1  0
 36 78  1  0
 36 79  1  0
 36 80  1  0
 37 38  1  0
 37 81  1  0
 37 82  1  0
 38 39  1  0
 38 83  1  0
 38 84  1  0
 39 40  1  1
 40 85  1  0
 40 86  1  0
 40 87  1  0
M  END
>  <i_m_ct_stereo_status>  (175) 
1

>  <s_m_source_file>  (175) 
/var/tmp/pbs.5076255.sched01/tmp5gbx45fw/500pp51iot.sdf

>  <i_m_source_file_index>  (175) 
20

>  <i_lp_mmshare_version>  (175) 
48012

>  <i_f3d_flags>  (175) 
0

>  <s_epik_input>  (175) 
W0NIMl0xW0NIMl1DMihbQ0gzXSlbQ0BIXShDKFtDSDNdKShbQ0gzXSlbT0hdKVtDQEBIXShbT0hdKS9bQ0hdPUMoL0MzPU8pW0NAQF0xKFtDSDNdKVtDQEBIXTNbQ0BASF0oW0NAQF0yNFtDSDNdKVtDQEBdNShbQ0gzXSlbQ0BdKFtDSDNdKShbQ0gyXVtDSDJdNClbQ0BASF02W0NAQF0oW0NIM10pKFtDSDJdW0NIMl01KWM3YyhDKD1PKVtDSDJdNilbY0hdbm83

>  <s_epik_cmdline>  (175) 
J2VwaWtfcHl0aG9uJywgJy1waHQnLCAnMi4wJywgJy1waCcsICc3LjAnLCAnLXRuJywgJzgnLCAnLW1hJywgJzIwMCcsICctaW1hZScsICc8aW5maWxlLm1hZT4nLCAnLW9tYWUnLCAnPG91dGZpbGUubWFlPic=

>  <r_lp_tautomer_probability>  (175) 
1

>  <r_epik_Ionization_Penalty>  (175) 
2.19546e-07

>  <r_epik_Ionization_Penalty_Charging>  (175) 
0

>  <r_epik_Ionization_Penalty_Neutral>  (175) 
2.19546e-07

>  <r_epik_State_Penalty>  (175) 
-0

>  <r_epik_Charging_Adjusted_Penalty>  (175) 
0

>  <i_epik_Tot_Q>  (175) 
0

>  <i_epik_Tot_abs_Q>  (175) 
0

>  <s_lp_Force_Field>  (175) 
OPLS3e

>  <r_lp_Energy>  (175) 
301.259

>  <b_lp_Chiralities_Consistent>  (175) 
1

>  <s_lp_Variant>  (175) 
40:0-3

>  <s_i_glide_gridfile>  (175) 
pfpi4k_grid

>  <i_i_glide_lignum>  (175) 
20

>  <i_i_glide_rotatable_bonds>  (175) 
3

>  <r_i_docking_score>  (175) 
-2.73517

>  <r_i_glide_ligand_efficiency>  (175) 
-0.0683792

>  <r_i_glide_ligand_efficiency_sa>  (175) 
-0.233854

>  <r_i_glide_ligand_efficiency_ln>  (175) 
-0.583331

>  <r_i_glide_gscore>  (175) 
-2.73517

>  <r_i_glide_lipo>  (175) 
-0.128691

>  <r_i_glide_hbond>  (175) 
-0.16

>  <r_i_glide_metal>  (175) 
-0

>  <r_i_glide_rewards>  (175) 
-0.0658447

>  <r_i_glide_evdw>  (175) 
-27.2522

>  <r_i_glide_ecoul>  (175) 
-6.89466

>  <r_i_glide_erotb>  (175) 
0.0685912

>  <r_i_glide_esite>  (175) 
-0.0524167

>  <r_i_glide_emodel>  (175) 
-39.2082

>  <r_i_glide_energy>  (175) 
-34.1468

>  <r_i_glide_einternal>  (175) 
1.41722

>  <r_i_glide_intrahb_reward>  (175) 
-0

>  <i_i_glide_confnum>  (175) 
1

>  <i_i_glide_posenum>  (175) 
40

>  <r_i_glide_eff_state_penalty>  (175) 
0

>  <ligand_id>  (175) 
40

>  <original_smiles>  (175) 
CC(C)(O)C1C(O)C=C2C(=O)C3C4C(C)(CCC5(C)C6CC(=O)c7cnoc7C6(C)CCC45C)C1(C)CCC23C

>  <smiles>  (175) 
[H]OC1([H])C([H])=C2C(=O)C3([H])C4([H])C(C([H])([H])[H])(C([H])([H])C([H])([H])C5(C([H])([H])[H])C6([H])C([H])([H])C(=O)c7c([H])noc7C6(C([H])([H])[H])C([H])([H])C([H])([H])C45C([H])([H])[H])C(C([H])([H])[H])(C([H])([H])C([H])([H])C23C([H])([H])[H])C1([H])C(O[H])(C([H])([H])[H])C([H])([H])[H]

$$$$
40:2:2
     RDKit          3D

 87 93  0  0  1  0  0  0  0  0999 V2000
    3.4459  -10.8252    5.4870 C   0  0  0  0  0  0  0  0  0  0  0  0
    2.9335  -10.4636    4.0699 C   0  0  0  0  0  0  0  0  0  0  0  0
    2.4629  -11.7990    3.4357 C   0  0  0  0  0  0  0  0  0  0  0  0
    1.7183   -9.7610    4.2236 O   0  0  0  0  0  0  0  0  0  0  0  0
    3.8825   -9.6728    3.0558 C   0  0  2  0  0  0  0  0  0  0  0  0
    5.4994  -10.0667    3.1737 C   0  0  1  0  0  0  0  0  0  0  0  0
    5.7339  -11.2733    2.4680 O   0  0  0  0  0  0  0  0  0  0  0  0
    6.6001   -8.9594    2.7986 C   0  0  0  0  0  0  0  0  0  0  0  0
    6.7639   -7.6063    3.0683 C   0  0  0  0  0  0  0  0  0  0  0  0
    6.7663   -6.6289    2.0160 C   0  0  0  0  0  0  0  0  0  0  0  0
    7.4048   -6.5882    0.9515 O   0  0  0  0  0  0  0  0  0  0  0  0
    5.7492   -5.7006    2.7874 C   0  0  1  0  0  0  0  0  0  0  0  0
    4.1716   -5.5356    2.3633 C   0  0  1  0  0  0  0  0  0  0  0  0
    3.0323   -6.7125    2.6779 C   0  0  2  0  0  0  0  0  0  0  0  0
    2.0199   -6.9054    1.4884 C   0  0  0  0  0  0  0  0  0  0  0  0
    2.0691   -6.2398    3.8221 C   0  0  0  0  0  0  0  0  0  0  0  0
    1.5565   -4.7725    3.7345 C   0  0  0  0  0  0  0  0  0  0  0  0
    2.6872   -3.7038    3.6883 C   0  0  2  0  0  0  0  0  0  0  0  0
    3.3950   -3.7410    5.0831 C   0  0  0  0  0  0  0  0  0  0  0  0
    2.1034   -2.2539    3.5372 C   0  0  1  0  0  0  0  0  0  0  0  0
    0.9345   -1.8398    4.5103 C   0  0  0  0  0  0  0  0  0  0  0  0
    0.2394   -0.5496    4.0781 C   0  0  0  0  0  0  0  0  0  0  0  0
   -0.9306   -0.3270    4.4495 O   0  0  0  0  0  0  0  0  0  0  0  0
    1.0503    0.3698    3.2667 C   0  0  0  0  0  0  0  0  0  0  0  0
    0.7567    1.6457    2.7114 C   0  0  0  0  0  0  0  0  0  0  0  0
    1.8581    2.1136    2.1147 N   0  0  0  0  0  0  0  0  0  0  0  0
    2.8737    1.1541    2.2905 O   0  0  0  0  0  0  0  0  0  0  0  0
    2.3346    0.0843    2.9436 C   0  0  0  0  0  0  0  0  0  0  0  0
    3.1549   -1.0856    3.3466 C   0  0  1  0  0  0  0  0  0  0  0  0
    3.9261   -0.6848    4.6355 C   0  0  0  0  0  0  0  0  0  0  0  0
    4.2136   -1.4706    2.2790 C   0  0  0  0  0  0  0  0  0  0  0  0
    4.7247   -2.9281    2.3698 C   0  0  0  0  0  0  0  0  0  0  0  0
    3.6069   -4.0248    2.4274 C   0  0  1  0  0  0  0  0  0  0  0  0
    2.8382   -3.8216    1.0646 C   0  0  0  0  0  0  0  0  0  0  0  0
    3.8846   -8.0740    2.8918 C   0  0  2  0  0  0  0  0  0  0  0  0
    4.3737   -8.2518    1.3355 C   0  0  0  0  0  0  0  0  0  0  0  0
    4.3803   -7.9070    4.4253 C   0  0  0  0  0  0  0  0  0  0  0  0
    5.1904   -6.8063    4.9782 C   0  0  0  0  0  0  0  0  0  0  0  0
    6.2515   -6.4659    4.0548 C   0  0  1  0  0  0  0  0  0  0  0  0
    7.4320   -5.8530    4.8074 C   0  0  0  0  0  0  0  0  0  0  0  0
    4.3268  -11.4654    5.4495 H   0  0  0  0  0  0  0  0  0  0  0  0
    2.7105  -11.4050    6.0456 H   0  0  0  0  0  0  0  0  0  0  0  0
    3.6482   -9.9883    6.1466 H   0  0  0  0  0  0  0  0  0  0  0  0
    3.2984  -12.4150    3.0910 H   0  0  0  0  0  0  0  0  0  0  0  0
    1.7988  -11.6579    2.5816 H   0  0  0  0  0  0  0  0  0  0  0  0
    1.9116  -12.3995    4.1629 H   0  0  0  0  0  0  0  0  0  0  0  0
    1.1702  -10.2711    4.7901 H   0  0  0  0  0  0  0  0  0  0  0  0
    3.5193  -10.1214    2.1303 H   0  0  0  0  0  0  0  0  0  0  0  0
    5.8180  -10.3352    4.1687 H   0  0  0  0  0  0  0  0  0  0  0  0
    5.0886  -11.4022    1.7827 H   0  0  0  0  0  0  0  0  0  0  0  0
    7.0816   -9.2660    1.8694 H   0  0  0  0  0  0  0  0  0  0  0  0
    6.2342   -4.7325    2.8467 H   0  0  0  0  0  0  0  0  0  0  0  0
    4.2866   -5.5996    1.2964 H   0  0  0  0  0  0  0  0  0  0  0  0
    1.6215   -7.9225    1.4596 H   0  0  0  0  0  0  0  0  0  0  0  0
    2.4583   -6.6669    0.5186 H   0  0  0  0  0  0  0  0  0  0  0  0
    1.1300   -6.2845    1.5601 H   0  0  0  0  0  0  0  0  0  0  0  0
    1.2086   -6.9128    3.8597 H   0  0  0  0  0  0  0  0  0  0  0  0
    2.4700   -6.3236    4.8201 H   0  0  0  0  0  0  0  0  0  0  0  0
    0.8827   -4.6375    2.8926 H   0  0  0  0  0  0  0  0  0  0  0  0
    0.9268   -4.6066    4.6073 H   0  0  0  0  0  0  0  0  0  0  0  0
    4.4792   -3.7588    5.0200 H   0  0  0  0  0  0  0  0  0  0  0  0
    3.0901   -4.5674    5.7143 H   0  0  0  0  0  0  0  0  0  0  0  0
    3.1326   -2.8921    5.7070 H   0  0  0  0  0  0  0  0  0  0  0  0
    1.5460   -2.2855    2.6032 H   0  0  0  0  0  0  0  0  0  0  0  0
    0.1707   -2.6122    4.5092 H   0  0  0  0  0  0  0  0  0  0  0  0
    1.2833   -1.7334    5.5359 H   0  0  0  0  0  0  0  0  0  0  0  0
   -0.1314    2.2439    2.7404 H   0  0  0  0  0  0  0  0  0  0  0  0
    4.6635   -1.4200    4.9332 H   0  0  0  0  0  0  0  0  0  0  0  0
    3.2523   -0.5213    5.4763 H   0  0  0  0  0  0  0  0  0  0  0  0
    4.4722    0.2461    4.4872 H   0  0  0  0  0  0  0  0  0  0  0  0
    3.8224   -1.2736    1.2807 H   0  0  0  0  0  0  0  0  0  0  0  0
    5.0614   -0.7900    2.3516 H   0  0  0  0  0  0  0  0  0  0  0  0
    5.3971   -3.1237    1.5375 H   0  0  0  0  0  0  0  0  0  0  0  0
    5.3513   -2.9704    3.2616 H   0  0  0  0  0  0  0  0  0  0  0  0
    2.5197   -2.8070    0.8506 H   0  0  0  0  0  0  0  0  0  0  0  0
    1.9315   -4.4034    0.9964 H   0  0  0  0  0  0  0  0  0  0  0  0
    3.4482   -4.0815    0.2012 H   0  0  0  0  0  0  0  0  0  0  0  0
    5.0471   -9.0429    1.0311 H   0  0  0  0  0  0  0  0  0  0  0  0
    3.5452   -8.5905    0.7179 H   0  0  0  0  0  0  0  0  0  0  0  0
    4.7335   -7.4118    0.7696 H   0  0  0  0  0  0  0  0  0  0  0  0
    3.5173   -8.0057    5.0672 H   0  0  0  0  0  0  0  0  0  0  0  0
    4.9990   -8.6632    4.8632 H   0  0  0  0  0  0  0  0  0  0  0  0
    4.5783   -5.9324    5.1472 H   0  0  0  0  0  0  0  0  0  0  0  0
    5.5824   -7.0705    5.9638 H   0  0  0  0  0  0  0  0  0  0  0  0
    7.1070   -4.9296    5.3093 H   0  0  0  0  0  0  0  0  0  0  0  0
    8.2538   -5.5672    4.1506 H   0  0  0  0  0  0  0  0  0  0  0  0
    7.8296   -6.5139    5.5684 H   0  0  0  0  0  0  0  0  0  0  0  0
  1  2  1  0
  1 41  1  0
  1 42  1  0
  1 43  1  0
  2  3  1  0
  2  4  1  0
  2  5  1  0
  3 44  1  0
  3 45  1  0
  3 46  1  0
  4 47  1  0
  5 35  1  0
  5  6  1  0
  5 48  1  6
  6  7  1  0
  6  8  1  0
  6 49  1  1
  7 50  1  0
  8  9  2  3
  8 51  1  0
  9 39  1  0
  9 10  1  0
 10 11  2  0
 10 12  1  0
 12 39  1  0
 12 13  1  0
 12 52  1  1
 13 33  1  0
 13 14  1  0
 13 53  1  6
 14 15  1  6
 14 16  1  0
 14 35  1  0
 15 54  1  0
 15 55  1  0
 15 56  1  0
 16 17  1  0
 16 57  1  0
 16 58  1  0
 17 18  1  0
 17 59  1  0
 17 60  1  0
 18 33  1  0
 18 19  1  1
 18 20  1  0
 19 61  1  0
 19 62  1  0
 19 63  1  0
 20 29  1  0
 20 21  1  0
 20 64  1  6
 21 22  1  0
 21 65  1  0
 21 66  1  0
 22 23  2  0
 22 24  1  0
 24 28  2  0
 24 25  1  0
 25 26  2  0
 25 67  1  0
 26 27  1  0
 27 28  1  0
 28 29  1  0
 29 30  1  1
 29 31  1  0
 30 68  1  0
 30 69  1  0
 30 70  1  0
 31 32  1  0
 31 71  1  0
 31 72  1  0
 32 33  1  0
 32 73  1  0
 32 74  1  0
 33 34  1  6
 34 75  1  0
 34 76  1  0
 34 77  1  0
 35 36  1  6
 35 37  1  0
 36 78  1  0
 36 79  1  0
 36 80  1  0
 37 38  1  0
 37 81  1  0
 37 82  1  0
 38 39  1  0
 38 83  1  0
 38 84  1  0
 39 40  1  1
 40 85  1  0
 40 86  1  0
 40 87  1  0
M  END
>  <i_m_ct_stereo_status>  (176) 
1

>  <s_m_source_file>  (176) 
/var/tmp/pbs.5076255.sched01/tmp5gbx45fw/500pp51iot.sdf

>  <i_m_source_file_index>  (176) 
20

>  <i_lp_mmshare_version>  (176) 
48012

>  <i_f3d_flags>  (176) 
0

>  <s_epik_input>  (176) 
W0NIMl0xW0NIMl1DMihbQ0gzXSlbQ0BIXShDKFtDSDNdKShbQ0gzXSlbT0hdKVtDQEBIXShbT0hdKS9bQ0hdPUMoL0MzPU8pW0NAQF0xKFtDSDNdKVtDQEBIXTNbQ0BASF0oW0NAQF0yNFtDSDNdKVtDQEBdNShbQ0gzXSlbQ0BdKFtDSDNdKShbQ0gyXVtDSDJdNClbQ0BASF02W0NAQF0oW0NIM10pKFtDSDJdW0NIMl01KWM3YyhDKD1PKVtDSDJdNilbY0hdbm83

>  <s_epik_cmdline>  (176) 
J2VwaWtfcHl0aG9uJywgJy1waHQnLCAnMi4wJywgJy1waCcsICc3LjAnLCAnLXRuJywgJzgnLCAnLW1hJywgJzIwMCcsICctaW1hZScsICc8aW5maWxlLm1hZT4nLCAnLW9tYWUnLCAnPG91dGZpbGUubWFlPic=

>  <r_lp_tautomer_probability>  (176) 
1

>  <r_epik_Ionization_Penalty>  (176) 
2.19546e-07

>  <r_epik_Ionization_Penalty_Charging>  (176) 
0

>  <r_epik_Ionization_Penalty_Neutral>  (176) 
2.19546e-07

>  <r_epik_State_Penalty>  (176) 
-0

>  <r_epik_Charging_Adjusted_Penalty>  (176) 
0

>  <i_epik_Tot_Q>  (176) 
0

>  <i_epik_Tot_abs_Q>  (176) 
0

>  <s_lp_Force_Field>  (176) 
OPLS3e

>  <r_lp_Energy>  (176) 
301.259

>  <b_lp_Chiralities_Consistent>  (176) 
1

>  <s_lp_Variant>  (176) 
40:0-3

>  <s_i_glide_gridfile>  (176) 
pfpi4k_grid

>  <i_i_glide_lignum>  (176) 
20

>  <i_i_glide_rotatable_bonds>  (176) 
3

>  <r_i_docking_score>  (176) 
-2.4428

>  <r_i_glide_ligand_efficiency>  (176) 
-0.0610701

>  <r_i_glide_ligand_efficiency_sa>  (176) 
-0.208857

>  <r_i_glide_ligand_efficiency_ln>  (176) 
-0.520978

>  <r_i_glide_gscore>  (176) 
-2.4428

>  <r_i_glide_lipo>  (176) 
-0.118485

>  <r_i_glide_hbond>  (176) 
-0.16

>  <r_i_glide_metal>  (176) 
-0

>  <r_i_glide_rewards>  (176) 
-0.0654983

>  <r_i_glide_evdw>  (176) 
-28.1442

>  <r_i_glide_ecoul>  (176) 
-4.77134

>  <r_i_glide_erotb>  (176) 
0.0685912

>  <r_i_glide_esite>  (176) 
-0.0445016

>  <r_i_glide_emodel>  (176) 
-35.4907

>  <r_i_glide_energy>  (176) 
-32.9155

>  <r_i_glide_einternal>  (176) 
4.452

>  <r_i_glide_intrahb_reward>  (176) 
-0

>  <i_i_glide_confnum>  (176) 
2

>  <i_i_glide_posenum>  (176) 
39

>  <r_i_glide_eff_state_penalty>  (176) 
0

>  <ligand_id>  (176) 
40

>  <original_smiles>  (176) 
CC(C)(O)C1C(O)C=C2C(=O)C3C4C(C)(CCC5(C)C6CC(=O)c7cnoc7C6(C)CCC45C)C1(C)CCC23C

>  <smiles>  (176) 
[H]OC1([H])C([H])=C2C(=O)C3([H])C4([H])C(C([H])([H])[H])(C([H])([H])C([H])([H])C5(C([H])([H])[H])C6([H])C([H])([H])C(=O)c7c([H])noc7C6(C([H])([H])[H])C([H])([H])C([H])([H])C45C([H])([H])[H])C(C([H])([H])[H])(C([H])([H])C([H])([H])C23C([H])([H])[H])C1([H])C(O[H])(C([H])([H])[H])C([H])([H])[H]

$$$$
40:3:0
     RDKit          3D

 87 93  0  0  1  0  0  0  0  0999 V2000
    3.1732  -12.0335    3.5052 C   0  0  0  0  0  0  0  0  0  0  0  0
    3.0362  -10.5250    3.7690 C   0  0  0  0  0  0  0  0  0  0  0  0
    1.5692  -10.1309    3.5063 C   0  0  0  0  0  0  0  0  0  0  0  0
    3.2282  -10.4679    5.1758 O   0  0  0  0  0  0  0  0  0  0  0  0
    4.0403   -9.6835    2.8668 C   0  0  2  0  0  0  0  0  0  0  0  0
    5.6332  -10.0893    3.0175 C   0  0  1  0  0  0  0  0  0  0  0  0
    6.0616  -10.9860    1.9987 O   0  0  0  0  0  0  0  0  0  0  0  0
    6.7920   -8.9950    3.3299 C   0  0  0  0  0  0  0  0  0  0  0  0
    6.9797   -7.6176    3.1969 C   0  0  0  0  0  0  0  0  0  0  0  0
    6.8321   -6.7267    2.0643 C   0  0  0  0  0  0  0  0  0  0  0  0
    7.4342   -6.7217    0.9903 O   0  0  0  0  0  0  0  0  0  0  0  0
    5.8828   -5.7307    2.8285 C   0  0  1  0  0  0  0  0  0  0  0  0
    4.3336   -5.5387    2.3649 C   0  0  1  0  0  0  0  0  0  0  0  0
    3.1976   -6.7310    2.5567 C   0  0  2  0  0  0  0  0  0  0  0  0
    2.2824   -6.9063    1.2835 C   0  0  0  0  0  0  0  0  0  0  0  0
    2.1373   -6.3059    3.6384 C   0  0  0  0  0  0  0  0  0  0  0  0
    1.6233   -4.8432    3.5759 C   0  0  0  0  0  0  0  0  0  0  0  0
    2.7468   -3.7745    3.6772 C   0  0  2  0  0  0  0  0  0  0  0  0
    3.3402   -3.8763    5.1198 C   0  0  0  0  0  0  0  0  0  0  0  0
    2.1704   -2.3129    3.5601 C   0  0  1  0  0  0  0  0  0  0  0  0
    0.9251   -1.9562    4.4603 C   0  0  0  0  0  0  0  0  0  0  0  0
    0.2521   -0.6372    4.0489 C   0  0  0  0  0  0  0  0  0  0  0  0
   -0.9323   -0.4287    4.3406 O   0  0  0  0  0  0  0  0  0  0  0  0
    1.1423    0.3179    3.3622 C   0  0  0  0  0  0  0  0  0  0  0  0
    0.8810    1.6278    2.8556 C   0  0  0  0  0  0  0  0  0  0  0  0
    2.0192    2.1309    2.3822 N   0  0  0  0  0  0  0  0  0  0  0  0
    3.0209    1.1500    2.5738 O   0  0  0  0  0  0  0  0  0  0  0  0
    2.4453    0.0494    3.1192 C   0  0  0  0  0  0  0  0  0  0  0  0
    3.2221   -1.1438    3.5237 C   0  0  1  0  0  0  0  0  0  0  0  0
    3.8873   -0.8156    4.8934 C   0  0  0  0  0  0  0  0  0  0  0  0
    4.3656   -1.4703    2.5311 C   0  0  0  0  0  0  0  0  0  0  0  0
    4.8746   -2.9377    2.5681 C   0  0  0  0  0  0  0  0  0  0  0  0
    3.7623   -4.0340    2.4804 C   0  0  1  0  0  0  0  0  0  0  0  0
    3.0983   -3.7505    1.0737 C   0  0  0  0  0  0  0  0  0  0  0  0
    4.0390   -8.0859    2.7994 C   0  0  2  0  0  0  0  0  0  0  0  0
    4.6416   -8.2323    1.2899 C   0  0  0  0  0  0  0  0  0  0  0  0
    4.4510   -7.9495    4.3661 C   0  0  0  0  0  0  0  0  0  0  0  0
    5.2987   -6.8642    4.9924 C   0  0  0  0  0  0  0  0  0  0  0  0
    6.3891   -6.4364    4.1069 C   0  0  1  0  0  0  0  0  0  0  0  0
    7.5206   -5.7721    4.8799 C   0  0  0  0  0  0  0  0  0  0  0  0
    2.9351  -12.3065    2.4809 H   0  0  0  0  0  0  0  0  0  0  0  0
    2.4960  -12.5754    4.1549 H   0  0  0  0  0  0  0  0  0  0  0  0
    4.1777  -12.4185    3.7147 H   0  0  0  0  0  0  0  0  0  0  0  0
    1.3406  -10.1147    2.4390 H   0  0  0  0  0  0  0  0  0  0  0  0
    1.3437   -9.1468    3.9120 H   0  0  0  0  0  0  0  0  0  0  0  0
    0.8684  -10.8333    3.9687 H   0  0  0  0  0  0  0  0  0  0  0  0
    2.6103  -11.0395    5.5977 H   0  0  0  0  0  0  0  0  0  0  0  0
    3.7133  -10.1429    1.9376 H   0  0  0  0  0  0  0  0  0  0  0  0
    5.6800  -10.7260    3.8974 H   0  0  0  0  0  0  0  0  0  0  0  0
    5.3044  -11.3591    1.5535 H   0  0  0  0  0  0  0  0  0  0  0  0
    7.0111   -9.2140    4.3715 H   0  0  0  0  0  0  0  0  0  0  0  0
    6.4140   -4.7816    2.7878 H   0  0  0  0  0  0  0  0  0  0  0  0
    4.4947   -5.5414    1.3097 H   0  0  0  0  0  0  0  0  0  0  0  0
    1.9041   -7.9229    1.1912 H   0  0  0  0  0  0  0  0  0  0  0  0
    2.7962   -6.6355    0.3630 H   0  0  0  0  0  0  0  0  0  0  0  0
    1.3896   -6.2852    1.2995 H   0  0  0  0  0  0  0  0  0  0  0  0
    1.2728   -6.9676    3.5782 H   0  0  0  0  0  0  0  0  0  0  0  0
    2.4667   -6.4294    4.6564 H   0  0  0  0  0  0  0  0  0  0  0  0
    1.0250   -4.6772    2.6846 H   0  0  0  0  0  0  0  0  0  0  0  0
    0.9204   -4.7241    4.3947 H   0  0  0  0  0  0  0  0  0  0  0  0
    4.4296   -3.8378    5.1524 H   0  0  0  0  0  0  0  0  0  0  0  0
    3.0404   -4.7636    5.6778 H   0  0  0  0  0  0  0  0  0  0  0  0
    2.9865   -3.0881    5.7818 H   0  0  0  0  0  0  0  0  0  0  0  0
    1.6870   -2.2967    2.5893 H   0  0  0  0  0  0  0  0  0  0  0  0
    0.1594   -2.7266    4.3514 H   0  0  0  0  0  0  0  0  0  0  0  0
    1.1834   -1.9098    5.5111 H   0  0  0  0  0  0  0  0  0  0  0  0
   -0.0125    2.2235    2.8510 H   0  0  0  0  0  0  0  0  0  0  0  0
    4.6147   -1.5674    5.2061 H   0  0  0  0  0  0  0  0  0  0  0  0
    3.1552   -0.7088    5.6824 H   0  0  0  0  0  0  0  0  0  0  0  0
    4.4413    0.1246    4.8441 H   0  0  0  0  0  0  0  0  0  0  0  0
    4.0605   -1.2236    1.5103 H   0  0  0  0  0  0  0  0  0  0  0  0
    5.2174   -0.7965    2.6984 H   0  0  0  0  0  0  0  0  0  0  0  0
    5.6025   -3.0713    1.7643 H   0  0  0  0  0  0  0  0  0  0  0  0
    5.4582   -3.0537    3.4925 H   0  0  0  0  0  0  0  0  0  0  0  0
    2.7692   -2.7244    0.8957 H   0  0  0  0  0  0  0  0  0  0  0  0
    2.2184   -4.3495    0.8828 H   0  0  0  0  0  0  0  0  0  0  0  0
    3.7858   -3.9262    0.2494 H   0  0  0  0  0  0  0  0  0  0  0  0
    4.8207   -7.3469    0.6982 H   0  0  0  0  0  0  0  0  0  0  0  0
    3.9377   -8.7056    0.5998 H   0  0  0  0  0  0  0  0  0  0  0  0
    5.5537   -8.7755    1.0884 H   0  0  0  0  0  0  0  0  0  0  0  0
    3.5547   -8.0103    4.9758 H   0  0  0  0  0  0  0  0  0  0  0  0
    4.9139   -8.8078    4.8461 H   0  0  0  0  0  0  0  0  0  0  0  0
    4.6798   -6.0006    5.1754 H   0  0  0  0  0  0  0  0  0  0  0  0
    5.6687   -7.1709    5.9692 H   0  0  0  0  0  0  0  0  0  0  0  0
    7.1437   -4.8389    5.3287 H   0  0  0  0  0  0  0  0  0  0  0  0
    8.3592   -5.4840    4.2336 H   0  0  0  0  0  0  0  0  0  0  0  0
    7.9140   -6.3879    5.6796 H   0  0  0  0  0  0  0  0  0  0  0  0
  1  2  1  0
  1 41  1  0
  1 42  1  0
  1 43  1  0
  2  3  1  0
  2  4  1  0
  2  5  1  0
  3 44  1  0
  3 45  1  0
  3 46  1  0
  4 47  1  0
  5 35  1  0
  5  6  1  0
  5 48  1  6
  6  7  1  0
  6  8  1  0
  6 49  1  1
  7 50  1  0
  8  9  2  3
  8 51  1  0
  9 39  1  0
  9 10  1  0
 10 11  2  0
 10 12  1  0
 12 39  1  0
 12 13  1  0
 12 52  1  1
 13 33  1  0
 13 14  1  0
 13 53  1  6
 14 15  1  6
 14 16  1  0
 14 35  1  0
 15 54  1  0
 15 55  1  0
 15 56  1  0
 16 17  1  0
 16 57  1  0
 16 58  1  0
 17 18  1  0
 17 59  1  0
 17 60  1  0
 18 33  1  0
 18 19  1  1
 18 20  1  0
 19 61  1  0
 19 62  1  0
 19 63  1  0
 20 29  1  0
 20 21  1  0
 20 64  1  6
 21 22  1  0
 21 65  1  0
 21 66  1  0
 22 23  2  0
 22 24  1  0
 24 28  2  0
 24 25  1  0
 25 26  2  0
 25 67  1  0
 26 27  1  0
 27 28  1  0
 28 29  1  0
 29 30  1  1
 29 31  1  0
 30 68  1  0
 30 69  1  0
 30 70  1  0
 31 32  1  0
 31 71  1  0
 31 72  1  0
 32 33  1  0
 32 73  1  0
 32 74  1  0
 33 34  1  6
 34 75  1  0
 34 76  1  0
 34 77  1  0
 35 36  1  6
 35 37  1  0
 36 78  1  0
 36 79  1  0
 36 80  1  0
 37 38  1  0
 37 81  1  0
 37 82  1  0
 38 39  1  0
 38 83  1  0
 38 84  1  0
 39 40  1  1
 40 85  1  0
 40 86  1  0
 40 87  1  0
M  END
>  <i_m_ct_stereo_status>  (177) 
1

>  <s_m_source_file>  (177) 
/var/tmp/pbs.5076255.sched01/tmp5gbx45fw/500pp51iot.sdf

>  <i_m_source_file_index>  (177) 
21

>  <i_lp_mmshare_version>  (177) 
48012

>  <i_f3d_flags>  (177) 
0

>  <s_epik_input>  (177) 
W0NIMl0xW0NIMl1DMihbQ0gzXSlbQ0BIXShDKFtDSDNdKShbQ0gzXSlbT0hdKVtDQEBIXShbT0hdKS9bQ0hdPUMoL0MzPU8pW0NAQF0xKFtDSDNdKVtDQEBIXTNbQ0BASF0oW0NAQF0yNFtDSDNdKVtDQEBdNShbQ0gzXSlbQ0BdKFtDSDNdKShbQ0gyXVtDSDJdNClbQ0BASF02W0NAQF0oW0NIM10pKFtDSDJdW0NIMl01KWM3YyhDKD1PKVtDSDJdNilbY0hdbm83

>  <s_epik_cmdline>  (177) 
J2VwaWtfcHl0aG9uJywgJy1waHQnLCAnMi4wJywgJy1waCcsICc3LjAnLCAnLXRuJywgJzgnLCAnLW1hJywgJzIwMCcsICctaW1hZScsICc8aW5maWxlLm1hZT4nLCAnLW9tYWUnLCAnPG91dGZpbGUubWFlPic=

>  <r_lp_tautomer_probability>  (177) 
1

>  <r_epik_Ionization_Penalty>  (177) 
2.19546e-07

>  <r_epik_Ionization_Penalty_Charging>  (177) 
0

>  <r_epik_Ionization_Penalty_Neutral>  (177) 
2.19546e-07

>  <r_epik_State_Penalty>  (177) 
-0

>  <r_epik_Charging_Adjusted_Penalty>  (177) 
0

>  <i_epik_Tot_Q>  (177) 
0

>  <i_epik_Tot_abs_Q>  (177) 
0

>  <s_lp_Force_Field>  (177) 
OPLS3e

>  <r_lp_Energy>  (177) 
313.337

>  <b_lp_Chiralities_Consistent>  (177) 
1

>  <s_lp_Variant>  (177) 
40:0-4

>  <s_i_glide_gridfile>  (177) 
pfpi4k_grid

>  <i_i_glide_lignum>  (177) 
21

>  <i_i_glide_rotatable_bonds>  (177) 
3

>  <r_i_docking_score>  (177) 
-2.68507

>  <r_i_glide_ligand_efficiency>  (177) 
-0.0671268

>  <r_i_glide_ligand_efficiency_sa>  (177) 
-0.22957

>  <r_i_glide_ligand_efficiency_ln>  (177) 
-0.572647

>  <r_i_glide_gscore>  (177) 
-2.68507

>  <r_i_glide_lipo>  (177) 
-0.204668

>  <r_i_glide_hbond>  (177) 
-0.16

>  <r_i_glide_metal>  (177) 
-0

>  <r_i_glide_rewards>  (177) 
-0.0608336

>  <r_i_glide_evdw>  (177) 
-28.1958

>  <r_i_glide_ecoul>  (177) 
-5.92571

>  <r_i_glide_erotb>  (177) 
0.0685912

>  <r_i_glide_esite>  (177) 
-0.0295122

>  <r_i_glide_emodel>  (177) 
-38.8606

>  <r_i_glide_energy>  (177) 
-34.1215

>  <r_i_glide_einternal>  (177) 
1.51091

>  <r_i_glide_intrahb_reward>  (177) 
-0

>  <i_i_glide_confnum>  (177) 
4

>  <i_i_glide_posenum>  (177) 
37

>  <r_i_glide_eff_state_penalty>  (177) 
0

>  <ligand_id>  (177) 
40

>  <original_smiles>  (177) 
CC(C)(O)C1C(O)C=C2C(=O)C3C4C(C)(CCC5(C)C6CC(=O)c7cnoc7C6(C)CCC45C)C1(C)CCC23C

>  <smiles>  (177) 
[H]OC1([H])C([H])=C2C(=O)C3([H])C4([H])C(C([H])([H])[H])(C([H])([H])C([H])([H])C5(C([H])([H])[H])C6([H])C([H])([H])C(=O)c7c([H])noc7C6(C([H])([H])[H])C([H])([H])C([H])([H])C45C([H])([H])[H])C(C([H])([H])[H])(C([H])([H])C([H])([H])C23C([H])([H])[H])C1([H])C(O[H])(C([H])([H])[H])C([H])([H])[H]

$$$$
40:3:1
     RDKit          3D

 87 93  0  0  1  0  0  0  0  0999 V2000
    2.1542  -12.0890    4.3488 C   0  0  0  0  0  0  0  0  0  0  0  0
    2.3660  -10.6038    4.6950 C   0  0  0  0  0  0  0  0  0  0  0  0
    0.9890   -9.9199    4.6875 C   0  0  0  0  0  0  0  0  0  0  0  0
    2.7901  -10.6546    6.0604 O   0  0  0  0  0  0  0  0  0  0  0  0
    3.3833   -9.9233    3.6809 C   0  0  2  0  0  0  0  0  0  0  0  0
    4.9550  -10.4126    3.8054 C   0  0  1  0  0  0  0  0  0  0  0  0
    5.2787  -11.4379    2.8740 O   0  0  0  0  0  0  0  0  0  0  0  0
    6.1923   -9.3768    3.9785 C   0  0  0  0  0  0  0  0  0  0  0  0
    6.4620   -8.0279    3.7044 C   0  0  0  0  0  0  0  0  0  0  0  0
    6.3234   -7.2477    2.4962 C   0  0  0  0  0  0  0  0  0  0  0  0
    6.8592   -7.4039    1.3941 O   0  0  0  0  0  0  0  0  0  0  0  0
    5.4690   -6.1199    3.1933 C   0  0  1  0  0  0  0  0  0  0  0  0
    3.9194   -5.8726    2.7663 C   0  0  1  0  0  0  0  0  0  0  0  0
    2.7203   -6.9646    3.1119 C   0  0  2  0  0  0  0  0  0  0  0  0
    1.7461   -7.2031    1.8866 C   0  0  0  0  0  0  0  0  0  0  0  0
    1.7345   -6.3715    4.1813 C   0  0  0  0  0  0  0  0  0  0  0  0
    1.3073   -4.8908    3.9996 C   0  0  0  0  0  0  0  0  0  0  0  0
    2.4973   -3.8929    3.9571 C   0  0  2  0  0  0  0  0  0  0  0  0
    3.1397   -3.8962    5.3835 C   0  0  0  0  0  0  0  0  0  0  0  0
    2.0074   -2.4153    3.7198 C   0  0  1  0  0  0  0  0  0  0  0  0
    0.8236   -1.8945    4.6234 C   0  0  0  0  0  0  0  0  0  0  0  0
    0.2127   -0.5821    4.1039 C   0  0  0  0  0  0  0  0  0  0  0  0
   -0.9440   -0.2789    4.4086 O   0  0  0  0  0  0  0  0  0  0  0  0
    1.1395    0.2436    3.3006 C   0  0  0  0  0  0  0  0  0  0  0  0
    0.9326    1.5180    2.6775 C   0  0  0  0  0  0  0  0  0  0  0  0
    2.0762    1.8904    2.1101 N   0  0  0  0  0  0  0  0  0  0  0  0
    3.0299    0.8745    2.3711 O   0  0  0  0  0  0  0  0  0  0  0  0
    2.4060   -0.1267    3.0445 C   0  0  0  0  0  0  0  0  0  0  0  0
    3.1253   -1.3234    3.5337 C   0  0  1  0  0  0  0  0  0  0  0  0
    3.8638   -0.9118    4.8431 C   0  0  0  0  0  0  0  0  0  0  0  0
    4.2053   -1.8174    2.5413 C   0  0  0  0  0  0  0  0  0  0  0  0
    4.6259   -3.3037    2.7004 C   0  0  0  0  0  0  0  0  0  0  0  0
    3.4471   -4.3293    2.7602 C   0  0  1  0  0  0  0  0  0  0  0  0
    2.7490   -4.1383    1.3541 C   0  0  0  0  0  0  0  0  0  0  0  0
    3.4849   -8.3433    3.4608 C   0  0  2  0  0  0  0  0  0  0  0  0
    4.0155   -8.6689    1.9525 C   0  0  0  0  0  0  0  0  0  0  0  0
    3.9618   -8.0983    4.9983 C   0  0  0  0  0  0  0  0  0  0  0  0
    4.9031   -7.0119    5.4802 C   0  0  0  0  0  0  0  0  0  0  0  0
    5.9804   -6.7321    4.5183 C   0  0  1  0  0  0  0  0  0  0  0  0
    7.1823   -6.0683    5.1790 C   0  0  0  0  0  0  0  0  0  0  0  0
    1.7321  -12.2238    3.3490 H   0  0  0  0  0  0  0  0  0  0  0  0
    1.4734  -12.5849    5.0307 H   0  0  0  0  0  0  0  0  0  0  0  0
    3.0974  -12.6473    4.3768 H   0  0  0  0  0  0  0  0  0  0  0  0
    0.6261   -9.7705    3.6692 H   0  0  0  0  0  0  0  0  0  0  0  0
    1.0311   -8.9511    5.1814 H   0  0  0  0  0  0  0  0  0  0  0  0
    0.2370  -10.5089    5.2193 H   0  0  0  0  0  0  0  0  0  0  0  0
    2.2306  -11.2490    6.5549 H   0  0  0  0  0  0  0  0  0  0  0  0
    2.9888  -10.4291    2.8059 H   0  0  0  0  0  0  0  0  0  0  0  0
    5.0057  -10.9798    4.7314 H   0  0  0  0  0  0  0  0  0  0  0  0
    4.6892  -11.4365    2.1392 H   0  0  0  0  0  0  0  0  0  0  0  0
    6.4392   -9.5072    5.0276 H   0  0  0  0  0  0  0  0  0  0  0  0
    6.0572   -5.2149    3.0466 H   0  0  0  0  0  0  0  0  0  0  0  0
    4.0342   -5.9845    1.7121 H   0  0  0  0  0  0  0  0  0  0  0  0
    1.3023   -8.1963    1.9037 H   0  0  0  0  0  0  0  0  0  0  0  0
    2.2285   -7.0627    0.9194 H   0  0  0  0  0  0  0  0  0  0  0  0
    0.8938   -6.5272    1.8785 H   0  0  0  0  0  0  0  0  0  0  0  0
    0.8250   -6.9733    4.2101 H   0  0  0  0  0  0  0  0  0  0  0  0
    2.0988   -6.4290    5.1962 H   0  0  0  0  0  0  0  0  0  0  0  0
    0.6847   -4.7712    3.1168 H   0  0  0  0  0  0  0  0  0  0  0  0
    0.6470   -4.6508    4.8260 H   0  0  0  0  0  0  0  0  0  0  0  0
    4.2300   -3.9254    5.3742 H   0  0  0  0  0  0  0  0  0  0  0  0
    2.8090   -4.7064    6.0335 H   0  0  0  0  0  0  0  0  0  0  0  0
    2.8618   -3.0272    5.9773 H   0  0  0  0  0  0  0  0  0  0  0  0
    1.4856   -2.4596    2.7700 H   0  0  0  0  0  0  0  0  0  0  0  0
    0.0086   -2.6215    4.6166 H   0  0  0  0  0  0  0  0  0  0  0  0
    1.1248   -1.7646    5.6554 H   0  0  0  0  0  0  0  0  0  0  0  0
    0.0803    2.1666    2.6482 H   0  0  0  0  0  0  0  0  0  0  0  0
    4.5552   -1.6763    5.2014 H   0  0  0  0  0  0  0  0  0  0  0  0
    3.1715   -0.6839    5.6418 H   0  0  0  0  0  0  0  0  0  0  0  0
    4.4713   -0.0181    4.6832 H   0  0  0  0  0  0  0  0  0  0  0  0
    3.8744   -1.6485    1.5113 H   0  0  0  0  0  0  0  0  0  0  0  0
    5.1021   -1.1863    2.6117 H   0  0  0  0  0  0  0  0  0  0  0  0
    5.3103   -3.5598    1.8886 H   0  0  0  0  0  0  0  0  0  0  0  0
    5.2402   -3.3695    3.6120 H   0  0  0  0  0  0  0  0  0  0  0  0
    2.4714   -3.1145    1.0907 H   0  0  0  0  0  0  0  0  0  0  0  0
    1.8359   -4.7027    1.2559 H   0  0  0  0  0  0  0  0  0  0  0  0
    3.3909   -4.4323    0.5286 H   0  0  0  0  0  0  0  0  0  0  0  0
    4.2242   -7.8564    1.2720 H   0  0  0  0  0  0  0  0  0  0  0  0
    3.2594   -9.1543    1.3297 H   0  0  0  0  0  0  0  0  0  0  0  0
    4.8840   -9.2850    1.7703 H   0  0  0  0  0  0  0  0  0  0  0  0
    3.0917   -8.0575    5.6452 H   0  0  0  0  0  0  0  0  0  0  0  0
    4.3867   -8.9390    5.5407 H   0  0  0  0  0  0  0  0  0  0  0  0
    4.3452   -6.0955    5.5984 H   0  0  0  0  0  0  0  0  0  0  0  0
    5.2962   -7.2414    6.4690 H   0  0  0  0  0  0  0  0  0  0  0  0
    6.8821   -5.0732    5.5495 H   0  0  0  0  0  0  0  0  0  0  0  0
    8.0084   -5.8922    4.4786 H   0  0  0  0  0  0  0  0  0  0  0  0
    7.5711   -6.6286    6.0203 H   0  0  0  0  0  0  0  0  0  0  0  0
  1  2  1  0
  1 41  1  0
  1 42  1  0
  1 43  1  0
  2  3  1  0
  2  4  1  0
  2  5  1  0
  3 44  1  0
  3 45  1  0
  3 46  1  0
  4 47  1  0
  5 35  1  0
  5  6  1  0
  5 48  1  6
  6  7  1  0
  6  8  1  0
  6 49  1  1
  7 50  1  0
  8  9  2  3
  8 51  1  0
  9 39  1  0
  9 10  1  0
 10 11  2  0
 10 12  1  0
 12 39  1  0
 12 13  1  0
 12 52  1  6
 13 33  1  0
 13 14  1  0
 13 53  1  6
 14 15  1  6
 14 16  1  0
 14 35  1  0
 15 54  1  0
 15 55  1  0
 15 56  1  0
 16 17  1  0
 16 57  1  0
 16 58  1  0
 17 18  1  0
 17 59  1  0
 17 60  1  0
 18 33  1  0
 18 19  1  1
 18 20  1  0
 19 61  1  0
 19 62  1  0
 19 63  1  0
 20 29  1  0
 20 21  1  0
 20 64  1  6
 21 22  1  0
 21 65  1  0
 21 66  1  0
 22 23  2  0
 22 24  1  0
 24 28  2  0
 24 25  1  0
 25 26  2  0
 25 67  1  0
 26 27  1  0
 27 28  1  0
 28 29  1  0
 29 30  1  1
 29 31  1  0
 30 68  1  0
 30 69  1  0
 30 70  1  0
 31 32  1  0
 31 71  1  0
 31 72  1  0
 32 33  1  0
 32 73  1  0
 32 74  1  0
 33 34  1  6
 34 75  1  0
 34 76  1  0
 34 77  1  0
 35 36  1  6
 35 37  1  0
 36 78  1  0
 36 79  1  0
 36 80  1  0
 37 38  1  0
 37 81  1  0
 37 82  1  0
 38 39  1  0
 38 83  1  0
 38 84  1  0
 39 40  1  1
 40 85  1  0
 40 86  1  0
 40 87  1  0
M  END
>  <i_m_ct_stereo_status>  (178) 
1

>  <s_m_source_file>  (178) 
/var/tmp/pbs.5076255.sched01/tmp5gbx45fw/500pp51iot.sdf

>  <i_m_source_file_index>  (178) 
21

>  <i_lp_mmshare_version>  (178) 
48012

>  <i_f3d_flags>  (178) 
0

>  <s_epik_input>  (178) 
W0NIMl0xW0NIMl1DMihbQ0gzXSlbQ0BIXShDKFtDSDNdKShbQ0gzXSlbT0hdKVtDQEBIXShbT0hdKS9bQ0hdPUMoL0MzPU8pW0NAQF0xKFtDSDNdKVtDQEBIXTNbQ0BASF0oW0NAQF0yNFtDSDNdKVtDQEBdNShbQ0gzXSlbQ0BdKFtDSDNdKShbQ0gyXVtDSDJdNClbQ0BASF02W0NAQF0oW0NIM10pKFtDSDJdW0NIMl01KWM3YyhDKD1PKVtDSDJdNilbY0hdbm83

>  <s_epik_cmdline>  (178) 
J2VwaWtfcHl0aG9uJywgJy1waHQnLCAnMi4wJywgJy1waCcsICc3LjAnLCAnLXRuJywgJzgnLCAnLW1hJywgJzIwMCcsICctaW1hZScsICc8aW5maWxlLm1hZT4nLCAnLW9tYWUnLCAnPG91dGZpbGUubWFlPic=

>  <r_lp_tautomer_probability>  (178) 
1

>  <r_epik_Ionization_Penalty>  (178) 
2.19546e-07

>  <r_epik_Ionization_Penalty_Charging>  (178) 
0

>  <r_epik_Ionization_Penalty_Neutral>  (178) 
2.19546e-07

>  <r_epik_State_Penalty>  (178) 
-0

>  <r_epik_Charging_Adjusted_Penalty>  (178) 
0

>  <i_epik_Tot_Q>  (178) 
0

>  <i_epik_Tot_abs_Q>  (178) 
0

>  <s_lp_Force_Field>  (178) 
OPLS3e

>  <r_lp_Energy>  (178) 
313.337

>  <b_lp_Chiralities_Consistent>  (178) 
1

>  <s_lp_Variant>  (178) 
40:0-4

>  <s_i_glide_gridfile>  (178) 
pfpi4k_grid

>  <i_i_glide_lignum>  (178) 
21

>  <i_i_glide_rotatable_bonds>  (178) 
3

>  <r_i_docking_score>  (178) 
-2.66152

>  <r_i_glide_ligand_efficiency>  (178) 
-0.0665379

>  <r_i_glide_ligand_efficiency_sa>  (178) 
-0.227556

>  <r_i_glide_ligand_efficiency_ln>  (178) 
-0.567623

>  <r_i_glide_gscore>  (178) 
-2.66152

>  <r_i_glide_lipo>  (178) 
-0.0590765

>  <r_i_glide_hbond>  (178) 
-0.299746

>  <r_i_glide_metal>  (178) 
-0

>  <r_i_glide_rewards>  (178) 
-0.0297412

>  <r_i_glide_evdw>  (178) 
-25.6354

>  <r_i_glide_ecoul>  (178) 
-6.97422

>  <r_i_glide_erotb>  (178) 
0.0685912

>  <r_i_glide_esite>  (178) 
-0.0136424

>  <r_i_glide_emodel>  (178) 
-37.4646

>  <r_i_glide_energy>  (178) 
-32.6096

>  <r_i_glide_einternal>  (178) 
1.23291

>  <r_i_glide_intrahb_reward>  (178) 
-0

>  <i_i_glide_confnum>  (178) 
4

>  <i_i_glide_posenum>  (178) 
18

>  <r_i_glide_eff_state_penalty>  (178) 
0

>  <ligand_id>  (178) 
40

>  <original_smiles>  (178) 
CC(C)(O)C1C(O)C=C2C(=O)C3C4C(C)(CCC5(C)C6CC(=O)c7cnoc7C6(C)CCC45C)C1(C)CCC23C

>  <smiles>  (178) 
[H]OC1([H])C([H])=C2C(=O)C3([H])C4([H])C(C([H])([H])[H])(C([H])([H])C([H])([H])C5(C([H])([H])[H])C6([H])C([H])([H])C(=O)c7c([H])noc7C6(C([H])([H])[H])C([H])([H])C([H])([H])C45C([H])([H])[H])C(C([H])([H])[H])(C([H])([H])C([H])([H])C23C([H])([H])[H])C1([H])C(O[H])(C([H])([H])[H])C([H])([H])[H]

$$$$
40:3:2
     RDKit          3D

 87 93  0  0  1  0  0  0  0  0999 V2000
    3.6098  -10.6956    5.4590 C   0  0  0  0  0  0  0  0  0  0  0  0
    3.2045  -10.5581    3.9513 C   0  0  0  0  0  0  0  0  0  0  0  0
    2.9974  -11.9863    3.4082 C   0  0  0  0  0  0  0  0  0  0  0  0
    1.9265   -9.9893    3.9535 O   0  0  0  0  0  0  0  0  0  0  0  0
    4.1455   -9.7141    2.9732 C   0  0  2  0  0  0  0  0  0  0  0  0
    5.7580  -10.1006    3.0379 C   0  0  1  0  0  0  0  0  0  0  0  0
    6.1524  -10.9937    1.9985 O   0  0  0  0  0  0  0  0  0  0  0  0
    6.9271   -9.0122    3.3493 C   0  0  0  0  0  0  0  0  0  0  0  0
    7.0544   -7.6371    3.2069 C   0  0  0  0  0  0  0  0  0  0  0  0
    6.9257   -6.7099    2.0640 C   0  0  0  0  0  0  0  0  0  0  0  0
    7.4611   -6.7305    0.9555 O   0  0  0  0  0  0  0  0  0  0  0  0
    5.9781   -5.7523    2.8400 C   0  0  1  0  0  0  0  0  0  0  0  0
    4.3824   -5.5671    2.4527 C   0  0  1  0  0  0  0  0  0  0  0  0
    3.2630   -6.7763    2.6531 C   0  0  2  0  0  0  0  0  0  0  0  0
    2.3255   -6.9479    1.4108 C   0  0  0  0  0  0  0  0  0  0  0  0
    2.2300   -6.3584    3.7668 C   0  0  0  0  0  0  0  0  0  0  0  0
    1.7055   -4.8953    3.7107 C   0  0  0  0  0  0  0  0  0  0  0  0
    2.8255   -3.8215    3.7985 C   0  0  2  0  0  0  0  0  0  0  0  0
    3.4619   -3.9137    5.2243 C   0  0  0  0  0  0  0  0  0  0  0  0
    2.2279   -2.3645    3.6895 C   0  0  1  0  0  0  0  0  0  0  0  0
    1.0103   -2.0183    4.6073 C   0  0  0  0  0  0  0  0  0  0  0  0
    0.3182   -0.6981    4.2233 C   0  0  0  0  0  0  0  0  0  0  0  0
   -0.8557   -0.5059    4.5203 O   0  0  0  0  0  0  0  0  0  0  0  0
    1.1605    0.2616    3.5017 C   0  0  0  0  0  0  0  0  0  0  0  0
    0.9118    1.5635    3.0050 C   0  0  0  0  0  0  0  0  0  0  0  0
    2.0236    2.0740    2.4962 N   0  0  0  0  0  0  0  0  0  0  0  0
    3.0306    1.1124    2.6635 O   0  0  0  0  0  0  0  0  0  0  0  0
    2.4676    0.0187    3.2331 C   0  0  0  0  0  0  0  0  0  0  0  0
    3.2991   -1.1888    3.6207 C   0  0  1  0  0  0  0  0  0  0  0  0
    3.9834   -0.8495    4.9685 C   0  0  0  0  0  0  0  0  0  0  0  0
    4.4119   -1.5053    2.5868 C   0  0  0  0  0  0  0  0  0  0  0  0
    4.9286   -2.9638    2.6339 C   0  0  0  0  0  0  0  0  0  0  0  0
    3.8139   -4.0608    2.5582 C   0  0  1  0  0  0  0  0  0  0  0  0
    3.1069   -3.7920    1.1753 C   0  0  0  0  0  0  0  0  0  0  0  0
    4.1390   -8.1125    2.8857 C   0  0  2  0  0  0  0  0  0  0  0  0
    4.7005   -8.2559    1.3383 C   0  0  0  0  0  0  0  0  0  0  0  0
    4.5921   -7.9669    4.4406 C   0  0  0  0  0  0  0  0  0  0  0  0
    5.4393   -6.8639    5.0260 C   0  0  0  0  0  0  0  0  0  0  0  0
    6.5405   -6.4799    4.1134 C   0  0  1  0  0  0  0  0  0  0  0  0
    7.6578   -5.7508    4.8739 C   0  0  0  0  0  0  0  0  0  0  0  0
    4.5718  -11.2214    5.5665 H   0  0  0  0  0  0  0  0  0  0  0  0
    2.8874  -11.3478    6.0024 H   0  0  0  0  0  0  0  0  0  0  0  0
    3.6711   -9.7415    5.9879 H   0  0  0  0  0  0  0  0  0  0  0  0
    3.9386  -12.4929    3.1997 H   0  0  0  0  0  0  0  0  0  0  0  0
    2.4231  -12.0146    2.4857 H   0  0  0  0  0  0  0  0  0  0  0  0
    2.4672  -12.6105    4.1283 H   0  0  0  0  0  0  0  0  0  0  0  0
    1.3635  -10.5318    4.4946 H   0  0  0  0  0  0  0  0  0  0  0  0
    3.7615  -10.1618    2.0498 H   0  0  0  0  0  0  0  0  0  0  0  0
    5.8567  -10.7748    3.8793 H   0  0  0  0  0  0  0  0  0  0  0  0
    5.3737  -11.3713    1.5785 H   0  0  0  0  0  0  0  0  0  0  0  0
    7.1598   -9.2266    4.3690 H   0  0  0  0  0  0  0  0  0  0  0  0
    6.4801   -4.7925    2.8018 H   0  0  0  0  0  0  0  0  0  0  0  0
    4.5301   -5.5729    1.3732 H   0  0  0  0  0  0  0  0  0  0  0  0
    1.9609   -7.9784    1.3222 H   0  0  0  0  0  0  0  0  0  0  0  0
    2.8115   -6.6685    0.4780 H   0  0  0  0  0  0  0  0  0  0  0  0
    1.4257   -6.3473    1.4522 H   0  0  0  0  0  0  0  0  0  0  0  0
    1.3845   -7.0469    3.7384 H   0  0  0  0  0  0  0  0  0  0  0  0
    2.5791   -6.4530    4.7817 H   0  0  0  0  0  0  0  0  0  0  0  0
    1.0784   -4.7317    2.8384 H   0  0  0  0  0  0  0  0  0  0  0  0
    1.0218   -4.7786    4.5570 H   0  0  0  0  0  0  0  0  0  0  0  0
    4.5434   -3.8618    5.2213 H   0  0  0  0  0  0  0  0  0  0  0  0
    3.1821   -4.7930    5.7853 H   0  0  0  0  0  0  0  0  0  0  0  0
    3.1155   -3.1242    5.8851 H   0  0  0  0  0  0  0  0  0  0  0  0
    1.7296   -2.3509    2.7226 H   0  0  0  0  0  0  0  0  0  0  0  0
    0.2539   -2.7869    4.5290 H   0  0  0  0  0  0  0  0  0  0  0  0
    1.2985   -1.9570    5.6593 H   0  0  0  0  0  0  0  0  0  0  0  0
    0.0042    2.1507    3.0228 H   0  0  0  0  0  0  0  0  0  0  0  0
    4.7134   -1.5896    5.2647 H   0  0  0  0  0  0  0  0  0  0  0  0
    3.2612   -0.7435    5.7808 H   0  0  0  0  0  0  0  0  0  0  0  0
    4.5200    0.0943    4.9049 H   0  0  0  0  0  0  0  0  0  0  0  0
    4.0647   -1.2631    1.5884 H   0  0  0  0  0  0  0  0  0  0  0  0
    5.2422   -0.8280    2.7430 H   0  0  0  0  0  0  0  0  0  0  0  0
    5.6250   -3.0972    1.8062 H   0  0  0  0  0  0  0  0  0  0  0  0
    5.5230   -3.0765    3.5305 H   0  0  0  0  0  0  0  0  0  0  0  0
    2.7733   -2.7771    1.0092 H   0  0  0  0  0  0  0  0  0  0  0  0
    2.2299   -4.4039    1.0149 H   0  0  0  0  0  0  0  0  0  0  0  0
    3.7797   -3.9732    0.3375 H   0  0  0  0  0  0  0  0  0  0  0  0
    4.8505   -7.3745    0.7509 H   0  0  0  0  0  0  0  0  0  0  0  0
    3.9777   -8.7436    0.6808 H   0  0  0  0  0  0  0  0  0  0  0  0
    5.6085   -8.7918    1.1229 H   0  0  0  0  0  0  0  0  0  0  0  0
    3.7212   -8.0534    5.0536 H   0  0  0  0  0  0  0  0  0  0  0  0
    5.0429   -8.8271    4.8945 H   0  0  0  0  0  0  0  0  0  0  0  0
    4.8311   -5.9974    5.2337 H   0  0  0  0  0  0  0  0  0  0  0  0
    5.8376   -7.1728    5.9919 H   0  0  0  0  0  0  0  0  0  0  0  0
    7.2738   -4.8420    5.3344 H   0  0  0  0  0  0  0  0  0  0  0  0
    8.4718   -5.4724    4.2095 H   0  0  0  0  0  0  0  0  0  0  0  0
    8.0649   -6.3856    5.6607 H   0  0  0  0  0  0  0  0  0  0  0  0
  1  2  1  0
  1 41  1  0
  1 42  1  0
  1 43  1  0
  2  3  1  0
  2  4  1  0
  2  5  1  0
  3 44  1  0
  3 45  1  0
  3 46  1  0
  4 47  1  0
  5 35  1  0
  5  6  1  0
  5 48  1  6
  6  7  1  0
  6  8  1  0
  6 49  1  1
  7 50  1  0
  8  9  2  3
  8 51  1  0
  9 39  1  0
  9 10  1  0
 10 11  2  0
 10 12  1  0
 12 39  1  0
 12 13  1  0
 12 52  1  1
 13 33  1  0
 13 14  1  0
 13 53  1  6
 14 15  1  6
 14 16  1  0
 14 35  1  0
 15 54  1  0
 15 55  1  0
 15 56  1  0
 16 17  1  0
 16 57  1  0
 16 58  1  0
 17 18  1  0
 17 59  1  0
 17 60  1  0
 18 33  1  0
 18 19  1  1
 18 20  1  0
 19 61  1  0
 19 62  1  0
 19 63  1  0
 20 29  1  0
 20 21  1  0
 20 64  1  6
 21 22  1  0
 21 65  1  0
 21 66  1  0
 22 23  2  0
 22 24  1  0
 24 28  2  0
 24 25  1  0
 25 26  2  0
 25 67  1  0
 26 27  1  0
 27 28  1  0
 28 29  1  0
 29 30  1  1
 29 31  1  0
 30 68  1  0
 30 69  1  0
 30 70  1  0
 31 32  1  0
 31 71  1  0
 31 72  1  0
 32 33  1  0
 32 73  1  0
 32 74  1  0
 33 34  1  6
 34 75  1  0
 34 76  1  0
 34 77  1  0
 35 36  1  6
 35 37  1  0
 36 78  1  0
 36 79  1  0
 36 80  1  0
 37 38  1  0
 37 81  1  0
 37 82  1  0
 38 39  1  0
 38 83  1  0
 38 84  1  0
 39 40  1  1
 40 85  1  0
 40 86  1  0
 40 87  1  0
M  END
>  <i_m_ct_stereo_status>  (179) 
1

>  <s_m_source_file>  (179) 
/var/tmp/pbs.5076255.sched01/tmp5gbx45fw/500pp51iot.sdf

>  <i_m_source_file_index>  (179) 
21

>  <i_lp_mmshare_version>  (179) 
48012

>  <i_f3d_flags>  (179) 
0

>  <s_epik_input>  (179) 
W0NIMl0xW0NIMl1DMihbQ0gzXSlbQ0BIXShDKFtDSDNdKShbQ0gzXSlbT0hdKVtDQEBIXShbT0hdKS9bQ0hdPUMoL0MzPU8pW0NAQF0xKFtDSDNdKVtDQEBIXTNbQ0BASF0oW0NAQF0yNFtDSDNdKVtDQEBdNShbQ0gzXSlbQ0BdKFtDSDNdKShbQ0gyXVtDSDJdNClbQ0BASF02W0NAQF0oW0NIM10pKFtDSDJdW0NIMl01KWM3YyhDKD1PKVtDSDJdNilbY0hdbm83

>  <s_epik_cmdline>  (179) 
J2VwaWtfcHl0aG9uJywgJy1waHQnLCAnMi4wJywgJy1waCcsICc3LjAnLCAnLXRuJywgJzgnLCAnLW1hJywgJzIwMCcsICctaW1hZScsICc8aW5maWxlLm1hZT4nLCAnLW9tYWUnLCAnPG91dGZpbGUubWFlPic=

>  <r_lp_tautomer_probability>  (179) 
1

>  <r_epik_Ionization_Penalty>  (179) 
2.19546e-07

>  <r_epik_Ionization_Penalty_Charging>  (179) 
0

>  <r_epik_Ionization_Penalty_Neutral>  (179) 
2.19546e-07

>  <r_epik_State_Penalty>  (179) 
-0

>  <r_epik_Charging_Adjusted_Penalty>  (179) 
0

>  <i_epik_Tot_Q>  (179) 
0

>  <i_epik_Tot_abs_Q>  (179) 
0

>  <s_lp_Force_Field>  (179) 
OPLS3e

>  <r_lp_Energy>  (179) 
313.337

>  <b_lp_Chiralities_Consistent>  (179) 
1

>  <s_lp_Variant>  (179) 
40:0-4

>  <s_i_glide_gridfile>  (179) 
pfpi4k_grid

>  <i_i_glide_lignum>  (179) 
21

>  <i_i_glide_rotatable_bonds>  (179) 
3

>  <r_i_docking_score>  (179) 
-2.49443

>  <r_i_glide_ligand_efficiency>  (179) 
-0.0623607

>  <r_i_glide_ligand_efficiency_sa>  (179) 
-0.213271

>  <r_i_glide_ligand_efficiency_ln>  (179) 
-0.531988

>  <r_i_glide_gscore>  (179) 
-2.49443

>  <r_i_glide_lipo>  (179) 
-0.175842

>  <r_i_glide_hbond>  (179) 
-0.16

>  <r_i_glide_metal>  (179) 
-0

>  <r_i_glide_rewards>  (179) 
-0.0604592

>  <r_i_glide_evdw>  (179) 
-27.7022

>  <r_i_glide_ecoul>  (179) 
-5.05648

>  <r_i_glide_erotb>  (179) 
0.0685912

>  <r_i_glide_esite>  (179) 
-0.0231348

>  <r_i_glide_emodel>  (179) 
-34.4856

>  <r_i_glide_energy>  (179) 
-32.7587

>  <r_i_glide_einternal>  (179) 
6.24935

>  <r_i_glide_intrahb_reward>  (179) 
-0

>  <i_i_glide_confnum>  (179) 
5

>  <i_i_glide_posenum>  (179) 
28

>  <r_i_glide_eff_state_penalty>  (179) 
0

>  <ligand_id>  (179) 
40

>  <original_smiles>  (179) 
CC(C)(O)C1C(O)C=C2C(=O)C3C4C(C)(CCC5(C)C6CC(=O)c7cnoc7C6(C)CCC45C)C1(C)CCC23C

>  <smiles>  (179) 
[H]OC1([H])C([H])=C2C(=O)C3([H])C4([H])C(C([H])([H])[H])(C([H])([H])C([H])([H])C5(C([H])([H])[H])C6([H])C([H])([H])C(=O)c7c([H])noc7C6(C([H])([H])[H])C([H])([H])C([H])([H])C45C([H])([H])[H])C(C([H])([H])[H])(C([H])([H])C([H])([H])C23C([H])([H])[H])C1([H])C(O[H])(C([H])([H])[H])C([H])([H])[H]

$$$$
41:0:0
     RDKit          3D

 14 15  0  0  1  0  0  0  0  0999 V2000
    2.9962   -1.7583   -3.9193 C   0  0  0  0  0  0  0  0  0  0  0  0
    3.6400   -0.6156   -3.4021 C   0  0  0  0  0  0  0  0  0  0  0  0
    4.6167   -0.6551   -2.4671 N   0  0  0  0  0  0  0  0  0  0  0  0
    4.9661   -1.8606   -2.0161 C   0  0  0  0  0  0  0  0  0  0  0  0
    5.9602   -2.1236   -1.0845 N   0  0  0  0  0  0  0  0  0  0  0  0
    5.9350   -3.4567   -0.9485 C   0  0  0  0  0  0  0  0  0  0  0  0
    5.0122   -4.0483   -1.7769 N   0  0  0  0  0  0  0  0  0  0  0  0
    4.3801   -3.0638   -2.4721 C   0  0  0  0  0  0  0  0  0  0  0  0
    3.3698   -3.0281   -3.4446 C   0  0  0  0  0  0  0  0  0  0  0  0
    4.8065   -5.0415   -1.8690 H   0  0  0  0  0  0  0  0  0  0  0  0
    2.2150   -1.6452   -4.6594 H   0  0  0  0  0  0  0  0  0  0  0  0
    3.3571    0.3676   -3.7535 H   0  0  0  0  0  0  0  0  0  0  0  0
    6.5844   -3.9930   -0.2729 H   0  0  0  0  0  0  0  0  0  0  0  0
    2.8923   -3.9278   -3.8051 H   0  0  0  0  0  0  0  0  0  0  0  0
  1  9  2  0
  1 11  1  0
  1  2  1  0
  2 12  1  0
  2  3  2  0
  3  4  1  0
  4  5  1  0
  4  8  2  0
  5  6  2  0
  6 13  1  0
  6  7  1  0
  7 10  1  0
  7  8  1  0
  8  9  1  0
  9 14  1  0
M  END
>  <i_m_ct_stereo_status>  (180) 
1

>  <s_m_source_file>  (180) 
/var/tmp/pbs.5076255.sched01/tmp5gbx45fw/500pp51iot.sdf

>  <i_m_source_file_index>  (180) 
22

>  <i_lp_mmshare_version>  (180) 
48012

>  <i_f3d_flags>  (180) 
0

>  <s_epik_input>  (180) 
bjFbY0hdW2NIXVtjSF1jKGMxMiluW2NIXVtuSF0y

>  <s_epik_cmdline>  (180) 
J2VwaWtfcHl0aG9uJywgJy1waHQnLCAnMi4wJywgJy1waCcsICc3LjAnLCAnLXRuJywgJzgnLCAnLW1hJywgJzIwMCcsICctaW1hZScsICc8aW5maWxlLm1hZT4nLCAnLW9tYWUnLCAnPG91dGZpbGUubWFlPic=

>  <r_lp_tautomer_probability>  (180) 
0.641916

>  <r_epik_Ionization_Penalty>  (180) 
0.000527663

>  <r_epik_Ionization_Penalty_Charging>  (180) 
0

>  <r_epik_Ionization_Penalty_Neutral>  (180) 
0.000527663

>  <r_epik_State_Penalty>  (180) 
0.254028

>  <r_epik_Charging_Adjusted_Penalty>  (180) 
0.254028

>  <i_epik_Tot_Q>  (180) 
0

>  <i_epik_Tot_abs_Q>  (180) 
0

>  <s_lp_Force_Field>  (180) 
OPLS3e

>  <r_lp_Energy>  (180) 
14.0952

>  <b_lp_Chiralities_Consistent>  (180) 
1

>  <s_lp_Variant>  (180) 
41:0-1

>  <s_i_glide_gridfile>  (180) 
pfpi4k_grid

>  <i_i_glide_lignum>  (180) 
22

>  <i_i_glide_rotatable_bonds>  (180) 
0

>  <r_i_docking_score>  (180) 
-4.53489

>  <r_i_glide_ligand_efficiency>  (180) 
-0.503877

>  <r_i_glide_ligand_efficiency_sa>  (180) 
-1.04811

>  <r_i_glide_ligand_efficiency_ln>  (180) 
-1.41838

>  <r_i_glide_gscore>  (180) 
-4.53489

>  <r_i_glide_lipo>  (180) 
-0.47025

>  <r_i_glide_hbond>  (180) 
-0.100751

>  <r_i_glide_metal>  (180) 
-0

>  <r_i_glide_rewards>  (180) 
-2.38326

>  <r_i_glide_evdw>  (180) 
-16.2463

>  <r_i_glide_ecoul>  (180) 
-4.85097

>  <r_i_glide_erotb>  (180) 
0

>  <r_i_glide_esite>  (180) 
-0.0406718

>  <r_i_glide_emodel>  (180) 
-27.3553

>  <r_i_glide_energy>  (180) 
-21.0973

>  <r_i_glide_einternal>  (180) 
0

>  <r_i_glide_intrahb_reward>  (180) 
-0

>  <i_i_glide_confnum>  (180) 
2

>  <i_i_glide_posenum>  (180) 
33

>  <r_i_glide_eff_state_penalty>  (180) 
0

>  <ligand_id>  (180) 
41

>  <original_smiles>  (180) 
c1cnc2[nH]cnc2c1

>  <smiles>  (180) 
[H]c1nc2nc([H])n([H])c2c([H])c1[H]

$$$$
41:0:1
     RDKit          3D

 14 15  0  0  1  0  0  0  0  0999 V2000
    3.5708   -0.5041   -3.8787 C   0  0  0  0  0  0  0  0  0  0  0  0
    4.3538   -0.2991   -2.7292 C   0  0  0  0  0  0  0  0  0  0  0  0
    4.3584   -1.0884   -1.6260 N   0  0  0  0  0  0  0  0  0  0  0  0
    3.4866   -2.1018   -1.6287 C   0  0  0  0  0  0  0  0  0  0  0  0
    3.2921   -3.0302   -0.6140 N   0  0  0  0  0  0  0  0  0  0  0  0
    2.3143   -3.8178   -1.0719 C   0  0  0  0  0  0  0  0  0  0  0  0
    1.8858   -3.4566   -2.3281 N   0  0  0  0  0  0  0  0  0  0  0  0
    2.6289   -2.3866   -2.7216 C   0  0  0  0  0  0  0  0  0  0  0  0
    2.6802   -1.5877   -3.8745 C   0  0  0  0  0  0  0  0  0  0  0  0
    1.1801   -3.9255   -2.8904 H   0  0  0  0  0  0  0  0  0  0  0  0
    3.6131    0.1900   -4.7108 H   0  0  0  0  0  0  0  0  0  0  0  0
    5.0119    0.5465   -2.7185 H   0  0  0  0  0  0  0  0  0  0  0  0
    1.9453   -4.6690   -0.5164 H   0  0  0  0  0  0  0  0  0  0  0  0
    2.0012   -1.7435   -4.6954 H   0  0  0  0  0  0  0  0  0  0  0  0
  1  9  2  0
  1 11  1  0
  1  2  1  0
  2 12  1  0
  2  3  2  0
  3  4  1  0
  4  5  1  0
  4  8  2  0
  5  6  2  0
  6 13  1  0
  6  7  1  0
  7 10  1  0
  7  8  1  0
  8  9  1  0
  9 14  1  0
M  END
>  <i_m_ct_stereo_status>  (181) 
1

>  <s_m_source_file>  (181) 
/var/tmp/pbs.5076255.sched01/tmp5gbx45fw/500pp51iot.sdf

>  <i_m_source_file_index>  (181) 
22

>  <i_lp_mmshare_version>  (181) 
48012

>  <i_f3d_flags>  (181) 
0

>  <s_epik_input>  (181) 
bjFbY0hdW2NIXVtjSF1jKGMxMiluW2NIXVtuSF0y

>  <s_epik_cmdline>  (181) 
J2VwaWtfcHl0aG9uJywgJy1waHQnLCAnMi4wJywgJy1waCcsICc3LjAnLCAnLXRuJywgJzgnLCAnLW1hJywgJzIwMCcsICctaW1hZScsICc8aW5maWxlLm1hZT4nLCAnLW9tYWUnLCAnPG91dGZpbGUubWFlPic=

>  <r_lp_tautomer_probability>  (181) 
0.641916

>  <r_epik_Ionization_Penalty>  (181) 
0.000527663

>  <r_epik_Ionization_Penalty_Charging>  (181) 
0

>  <r_epik_Ionization_Penalty_Neutral>  (181) 
0.000527663

>  <r_epik_State_Penalty>  (181) 
0.254028

>  <r_epik_Charging_Adjusted_Penalty>  (181) 
0.254028

>  <i_epik_Tot_Q>  (181) 
0

>  <i_epik_Tot_abs_Q>  (181) 
0

>  <s_lp_Force_Field>  (181) 
OPLS3e

>  <r_lp_Energy>  (181) 
14.0952

>  <b_lp_Chiralities_Consistent>  (181) 
1

>  <s_lp_Variant>  (181) 
41:0-1

>  <s_i_glide_gridfile>  (181) 
pfpi4k_grid

>  <i_i_glide_lignum>  (181) 
22

>  <i_i_glide_rotatable_bonds>  (181) 
0

>  <r_i_docking_score>  (181) 
-4.35584

>  <r_i_glide_ligand_efficiency>  (181) 
-0.483982

>  <r_i_glide_ligand_efficiency_sa>  (181) 
-1.00672

>  <r_i_glide_ligand_efficiency_ln>  (181) 
-1.36238

>  <r_i_glide_gscore>  (181) 
-4.35584

>  <r_i_glide_lipo>  (181) 
-0.482022

>  <r_i_glide_hbond>  (181) 
-0.32

>  <r_i_glide_metal>  (181) 
-0

>  <r_i_glide_rewards>  (181) 
-2.25

>  <r_i_glide_evdw>  (181) 
-9.81165

>  <r_i_glide_ecoul>  (181) 
-4.78908

>  <r_i_glide_erotb>  (181) 
0

>  <r_i_glide_esite>  (181) 
-0.0948727

>  <r_i_glide_emodel>  (181) 
-20.5927

>  <r_i_glide_energy>  (181) 
-14.6007

>  <r_i_glide_einternal>  (181) 
0

>  <r_i_glide_intrahb_reward>  (181) 
-0

>  <i_i_glide_confnum>  (181) 
2

>  <i_i_glide_posenum>  (181) 
37

>  <r_i_glide_eff_state_penalty>  (181) 
0

>  <ligand_id>  (181) 
41

>  <original_smiles>  (181) 
c1cnc2[nH]cnc2c1

>  <smiles>  (181) 
[H]c1nc2nc([H])n([H])c2c([H])c1[H]

$$$$
41:0:2
     RDKit          3D

 14 15  0  0  1  0  0  0  0  0999 V2000
    3.4858   -1.3882   -3.9251 C   0  0  0  0  0  0  0  0  0  0  0  0
    4.2038   -0.4499   -3.1517 C   0  0  0  0  0  0  0  0  0  0  0  0
    4.6415   -0.6612   -1.8886 N   0  0  0  0  0  0  0  0  0  0  0  0
    4.3085   -1.8267   -1.3306 C   0  0  0  0  0  0  0  0  0  0  0  0
    4.6399   -2.2557   -0.0527 N   0  0  0  0  0  0  0  0  0  0  0  0
    4.0994   -3.4789    0.0382 C   0  0  0  0  0  0  0  0  0  0  0  0
    3.4686   -3.8557   -1.1188 N   0  0  0  0  0  0  0  0  0  0  0  0
    3.5798   -2.8319   -2.0119 C   0  0  0  0  0  0  0  0  0  0  0  0
    3.1612   -2.6257   -3.3364 C   0  0  0  0  0  0  0  0  0  0  0  0
    3.0297   -4.7472   -1.3246 H   0  0  0  0  0  0  0  0  0  0  0  0
    3.1728   -1.1435   -4.9325 H   0  0  0  0  0  0  0  0  0  0  0  0
    4.4477    0.5146   -3.5661 H   0  0  0  0  0  0  0  0  0  0  0  0
    4.1868   -4.0994    0.9241 H   0  0  0  0  0  0  0  0  0  0  0  0
    2.6023   -3.3815   -3.8769 H   0  0  0  0  0  0  0  0  0  0  0  0
  1  9  2  0
  1 11  1  0
  1  2  1  0
  2 12  1  0
  2  3  2  0
  3  4  1  0
  4  5  1  0
  4  8  2  0
  5  6  2  0
  6 13  1  0
  6  7  1  0
  7 10  1  0
  7  8  1  0
  8  9  1  0
  9 14  1  0
M  END
>  <i_m_ct_stereo_status>  (182) 
1

>  <s_m_source_file>  (182) 
/var/tmp/pbs.5076255.sched01/tmp5gbx45fw/500pp51iot.sdf

>  <i_m_source_file_index>  (182) 
22

>  <i_lp_mmshare_version>  (182) 
48012

>  <i_f3d_flags>  (182) 
0

>  <s_epik_input>  (182) 
bjFbY0hdW2NIXVtjSF1jKGMxMiluW2NIXVtuSF0y

>  <s_epik_cmdline>  (182) 
J2VwaWtfcHl0aG9uJywgJy1waHQnLCAnMi4wJywgJy1waCcsICc3LjAnLCAnLXRuJywgJzgnLCAnLW1hJywgJzIwMCcsICctaW1hZScsICc8aW5maWxlLm1hZT4nLCAnLW9tYWUnLCAnPG91dGZpbGUubWFlPic=

>  <r_lp_tautomer_probability>  (182) 
0.641916

>  <r_epik_Ionization_Penalty>  (182) 
0.000527663

>  <r_epik_Ionization_Penalty_Charging>  (182) 
0

>  <r_epik_Ionization_Penalty_Neutral>  (182) 
0.000527663

>  <r_epik_State_Penalty>  (182) 
0.254028

>  <r_epik_Charging_Adjusted_Penalty>  (182) 
0.254028

>  <i_epik_Tot_Q>  (182) 
0

>  <i_epik_Tot_abs_Q>  (182) 
0

>  <s_lp_Force_Field>  (182) 
OPLS3e

>  <r_lp_Energy>  (182) 
14.0952

>  <b_lp_Chiralities_Consistent>  (182) 
1

>  <s_lp_Variant>  (182) 
41:0-1

>  <s_i_glide_gridfile>  (182) 
pfpi4k_grid

>  <i_i_glide_lignum>  (182) 
22

>  <i_i_glide_rotatable_bonds>  (182) 
0

>  <r_i_docking_score>  (182) 
-4.34933

>  <r_i_glide_ligand_efficiency>  (182) 
-0.483259

>  <r_i_glide_ligand_efficiency_sa>  (182) 
-1.00522

>  <r_i_glide_ligand_efficiency_ln>  (182) 
-1.36035

>  <r_i_glide_gscore>  (182) 
-4.34933

>  <r_i_glide_lipo>  (182) 
-0.440344

>  <r_i_glide_hbond>  (182) 
-0.275784

>  <r_i_glide_metal>  (182) 
-0

>  <r_i_glide_rewards>  (182) 
-2.28321

>  <r_i_glide_evdw>  (182) 
-14.4458

>  <r_i_glide_ecoul>  (182) 
-3.87718

>  <r_i_glide_erotb>  (182) 
0

>  <r_i_glide_esite>  (182) 
-0.0461248

>  <r_i_glide_emodel>  (182) 
-24.3242

>  <r_i_glide_energy>  (182) 
-18.323

>  <r_i_glide_einternal>  (182) 
0

>  <r_i_glide_intrahb_reward>  (182) 
-0

>  <i_i_glide_confnum>  (182) 
2

>  <i_i_glide_posenum>  (182) 
39

>  <r_i_glide_eff_state_penalty>  (182) 
0

>  <ligand_id>  (182) 
41

>  <original_smiles>  (182) 
c1cnc2[nH]cnc2c1

>  <smiles>  (182) 
[H]c1nc2nc([H])n([H])c2c([H])c1[H]

$$$$
41:1:0
     RDKit          3D

 14 15  0  0  1  0  0  0  0  0999 V2000
    5.5871   -3.4289   -1.2638 C   0  0  0  0  0  0  0  0  0  0  0  0
    5.5442   -2.1928   -0.5817 C   0  0  0  0  0  0  0  0  0  0  0  0
    5.0019   -1.0555   -1.0826 N   0  0  0  0  0  0  0  0  0  0  0  0
    4.4442   -1.1968   -2.3231 C   0  0  0  0  0  0  0  0  0  0  0  0
    3.8130   -0.2520   -3.1171 N   0  0  0  0  0  0  0  0  0  0  0  0
    3.4554   -0.8898   -4.2448 C   0  0  0  0  0  0  0  0  0  0  0  0
    3.7806   -2.1785   -4.3154 N   0  0  0  0  0  0  0  0  0  0  0  0
    4.4080   -2.3859   -3.1068 C   0  0  0  0  0  0  0  0  0  0  0  0
    5.0116   -3.5299   -2.5497 C   0  0  0  0  0  0  0  0  0  0  0  0
    3.5940    0.7146   -2.9037 H   0  0  0  0  0  0  0  0  0  0  0  0
    6.0372   -4.2925   -0.7990 H   0  0  0  0  0  0  0  0  0  0  0  0
    5.9640   -2.1001    0.4122 H   0  0  0  0  0  0  0  0  0  0  0  0
    2.9417   -0.3924   -5.0545 H   0  0  0  0  0  0  0  0  0  0  0  0
    5.0165   -4.4611   -3.1004 H   0  0  0  0  0  0  0  0  0  0  0  0
  1  9  2  0
  1  2  1  0
  1 11  1  0
  2  3  2  0
  2 12  1  0
  3  4  1  0
  4  8  2  0
  4  5  1  0
  5 10  1  0
  5  6  1  0
  6  7  2  0
  6 13  1  0
  7  8  1  0
  8  9  1  0
  9 14  1  0
M  END
>  <i_m_ct_stereo_status>  (183) 
1

>  <s_m_source_file>  (183) 
/var/tmp/pbs.5076255.sched01/tmp5gbx45fw/500pp51iot.sdf

>  <i_m_source_file_index>  (183) 
23

>  <i_lp_mmshare_version>  (183) 
48012

>  <i_f3d_flags>  (183) 
0

>  <s_epik_input>  (183) 
bjFbY0hdW2NIXVtjSF1jKGMxMiluW2NIXVtuSF0y

>  <s_epik_cmdline>  (183) 
J2VwaWtfcHl0aG9uJywgJy1waHQnLCAnMi4wJywgJy1waCcsICc3LjAnLCAnLXRuJywgJzgnLCAnLW1hJywgJzIwMCcsICctaW1hZScsICc8aW5maWxlLm1hZT4nLCAnLW9tYWUnLCAnPG91dGZpbGUubWFlPic=

>  <r_lp_tautomer_probability>  (183) 
0.357409

>  <r_epik_Ionization_Penalty>  (183) 
0.00121961

>  <r_epik_Ionization_Penalty_Charging>  (183) 
0.00109014

>  <r_epik_Ionization_Penalty_Neutral>  (183) 
0.000129468

>  <r_epik_State_Penalty>  (183) 
0.624248

>  <r_epik_Charging_Adjusted_Penalty>  (183) 
0.625338

>  <i_epik_Tot_Q>  (183) 
0

>  <i_epik_Tot_abs_Q>  (183) 
0

>  <s_lp_Force_Field>  (183) 
OPLS3e

>  <r_lp_Energy>  (183) 
12.9712

>  <b_lp_Chiralities_Consistent>  (183) 
1

>  <s_lp_Variant>  (183) 
41:0-2

>  <s_i_glide_gridfile>  (183) 
pfpi4k_grid

>  <i_i_glide_lignum>  (183) 
23

>  <i_i_glide_rotatable_bonds>  (183) 
0

>  <r_i_docking_score>  (183) 
-4.82859

>  <r_i_glide_ligand_efficiency>  (183) 
-0.53651

>  <r_i_glide_ligand_efficiency_sa>  (183) 
-1.11599

>  <r_i_glide_ligand_efficiency_ln>  (183) 
-1.51024

>  <r_i_glide_gscore>  (183) 
-4.82859

>  <r_i_glide_lipo>  (183) 
-0.336278

>  <r_i_glide_hbond>  (183) 
-0.474973

>  <r_i_glide_metal>  (183) 
-0

>  <r_i_glide_rewards>  (183) 
-2.42202

>  <r_i_glide_evdw>  (183) 
-17.6268

>  <r_i_glide_ecoul>  (183) 
-4.52387

>  <r_i_glide_erotb>  (183) 
0

>  <r_i_glide_esite>  (183) 
-0.035403

>  <r_i_glide_emodel>  (183) 
-28.9753

>  <r_i_glide_energy>  (183) 
-22.1507

>  <r_i_glide_einternal>  (183) 
0

>  <r_i_glide_intrahb_reward>  (183) 
-0

>  <i_i_glide_confnum>  (183) 
1

>  <i_i_glide_posenum>  (183) 
3

>  <r_i_glide_eff_state_penalty>  (183) 
0

>  <ligand_id>  (183) 
41

>  <original_smiles>  (183) 
c1cnc2[nH]cnc2c1

>  <smiles>  (183) 
[H]c1nc2c(nc([H])n2[H])c([H])c1[H]

$$$$
41:1:1
     RDKit          3D

 14 15  0  0  1  0  0  0  0  0999 V2000
    2.3268   -3.3687   -2.2597 C   0  0  0  0  0  0  0  0  0  0  0  0
    3.1221   -2.8280   -1.2185 C   0  0  0  0  0  0  0  0  0  0  0  0
    3.8485   -1.6924   -1.3402 N   0  0  0  0  0  0  0  0  0  0  0  0
    3.7040   -1.0766   -2.5526 C   0  0  0  0  0  0  0  0  0  0  0  0
    4.2198    0.1377   -2.9640 N   0  0  0  0  0  0  0  0  0  0  0  0
    3.8167    0.3207   -4.2285 C   0  0  0  0  0  0  0  0  0  0  0  0
    3.0620   -0.6317   -4.7326 N   0  0  0  0  0  0  0  0  0  0  0  0
    2.9756   -1.5235   -3.6829 C   0  0  0  0  0  0  0  0  0  0  0  0
    2.2734   -2.7344   -3.5158 C   0  0  0  0  0  0  0  0  0  0  0  0
    4.7521    0.7809   -2.3925 H   0  0  0  0  0  0  0  0  0  0  0  0
    1.7646   -4.2750   -2.1097 H   0  0  0  0  0  0  0  0  0  0  0  0
    3.1642   -3.3256   -0.2579 H   0  0  0  0  0  0  0  0  0  0  0  0
    4.0777    1.1860   -4.8165 H   0  0  0  0  0  0  0  0  0  0  0  0
    1.6659   -3.1287   -4.3132 H   0  0  0  0  0  0  0  0  0  0  0  0
  1  9  2  0
  1  2  1  0
  1 11  1  0
  2  3  2  0
  2 12  1  0
  3  4  1  0
  4  8  2  0
  4  5  1  0
  5 10  1  0
  5  6  1  0
  6  7  2  0
  6 13  1  0
  7  8  1  0
  8  9  1  0
  9 14  1  0
M  END
>  <i_m_ct_stereo_status>  (184) 
1

>  <s_m_source_file>  (184) 
/var/tmp/pbs.5076255.sched01/tmp5gbx45fw/500pp51iot.sdf

>  <i_m_source_file_index>  (184) 
23

>  <i_lp_mmshare_version>  (184) 
48012

>  <i_f3d_flags>  (184) 
0

>  <s_epik_input>  (184) 
bjFbY0hdW2NIXVtjSF1jKGMxMiluW2NIXVtuSF0y

>  <s_epik_cmdline>  (184) 
J2VwaWtfcHl0aG9uJywgJy1waHQnLCAnMi4wJywgJy1waCcsICc3LjAnLCAnLXRuJywgJzgnLCAnLW1hJywgJzIwMCcsICctaW1hZScsICc8aW5maWxlLm1hZT4nLCAnLW9tYWUnLCAnPG91dGZpbGUubWFlPic=

>  <r_lp_tautomer_probability>  (184) 
0.357409

>  <r_epik_Ionization_Penalty>  (184) 
0.00121961

>  <r_epik_Ionization_Penalty_Charging>  (184) 
0.00109014

>  <r_epik_Ionization_Penalty_Neutral>  (184) 
0.000129468

>  <r_epik_State_Penalty>  (184) 
0.624248

>  <r_epik_Charging_Adjusted_Penalty>  (184) 
0.625338

>  <i_epik_Tot_Q>  (184) 
0

>  <i_epik_Tot_abs_Q>  (184) 
0

>  <s_lp_Force_Field>  (184) 
OPLS3e

>  <r_lp_Energy>  (184) 
12.9712

>  <b_lp_Chiralities_Consistent>  (184) 
1

>  <s_lp_Variant>  (184) 
41:0-2

>  <s_i_glide_gridfile>  (184) 
pfpi4k_grid

>  <i_i_glide_lignum>  (184) 
23

>  <i_i_glide_rotatable_bonds>  (184) 
0

>  <r_i_docking_score>  (184) 
-4.28311

>  <r_i_glide_ligand_efficiency>  (184) 
-0.475901

>  <r_i_glide_ligand_efficiency_sa>  (184) 
-0.989913

>  <r_i_glide_ligand_efficiency_ln>  (184) 
-1.33963

>  <r_i_glide_gscore>  (184) 
-4.28311

>  <r_i_glide_lipo>  (184) 
-0.632518

>  <r_i_glide_hbond>  (184) 
-0.32

>  <r_i_glide_metal>  (184) 
-0

>  <r_i_glide_rewards>  (184) 
-2.36774

>  <r_i_glide_evdw>  (184) 
-12.724

>  <r_i_glide_ecoul>  (184) 
-1.93523

>  <r_i_glide_erotb>  (184) 
0

>  <r_i_glide_esite>  (184) 
-0.0363631

>  <r_i_glide_emodel>  (184) 
-20.625

>  <r_i_glide_energy>  (184) 
-14.6592

>  <r_i_glide_einternal>  (184) 
0

>  <r_i_glide_intrahb_reward>  (184) 
-0

>  <i_i_glide_confnum>  (184) 
2

>  <i_i_glide_posenum>  (184) 
14

>  <r_i_glide_eff_state_penalty>  (184) 
0

>  <ligand_id>  (184) 
41

>  <original_smiles>  (184) 
c1cnc2[nH]cnc2c1

>  <smiles>  (184) 
[H]c1nc2c(nc([H])n2[H])c([H])c1[H]

$$$$
41:1:2
     RDKit          3D

 14 15  0  0  1  0  0  0  0  0999 V2000
    3.0428   -2.2556   -3.7419 C   0  0  0  0  0  0  0  0  0  0  0  0
    4.0327   -1.2744   -3.5169 C   0  0  0  0  0  0  0  0  0  0  0  0
    4.6255   -1.0450   -2.3209 N   0  0  0  0  0  0  0  0  0  0  0  0
    4.1629   -1.8375   -1.3093 C   0  0  0  0  0  0  0  0  0  0  0  0
    4.5571   -1.8546    0.0167 N   0  0  0  0  0  0  0  0  0  0  0  0
    3.8178   -2.8106    0.6081 C   0  0  0  0  0  0  0  0  0  0  0  0
    2.9585   -3.4714   -0.1663 N   0  0  0  0  0  0  0  0  0  0  0  0
    3.1685   -2.8583   -1.3944 C   0  0  0  0  0  0  0  0  0  0  0  0
    2.5982   -3.0558   -2.6681 C   0  0  0  0  0  0  0  0  0  0  0  0
    5.2365   -1.2689    0.4729 H   0  0  0  0  0  0  0  0  0  0  0  0
    2.6107   -2.3878   -4.7162 H   0  0  0  0  0  0  0  0  0  0  0  0
    4.3704   -0.6546   -4.3364 H   0  0  0  0  0  0  0  0  0  0  0  0
    3.9149   -3.0403    1.6565 H   0  0  0  0  0  0  0  0  0  0  0  0
    1.8368   -3.8101   -2.8120 H   0  0  0  0  0  0  0  0  0  0  0  0
  1  9  2  0
  1  2  1  0
  1 11  1  0
  2  3  2  0
  2 12  1  0
  3  4  1  0
  4  8  2  0
  4  5  1  0
  5 10  1  0
  5  6  1  0
  6  7  2  0
  6 13  1  0
  7  8  1  0
  8  9  1  0
  9 14  1  0
M  END
>  <i_m_ct_stereo_status>  (185) 
1

>  <s_m_source_file>  (185) 
/var/tmp/pbs.5076255.sched01/tmp5gbx45fw/500pp51iot.sdf

>  <i_m_source_file_index>  (185) 
23

>  <i_lp_mmshare_version>  (185) 
48012

>  <i_f3d_flags>  (185) 
0

>  <s_epik_input>  (185) 
bjFbY0hdW2NIXVtjSF1jKGMxMiluW2NIXVtuSF0y

>  <s_epik_cmdline>  (185) 
J2VwaWtfcHl0aG9uJywgJy1waHQnLCAnMi4wJywgJy1waCcsICc3LjAnLCAnLXRuJywgJzgnLCAnLW1hJywgJzIwMCcsICctaW1hZScsICc8aW5maWxlLm1hZT4nLCAnLW9tYWUnLCAnPG91dGZpbGUubWFlPic=

>  <r_lp_tautomer_probability>  (185) 
0.357409

>  <r_epik_Ionization_Penalty>  (185) 
0.00121961

>  <r_epik_Ionization_Penalty_Charging>  (185) 
0.00109014

>  <r_epik_Ionization_Penalty_Neutral>  (185) 
0.000129468

>  <r_epik_State_Penalty>  (185) 
0.624248

>  <r_epik_Charging_Adjusted_Penalty>  (185) 
0.625338

>  <i_epik_Tot_Q>  (185) 
0

>  <i_epik_Tot_abs_Q>  (185) 
0

>  <s_lp_Force_Field>  (185) 
OPLS3e

>  <r_lp_Energy>  (185) 
12.9712

>  <b_lp_Chiralities_Consistent>  (185) 
1

>  <s_lp_Variant>  (185) 
41:0-2

>  <s_i_glide_gridfile>  (185) 
pfpi4k_grid

>  <i_i_glide_lignum>  (185) 
23

>  <i_i_glide_rotatable_bonds>  (185) 
0

>  <r_i_docking_score>  (185) 
-3.68065

>  <r_i_glide_ligand_efficiency>  (185) 
-0.408961

>  <r_i_glide_ligand_efficiency_sa>  (185) 
-0.850674

>  <r_i_glide_ligand_efficiency_ln>  (185) 
-1.1512

>  <r_i_glide_gscore>  (185) 
-3.68065

>  <r_i_glide_lipo>  (185) 
-0.416875

>  <r_i_glide_hbond>  (185) 
0

>  <r_i_glide_metal>  (185) 
-0

>  <r_i_glide_rewards>  (185) 
-2.25

>  <r_i_glide_evdw>  (185) 
-15.5301

>  <r_i_glide_ecoul>  (185) 
-1.19952

>  <r_i_glide_erotb>  (185) 
0

>  <r_i_glide_esite>  (185) 
-0.0573415

>  <r_i_glide_emodel>  (185) 
-21.9348

>  <r_i_glide_energy>  (185) 
-16.7297

>  <r_i_glide_einternal>  (185) 
0

>  <r_i_glide_intrahb_reward>  (185) 
-0

>  <i_i_glide_confnum>  (185) 
1

>  <i_i_glide_posenum>  (185) 
8

>  <r_i_glide_eff_state_penalty>  (185) 
0

>  <ligand_id>  (185) 
41

>  <original_smiles>  (185) 
c1cnc2[nH]cnc2c1

>  <smiles>  (185) 
[H]c1nc2c(nc([H])n2[H])c([H])c1[H]

$$$$
42:2:0
     RDKit          3D

 96105  0  0  1  0  0  0  0  0999 V2000
    0.6559   -0.3709    7.7052 C   0  0  0  0  0  0  0  0  0  0  0  0
    0.7659    0.1626    6.2508 C   0  0  1  0  0  0  0  0  0  0  0  0
   -0.4584    1.0795    6.0031 C   0  0  0  0  0  0  0  0  0  0  0  0
   -0.4297    2.5199    6.5399 C   0  0  0  0  0  0  0  0  0  0  0  0
    0.4677    3.5408    5.7862 C   0  0  2  0  0  0  0  0  0  0  0  0
    0.1352    3.6505    4.2473 C   0  0  2  0  0  0  0  0  0  0  0  0
   -1.2491    3.3935    4.0543 O   0  0  0  0  0  0  0  0  0  0  0  0
    0.8566    2.5915    3.3742 C   0  0  0  0  0  0  0  0  0  0  0  0
    2.2766    2.2255    3.8162 C   0  0  0  0  0  0  0  0  0  0  0  0
    2.5015    2.1001    5.3505 C   0  0  2  0  0  0  0  0  0  0  0  0
    2.2155    0.7186    6.0322 C   0  0  2  0  0  0  0  0  0  0  0  0
    3.0563   -0.4401    5.4346 C   0  0  0  0  0  0  0  0  0  0  0  0
    2.1179   -1.6210    5.1870 C   0  0  1  0  0  0  0  0  0  0  0  0
    2.2433   -2.5515    6.2586 O   0  0  0  0  0  0  0  0  0  0  0  0
    2.9047   -3.7844    6.0038 C   0  0  2  0  0  0  0  0  0  0  0  0
    2.2413   -4.5404    4.8165 C   0  0  0  0  0  0  0  0  0  0  0  0
    2.1357   -5.9948    5.2720 C   0  0  2  0  0  0  0  0  0  0  0  0
    3.3638   -6.6017    4.8662 O   0  0  0  0  0  0  0  0  0  0  0  0
    0.9616   -6.8768    4.7673 C   0  0  2  0  0  0  0  0  0  0  0  0
   -0.4346   -6.2434    5.0872 C   0  0  0  0  0  0  0  0  0  0  0  0
   -0.6042   -5.5653    6.4120 C   0  0  0  0  0  0  0  0  0  0  0  0
   -1.7863   -5.0147    6.9717 C   0  0  0  0  0  0  0  0  0  0  0  0
   -1.7111   -4.2460    8.1218 C   0  0  0  0  0  0  0  0  0  0  0  0
   -0.4630   -3.8840    8.6717 C   0  0  0  0  0  0  0  0  0  0  0  0
   -0.4550   -2.9880    9.6956 O   0  0  0  0  0  0  0  0  0  0  0  0
    0.7328   -4.4154    8.1383 C   0  0  0  0  0  0  0  0  0  0  0  0
    0.5910   -5.3064    7.1249 C   0  0  0  0  0  0  0  0  0  0  0  0
    1.9467   -5.8655    6.7696 C   0  0  1  0  0  0  0  0  0  0  0  0
    2.1521   -7.2550    7.4149 C   0  0  0  0  0  0  0  0  0  0  0  0
    1.1222   -8.2807    6.8603 C   0  0  0  0  0  0  0  0  0  0  0  0
    1.0530   -8.2689    5.3589 N   0  0  1  0  0  0  0  0  0  0  0  0
    0.0371   -9.2212    4.8233 C   0  0  0  0  0  0  0  0  0  0  0  0
    0.0136   -9.2894    3.2954 C   0  0  0  0  0  0  0  0  0  0  0  0
   -0.5713   -8.1731    2.4381 C   0  0  0  0  0  0  0  0  0  0  0  0
   -1.2987   -9.4822    2.5571 C   0  0  0  0  0  0  0  0  0  0  0  0
    2.8134   -4.7044    7.2691 C   0  0  2  0  0  0  0  0  0  0  0  0
    2.0554   -4.1293    8.3726 O   0  0  0  0  0  0  0  0  0  0  0  0
    0.7234   -0.9892    5.2248 C   0  0  1  0  0  0  0  0  0  0  0  0
   -0.3356   -1.9210    5.3843 O   0  0  0  0  0  0  0  0  0  0  0  0
    1.9975    3.3744    6.1057 C   0  0  2  0  0  0  0  0  0  0  0  0
    2.2581    3.3108    7.6345 C   0  0  0  0  0  0  0  0  0  0  0  0
    2.8709    4.5929    5.6727 C   0  0  0  0  0  0  0  0  0  0  0  0
    4.0996    4.5493    5.7164 O   0  0  0  0  0  0  0  0  0  0  0  0
    2.2189    5.8730    5.1729 C   0  0  0  0  0  0  0  0  0  0  0  0
    1.7458    5.6956    3.7302 C   0  0  0  0  0  0  0  0  0  0  0  0
    0.3544    5.0833    3.7045 C   0  0  0  0  0  0  0  0  0  0  0  0
   -0.5839    5.7666    3.3156 O   0  0  0  0  0  0  0  0  0  0  0  0
   -0.2469   -0.9610    7.8490 H   0  0  0  0  0  0  0  0  0  0  0  0
    0.6275    0.4420    8.4309 H   0  0  0  0  0  0  0  0  0  0  0  0
    1.4894   -1.0130    7.9897 H   0  0  0  0  0  0  0  0  0  0  0  0
   -0.7486    1.0732    4.9612 H   0  0  0  0  0  0  0  0  0  0  0  0
   -1.3191    0.5962    6.4653 H   0  0  0  0  0  0  0  0  0  0  0  0
   -1.4527    2.8911    6.4929 H   0  0  0  0  0  0  0  0  0  0  0  0
   -0.2351    2.5239    7.6062 H   0  0  0  0  0  0  0  0  0  0  0  0
    0.1589    4.4900    6.2281 H   0  0  0  0  0  0  0  0  0  0  0  0
   -1.4036    3.4111    3.1219 H   0  0  0  0  0  0  0  0  0  0  0  0
    0.2693    1.6838    3.2918 H   0  0  0  0  0  0  0  0  0  0  0  0
    0.9130    2.9404    2.3426 H   0  0  0  0  0  0  0  0  0  0  0  0
    2.5597    1.3161    3.2975 H   0  0  0  0  0  0  0  0  0  0  0  0
    2.9596    2.9795    3.4228 H   0  0  0  0  0  0  0  0  0  0  0  0
    3.5870    2.1280    5.4323 H   0  0  0  0  0  0  0  0  0  0  0  0
    2.6462    0.8163    7.0260 H   0  0  0  0  0  0  0  0  0  0  0  0
    3.5387   -0.1590    4.5015 H   0  0  0  0  0  0  0  0  0  0  0  0
    3.8677   -0.7373    6.1009 H   0  0  0  0  0  0  0  0  0  0  0  0
    2.3162   -2.0528    4.2097 H   0  0  0  0  0  0  0  0  0  0  0  0
    3.9498   -3.5923    5.7687 H   0  0  0  0  0  0  0  0  0  0  0  0
    1.2395   -4.1571    4.6289 H   0  0  0  0  0  0  0  0  0  0  0  0
    2.7959   -4.4387    3.8821 H   0  0  0  0  0  0  0  0  0  0  0  0
    3.4225   -7.4887    5.1757 H   0  0  0  0  0  0  0  0  0  0  0  0
    1.1042   -6.9436    3.6831 H   0  0  0  0  0  0  0  0  0  0  0  0
   -0.5735   -5.4712    4.3228 H   0  0  0  0  0  0  0  0  0  0  0  0
   -1.2664   -6.9581    4.9715 H   0  0  0  0  0  0  0  0  0  0  0  0
   -2.7464   -5.2028    6.4934 H   0  0  0  0  0  0  0  0  0  0  0  0
   -2.6147   -3.8476    8.5505 H   0  0  0  0  0  0  0  0  0  0  0  0
    3.1635   -7.6149    7.2100 H   0  0  0  0  0  0  0  0  0  0  0  0
    2.0495   -7.1865    8.4958 H   0  0  0  0  0  0  0  0  0  0  0  0
    1.3800   -9.2954    7.1986 H   0  0  0  0  0  0  0  0  0  0  0  0
    0.1279   -8.0578    7.2747 H   0  0  0  0  0  0  0  0  0  0  0  0
    0.2854  -10.2184    5.2012 H   0  0  0  0  0  0  0  0  0  0  0  0
   -0.9677   -9.0152    5.2217 H   0  0  0  0  0  0  0  0  0  0  0  0
    0.8765   -9.8291    2.8862 H   0  0  0  0  0  0  0  0  0  0  0  0
   -1.1718   -7.3492    2.8722 H   0  0  0  0  0  0  0  0  0  0  0  0
   -0.0259   -8.0197    1.4893 H   0  0  0  0  0  0  0  0  0  0  0  0
   -1.3446  -10.1543    1.6880 H   0  0  0  0  0  0  0  0  0  0  0  0
   -2.2059   -9.5105    3.1659 H   0  0  0  0  0  0  0  0  0  0  0  0
    3.8070   -5.0547    7.5556 H   0  0  0  0  0  0  0  0  0  0  0  0
    0.5737   -0.5620    4.2328 H   0  0  0  0  0  0  0  0  0  0  0  0
   -0.2033   -2.6146    4.7639 H   0  0  0  0  0  0  0  0  0  0  0  0
    1.8023    2.4590    8.1261 H   0  0  0  0  0  0  0  0  0  0  0  0
    1.8812    4.2016    8.1385 H   0  0  0  0  0  0  0  0  0  0  0  0
    3.3225    3.2415    7.8567 H   0  0  0  0  0  0  0  0  0  0  0  0
    1.4194    6.1926    5.8385 H   0  0  0  0  0  0  0  0  0  0  0  0
    2.9765    6.6574    5.2080 H   0  0  0  0  0  0  0  0  0  0  0  0
    1.6900    6.6785    3.2549 H   0  0  0  0  0  0  0  0  0  0  0  0
    2.4410    5.1023    3.1396 H   0  0  0  0  0  0  0  0  0  0  0  0
    1.9462   -8.6496    5.0397 H   0  0  0  0  0  0  0  0  0  0  0  0
  2  1  1  1
  1 48  1  0
  1 49  1  0
  1 50  1  0
  2 11  1  0
  2 38  1  0
  2  3  1  0
  3  4  1  0
  3 51  1  0
  3 52  1  0
  4  5  1  0
  4 53  1  0
  4 54  1  0
  5 40  1  0
  5  6  1  0
  5 55  1  1
  6 46  1  0
  6  7  1  1
  6  8  1  0
  7 56  1  0
  8  9  1  0
  8 57  1  0
  8 58  1  0
  9 10  1  0
  9 59  1  0
  9 60  1  0
 10 11  1  0
 10 40  1  0
 10 61  1  6
 11 12  1  0
 11 62  1  1
 12 13  1  0
 12 63  1  0
 12 64  1  0
 13 14  1  0
 13 38  1  0
 13 65  1  6
 14 15  1  0
 15 36  1  0
 15 16  1  0
 15 66  1  6
 16 17  1  0
 16 67  1  0
 16 68  1  0
 17 28  1  0
 17 18  1  1
 17 19  1  0
 18 69  1  0
 19 31  1  0
 19 20  1  0
 19 70  1  6
 20 21  1  0
 20 71  1  0
 20 72  1  0
 21 27  2  0
 21 22  1  0
 22 23  2  0
 22 73  1  0
 23 24  1  0
 23 74  1  0
 24 25  1  0
 24 26  2  0
 26 37  1  0
 26 27  1  0
 27 28  1  0
 28 29  1  1
 28 36  1  0
 29 30  1  0
 29 75  1  0
 29 76  1  0
 30 31  1  0
 30 77  1  0
 30 78  1  0
 31 32  1  0
 31 96  1  6
 32 33  1  0
 32 79  1  0
 32 80  1  0
 33 35  1  0
 33 34  1  0
 33 81  1  0
 34 35  1  0
 34 82  1  0
 34 83  1  0
 35 84  1  0
 35 85  1  0
 36 37  1  0
 36 86  1  1
 38 39  1  0
 38 87  1  6
 39 88  1  0
 40 41  1  1
 40 42  1  0
 41 89  1  0
 41 90  1  0
 41 91  1  0
 42 43  2  0
 42 44  1  0
 44 45  1  0
 44 92  1  0
 44 93  1  0
 45 46  1  0
 45 94  1  0
 45 95  1  0
 46 47  2  0
M  CHG  2  25  -1  31   1
M  END
>  <i_m_ct_stereo_status>  (186) 
1

>  <s_m_source_file>  (186) 
/var/tmp/pbs.5076255.sched01/tmp5gbx45fw/500pp51iot.sdf

>  <i_m_source_file_index>  (186) 
26

>  <i_lp_mmshare_version>  (186) 
48012

>  <i_f3d_flags>  (186) 
0

>  <s_epik_input>  (186) 
Tz1DMVtDSDJdW0NIMl1DKD1PKVtDQEBdKFtPSF0pKFtDSDJdW0NIMl0yKVtDQEBIXShbQ0gyXVtDSDJdMylbQ0BAXTEoW0NIM10pW0NASF0yW0NAQEhdKFtDQEBdMzRbQ0gzXSlbQ0gyXVtDQEhdKFtDQEhdNFtPSF0pT1tDQEhdKFtDSDJdNSlbQ0BIXTZPYyhjKFtPSF0pW2NIXVtjSF03KWM4YzdbQ0gyXVtDQEBIXShbQ0BAXTUoW0NAQF02ODkpW09IXSlOKFtDSDJdW0NIMl05KVtDSDJdW0NIXTFbQ0gyXVtDSDJdMQ==

>  <s_epik_cmdline>  (186) 
J2VwaWtfcHl0aG9uJywgJy1waHQnLCAnMi4wJywgJy1waCcsICc3LjAnLCAnLXRuJywgJzgnLCAnLW1hJywgJzIwMCcsICctaW1hZScsICc8aW5maWxlLm1hZT4nLCAnLW9tYWUnLCAnPG91dGZpbGUubWFlPic=

>  <r_epik_Ionization_Penalty>  (186) 
2.27257

>  <r_epik_Ionization_Penalty_Charging>  (186) 
2.27257

>  <r_epik_Ionization_Penalty_Neutral>  (186) 
5.4191e-07

>  <r_epik_State_Penalty>  (186) 
2.41583

>  <r_epik_Charging_Adjusted_Penalty>  (186) 
4.6884

>  <i_epik_Tot_Q>  (186) 
0

>  <i_epik_Tot_abs_Q>  (186) 
2

>  <s_lp_Force_Field>  (186) 
OPLS3e

>  <r_lp_Energy>  (186) 
124.144

>  <b_lp_Chiralities_Consistent>  (186) 
1

>  <s_lp_Variant>  (186) 
42:0-3

>  <s_i_glide_gridfile>  (186) 
pfpi4k_grid

>  <i_i_glide_lignum>  (186) 
26

>  <i_i_glide_rotatable_bonds>  (186) 
7

>  <r_i_docking_score>  (186) 
-3.74099

>  <r_i_glide_ligand_efficiency>  (186) 
-0.0795955

>  <r_i_glide_ligand_efficiency_sa>  (186) 
-0.287246

>  <r_i_glide_ligand_efficiency_ln>  (186) 
-0.771315

>  <r_i_glide_gscore>  (186) 
-3.74099

>  <r_i_glide_lipo>  (186) 
-0.253843

>  <r_i_glide_hbond>  (186) 
-0.301279

>  <r_i_glide_metal>  (186) 
-0

>  <r_i_glide_rewards>  (186) 
0

>  <r_i_glide_evdw>  (186) 
-32.5086

>  <r_i_glide_ecoul>  (186) 
-9.96555

>  <r_i_glide_erotb>  (186) 
0.0528036

>  <r_i_glide_esite>  (186) 
-0.11841

>  <r_i_glide_emodel>  (186) 
-50.3006

>  <r_i_glide_energy>  (186) 
-42.4741

>  <r_i_glide_einternal>  (186) 
7.97525

>  <r_i_glide_intrahb_reward>  (186) 
-0

>  <i_i_glide_confnum>  (186) 
1

>  <i_i_glide_posenum>  (186) 
38

>  <r_i_glide_eff_state_penalty>  (186) 
0

>  <ligand_id>  (186) 
42

>  <original_smiles>  (186) 
CC12CCC3C4(O)CCC(C1CC(OC1CC5(O)C6Cc7ccc(O)c8c7C5(CCN6CC5CC5)C1O8)C2O)C3(C)C(=O)CCC4=O

>  <smiles>  (186) 
[H]OC1([H])C([H])(OC2([H])C([H])([H])C3(O[H])C45c6c(c([O-])c([H])c([H])c6C([H])([H])C3([H])[N+]([H])(C([H])([H])C3([H])C([H])([H])C3([H])[H])C([H])([H])C4([H])[H])OC25[H])C([H])([H])C2([H])C3([H])C([H])([H])C([H])([H])C4(O[H])C(=O)C([H])([H])C([H])([H])C(=O)C3(C([H])([H])[H])C4([H])C([H])([H])C([H])([H])C12C([H])([H])[H]

$$$$
42:2:1
     RDKit          3D

 96105  0  0  1  0  0  0  0  0999 V2000
    0.2676   -0.3045    7.7734 C   0  0  0  0  0  0  0  0  0  0  0  0
    0.4392    0.1854    6.3120 C   0  0  1  0  0  0  0  0  0  0  0  0
   -0.8719    0.9112    5.9149 C   0  0  0  0  0  0  0  0  0  0  0  0
   -1.0961    2.3585    6.3883 C   0  0  0  0  0  0  0  0  0  0  0  0
   -0.2829    3.4745    5.6687 C   0  0  2  0  0  0  0  0  0  0  0  0
   -0.4966    3.4948    4.1014 C   0  0  2  0  0  0  0  0  0  0  0  0
   -1.8169    3.0487    3.8159 O   0  0  0  0  0  0  0  0  0  0  0  0
    0.4535    2.5130    3.3512 C   0  0  0  0  0  0  0  0  0  0  0  0
    1.8688    2.3631    3.9313 C   0  0  0  0  0  0  0  0  0  0  0  0
    1.9681    2.3225    5.4843 C   0  0  2  0  0  0  0  0  0  0  0  0
    1.8120    0.9356    6.1985 C   0  0  2  0  0  0  0  0  0  0  0  0
    2.8598   -0.1106    5.7321 C   0  0  0  0  0  0  0  0  0  0  0  0
    2.1276   -1.4213    5.4611 C   0  0  1  0  0  0  0  0  0  0  0  0
    2.2902   -2.2774    6.5883 O   0  0  0  0  0  0  0  0  0  0  0  0
    3.0416   -3.4735    6.4064 C   0  0  2  0  0  0  0  0  0  0  0  0
    2.5394   -4.3137    5.1870 C   0  0  0  0  0  0  0  0  0  0  0  0
    2.4923   -5.7730    5.6552 C   0  0  2  0  0  0  0  0  0  0  0  0
    3.7900   -6.2825    5.3743 O   0  0  0  0  0  0  0  0  0  0  0  0
    1.4235   -6.7592    5.0932 C   0  0  2  0  0  0  0  0  0  0  0  0
   -0.0287   -6.2139    5.2432 C   0  0  0  0  0  0  0  0  0  0  0  0
   -0.3543   -5.5242    6.5592 C   0  0  0  0  0  0  0  0  0  0  0  0
   -1.5982   -5.0491    6.9997 C   0  0  0  0  0  0  0  0  0  0  0  0
   -1.6697   -4.2524    8.1629 C   0  0  0  0  0  0  0  0  0  0  0  0
   -0.4905   -3.7937    8.8011 C   0  0  0  0  0  0  0  0  0  0  0  0
   -0.5894   -2.8862    9.8105 O   0  0  0  0  0  0  0  0  0  0  0  0
    0.7713   -4.2519    8.3608 C   0  0  0  0  0  0  0  0  0  0  0  0
    0.7568   -5.1737    7.3389 C   0  0  0  0  0  0  0  0  0  0  0  0
    2.1842   -5.6159    7.1294 C   0  0  1  0  0  0  0  0  0  0  0  0
    2.4478   -6.9569    7.8436 C   0  0  0  0  0  0  0  0  0  0  0  0
    1.5433   -8.0667    7.2500 C   0  0  0  0  0  0  0  0  0  0  0  0
    1.5801   -8.1054    5.7557 N   0  0  1  0  0  0  0  0  0  0  0  0
    0.7306   -9.1977    5.2032 C   0  0  0  0  0  0  0  0  0  0  0  0
    1.0908   -9.5255    3.7629 C   0  0  0  0  0  0  0  0  0  0  0  0
    0.6278  -10.8224    3.1489 C   0  0  0  0  0  0  0  0  0  0  0  0
    2.0871  -10.6249    3.4536 C   0  0  0  0  0  0  0  0  0  0  0  0
    2.9168   -4.3766    7.6719 C   0  0  2  0  0  0  0  0  0  0  0  0
    2.0370   -3.8483    8.6954 O   0  0  0  0  0  0  0  0  0  0  0  0
    0.6624   -1.0006    5.3437 C   0  0  1  0  0  0  0  0  0  0  0  0
   -0.2472   -2.0857    5.4447 O   0  0  0  0  0  0  0  0  0  0  0  0
    1.2219    3.5371    6.1309 C   0  0  2  0  0  0  0  0  0  0  0  0
    1.3448    3.5579    7.6814 C   0  0  0  0  0  0  0  0  0  0  0  0
    1.9598    4.8503    5.7234 C   0  0  0  0  0  0  0  0  0  0  0  0
    3.1728    4.9799    5.8902 O   0  0  0  0  0  0  0  0  0  0  0  0
    1.1836    6.0099    5.1218 C   0  0  0  0  0  0  0  0  0  0  0  0
    0.8708    5.7143    3.6589 C   0  0  0  0  0  0  0  0  0  0  0  0
   -0.4186    4.9232    3.5109 C   0  0  0  0  0  0  0  0  0  0  0  0
   -1.3685    5.4121    2.8846 O   0  0  0  0  0  0  0  0  0  0  0  0
   -0.5562   -1.0084    7.8544 H   0  0  0  0  0  0  0  0  0  0  0  0
    0.0589    0.5174    8.4582 H   0  0  0  0  0  0  0  0  0  0  0  0
    1.1483   -0.8155    8.1626 H   0  0  0  0  0  0  0  0  0  0  0  0
   -1.0513    0.8270    4.8529 H   0  0  0  0  0  0  0  0  0  0  0  0
   -1.6974    0.3283    6.3212 H   0  0  0  0  0  0  0  0  0  0  0  0
   -2.1530    2.5804    6.2411 H   0  0  0  0  0  0  0  0  0  0  0  0
   -1.0020    2.4242    7.4681 H   0  0  0  0  0  0  0  0  0  0  0  0
   -0.7544    4.3817    6.0468 H   0  0  0  0  0  0  0  0  0  0  0  0
   -1.8619    2.1218    3.9720 H   0  0  0  0  0  0  0  0  0  0  0  0
    0.0186    1.5244    3.2513 H   0  0  0  0  0  0  0  0  0  0  0  0
    0.5620    2.8265    2.3149 H   0  0  0  0  0  0  0  0  0  0  0  0
    2.3319    1.4894    3.4803 H   0  0  0  0  0  0  0  0  0  0  0  0
    2.4768    3.1926    3.5661 H   0  0  0  0  0  0  0  0  0  0  0  0
    3.0287    2.5043    5.6585 H   0  0  0  0  0  0  0  0  0  0  0  0
    2.1337    1.1264    7.2200 H   0  0  0  0  0  0  0  0  0  0  0  0
    3.3903    0.2011    4.8353 H   0  0  0  0  0  0  0  0  0  0  0  0
    3.6338   -0.2673    6.4848 H   0  0  0  0  0  0  0  0  0  0  0  0
    2.4760   -1.8522    4.5260 H   0  0  0  0  0  0  0  0  0  0  0  0
    4.0869   -3.2049    6.2621 H   0  0  0  0  0  0  0  0  0  0  0  0
    1.5352   -4.0007    4.9099 H   0  0  0  0  0  0  0  0  0  0  0  0
    3.1680   -4.1678    4.3037 H   0  0  0  0  0  0  0  0  0  0  0  0
    3.8959   -7.1487    5.7309 H   0  0  0  0  0  0  0  0  0  0  0  0
    1.6327   -6.8635    4.0280 H   0  0  0  0  0  0  0  0  0  0  0  0
   -0.1732   -5.4648    4.4647 H   0  0  0  0  0  0  0  0  0  0  0  0
   -0.7962   -6.9619    5.0408 H   0  0  0  0  0  0  0  0  0  0  0  0
   -2.5032   -5.3026    6.4615 H   0  0  0  0  0  0  0  0  0  0  0  0
   -2.6290   -3.9261    8.5003 H   0  0  0  0  0  0  0  0  0  0  0  0
    3.5010   -7.2388    7.7499 H   0  0  0  0  0  0  0  0  0  0  0  0
    2.2666   -6.8575    8.9167 H   0  0  0  0  0  0  0  0  0  0  0  0
    1.8593   -9.0321    7.6531 H   0  0  0  0  0  0  0  0  0  0  0  0
    0.5167   -7.9186    7.5934 H   0  0  0  0  0  0  0  0  0  0  0  0
    0.8656  -10.1015    5.8021 H   0  0  0  0  0  0  0  0  0  0  0  0
   -0.3385   -8.9867    5.2686 H   0  0  0  0  0  0  0  0  0  0  0  0
    1.0496   -8.6907    3.0598 H   0  0  0  0  0  0  0  0  0  0  0  0
    0.0700  -11.5054    3.7843 H   0  0  0  0  0  0  0  0  0  0  0  0
    0.3295  -10.7951    2.1016 H   0  0  0  0  0  0  0  0  0  0  0  0
    2.7625  -10.4558    2.6148 H   0  0  0  0  0  0  0  0  0  0  0  0
    2.5085  -11.1694    4.2999 H   0  0  0  0  0  0  0  0  0  0  0  0
    3.8991   -4.6182    8.0761 H   0  0  0  0  0  0  0  0  0  0  0  0
    0.5480   -0.6334    4.3227 H   0  0  0  0  0  0  0  0  0  0  0  0
   -0.9634   -1.9354    4.8531 H   0  0  0  0  0  0  0  0  0  0  0  0
    0.9671    2.6663    8.1715 H   0  0  0  0  0  0  0  0  0  0  0  0
    0.8033    4.4015    8.1105 H   0  0  0  0  0  0  0  0  0  0  0  0
    2.3824    3.6477    8.0048 H   0  0  0  0  0  0  0  0  0  0  0  0
    0.2911    6.2343    5.7028 H   0  0  0  0  0  0  0  0  0  0  0  0
    1.8163    6.8951    5.1720 H   0  0  0  0  0  0  0  0  0  0  0  0
    0.7523    6.6511    3.1254 H   0  0  0  0  0  0  0  0  0  0  0  0
    1.6820    5.1925    3.1533 H   0  0  0  0  0  0  0  0  0  0  0  0
    2.5183   -8.4132    5.5358 H   0  0  0  0  0  0  0  0  0  0  0  0
  2  1  1  1
  1 48  1  0
  1 49  1  0
  1 50  1  0
  2 11  1  0
  2 38  1  0
  2  3  1  0
  3  4  1  0
  3 51  1  0
  3 52  1  0
  4  5  1  0
  4 53  1  0
  4 54  1  0
  5 40  1  0
  5  6  1  0
  5 55  1  1
  6 46  1  0
  6  7  1  1
  6  8  1  0
  7 56  1  0
  8  9  1  0
  8 57  1  0
  8 58  1  0
  9 10  1  0
  9 59  1  0
  9 60  1  0
 10 11  1  0
 10 40  1  0
 10 61  1  6
 11 12  1  0
 11 62  1  1
 12 13  1  0
 12 63  1  0
 12 64  1  0
 13 14  1  0
 13 38  1  0
 13 65  1  6
 14 15  1  0
 15 36  1  0
 15 16  1  0
 15 66  1  6
 16 17  1  0
 16 67  1  0
 16 68  1  0
 17 28  1  0
 17 18  1  1
 17 19  1  0
 18 69  1  0
 19 31  1  0
 19 20  1  0
 19 70  1  6
 20 21  1  0
 20 71  1  0
 20 72  1  0
 21 27  2  0
 21 22  1  0
 22 23  2  0
 22 73  1  0
 23 24  1  0
 23 74  1  0
 24 25  1  0
 24 26  2  0
 26 37  1  0
 26 27  1  0
 27 28  1  0
 28 29  1  1
 28 36  1  0
 29 30  1  0
 29 75  1  0
 29 76  1  0
 30 31  1  0
 30 77  1  0
 30 78  1  0
 31 32  1  0
 31 96  1  1
 32 33  1  0
 32 79  1  0
 32 80  1  0
 33 35  1  0
 33 34  1  0
 33 81  1  0
 34 35  1  0
 34 82  1  0
 34 83  1  0
 35 84  1  0
 35 85  1  0
 36 37  1  0
 36 86  1  1
 38 39  1  0
 38 87  1  6
 39 88  1  0
 40 41  1  1
 40 42  1  0
 41 89  1  0
 41 90  1  0
 41 91  1  0
 42 43  2  0
 42 44  1  0
 44 45  1  0
 44 92  1  0
 44 93  1  0
 45 46  1  0
 45 94  1  0
 45 95  1  0
 46 47  2  0
M  CHG  2  25  -1  31   1
M  END
>  <i_m_ct_stereo_status>  (187) 
1

>  <s_m_source_file>  (187) 
/var/tmp/pbs.5076255.sched01/tmp5gbx45fw/500pp51iot.sdf

>  <i_m_source_file_index>  (187) 
26

>  <i_lp_mmshare_version>  (187) 
48012

>  <i_f3d_flags>  (187) 
0

>  <s_epik_input>  (187) 
Tz1DMVtDSDJdW0NIMl1DKD1PKVtDQEBdKFtPSF0pKFtDSDJdW0NIMl0yKVtDQEBIXShbQ0gyXVtDSDJdMylbQ0BAXTEoW0NIM10pW0NASF0yW0NAQEhdKFtDQEBdMzRbQ0gzXSlbQ0gyXVtDQEhdKFtDQEhdNFtPSF0pT1tDQEhdKFtDSDJdNSlbQ0BIXTZPYyhjKFtPSF0pW2NIXVtjSF03KWM4YzdbQ0gyXVtDQEBIXShbQ0BAXTUoW0NAQF02ODkpW09IXSlOKFtDSDJdW0NIMl05KVtDSDJdW0NIXTFbQ0gyXVtDSDJdMQ==

>  <s_epik_cmdline>  (187) 
J2VwaWtfcHl0aG9uJywgJy1waHQnLCAnMi4wJywgJy1waCcsICc3LjAnLCAnLXRuJywgJzgnLCAnLW1hJywgJzIwMCcsICctaW1hZScsICc8aW5maWxlLm1hZT4nLCAnLW9tYWUnLCAnPG91dGZpbGUubWFlPic=

>  <r_epik_Ionization_Penalty>  (187) 
2.27257

>  <r_epik_Ionization_Penalty_Charging>  (187) 
2.27257

>  <r_epik_Ionization_Penalty_Neutral>  (187) 
5.4191e-07

>  <r_epik_State_Penalty>  (187) 
2.41583

>  <r_epik_Charging_Adjusted_Penalty>  (187) 
4.6884

>  <i_epik_Tot_Q>  (187) 
0

>  <i_epik_Tot_abs_Q>  (187) 
2

>  <s_lp_Force_Field>  (187) 
OPLS3e

>  <r_lp_Energy>  (187) 
124.144

>  <b_lp_Chiralities_Consistent>  (187) 
1

>  <s_lp_Variant>  (187) 
42:0-3

>  <s_i_glide_gridfile>  (187) 
pfpi4k_grid

>  <i_i_glide_lignum>  (187) 
26

>  <i_i_glide_rotatable_bonds>  (187) 
7

>  <r_i_docking_score>  (187) 
-3.51777

>  <r_i_glide_ligand_efficiency>  (187) 
-0.0748462

>  <r_i_glide_ligand_efficiency_sa>  (187) 
-0.270107

>  <r_i_glide_ligand_efficiency_ln>  (187) 
-0.725291

>  <r_i_glide_gscore>  (187) 
-3.51777

>  <r_i_glide_lipo>  (187) 
-0.210522

>  <r_i_glide_hbond>  (187) 
-0.36

>  <r_i_glide_metal>  (187) 
-0

>  <r_i_glide_rewards>  (187) 
0

>  <r_i_glide_evdw>  (187) 
-28.7739

>  <r_i_glide_ecoul>  (187) 
-9.6529

>  <r_i_glide_erotb>  (187) 
0.0528036

>  <r_i_glide_esite>  (187) 
-0.113425

>  <r_i_glide_emodel>  (187) 
-47.0763

>  <r_i_glide_energy>  (187) 
-38.4268

>  <r_i_glide_einternal>  (187) 
6.39378

>  <r_i_glide_intrahb_reward>  (187) 
-0

>  <i_i_glide_confnum>  (187) 
1

>  <i_i_glide_posenum>  (187) 
3

>  <r_i_glide_eff_state_penalty>  (187) 
0

>  <ligand_id>  (187) 
42

>  <original_smiles>  (187) 
CC12CCC3C4(O)CCC(C1CC(OC1CC5(O)C6Cc7ccc(O)c8c7C5(CCN6CC5CC5)C1O8)C2O)C3(C)C(=O)CCC4=O

>  <smiles>  (187) 
[H]OC1([H])C([H])(OC2([H])C([H])([H])C3(O[H])C45c6c(c([O-])c([H])c([H])c6C([H])([H])C3([H])[N+]([H])(C([H])([H])C3([H])C([H])([H])C3([H])[H])C([H])([H])C4([H])[H])OC25[H])C([H])([H])C2([H])C3([H])C([H])([H])C([H])([H])C4(O[H])C(=O)C([H])([H])C([H])([H])C(=O)C3(C([H])([H])[H])C4([H])C([H])([H])C([H])([H])C12C([H])([H])[H]

$$$$
42:2:2
     RDKit          3D

 96105  0  0  1  0  0  0  0  0999 V2000
    0.7359   -0.8254    7.6557 C   0  0  0  0  0  0  0  0  0  0  0  0
    0.6699   -0.2896    6.1982 C   0  0  1  0  0  0  0  0  0  0  0  0
   -0.7221    0.3663    6.0110 C   0  0  0  0  0  0  0  0  0  0  0  0
   -0.9615    1.7866    6.5550 C   0  0  0  0  0  0  0  0  0  0  0  0
   -0.3294    2.9659    5.7564 C   0  0  2  0  0  0  0  0  0  0  0  0
   -0.7604    3.0077    4.2372 C   0  0  2  0  0  0  0  0  0  0  0  0
   -2.0824    2.4937    4.1202 O   0  0  0  0  0  0  0  0  0  0  0  0
    0.1164    2.1066    3.3264 C   0  0  0  0  0  0  0  0  0  0  0  0
    1.6070    2.0299    3.7008 C   0  0  0  0  0  0  0  0  0  0  0  0
    1.9318    1.9569    5.2232 C   0  0  2  0  0  0  0  0  0  0  0  0
    1.9652    0.5436    5.9084 C   0  0  2  0  0  0  0  0  0  0  0  0
    2.9890   -0.4312    5.2598 C   0  0  0  0  0  0  0  0  0  0  0  0
    2.3002   -1.7862    5.0614 C   0  0  1  0  0  0  0  0  0  0  0  0
    2.6747   -2.6385    6.1358 O   0  0  0  0  0  0  0  0  0  0  0  0
    3.5140   -3.7451    5.8234 C   0  0  2  0  0  0  0  0  0  0  0  0
    2.7810   -4.7666    4.8984 C   0  0  0  0  0  0  0  0  0  0  0  0
    3.0859   -6.1596    5.4780 C   0  0  2  0  0  0  0  0  0  0  0  0
    4.2976   -6.5573    4.8458 O   0  0  0  0  0  0  0  0  0  0  0  0
    2.0499   -7.3211    5.3677 C   0  0  2  0  0  0  0  0  0  0  0  0
    0.6530   -6.9362    5.9350 C   0  0  0  0  0  0  0  0  0  0  0  0
    0.6633   -6.1494    7.2393 C   0  0  0  0  0  0  0  0  0  0  0  0
   -0.4334   -5.7605    8.0169 C   0  0  0  0  0  0  0  0  0  0  0  0
   -0.2797   -4.8053    9.0429 C   0  0  0  0  0  0  0  0  0  0  0  0
    0.9563   -4.1548    9.2400 C   0  0  0  0  0  0  0  0  0  0  0  0
    1.0449   -3.1568   10.1630 O   0  0  0  0  0  0  0  0  0  0  0  0
    2.0744   -4.5198    8.4535 C   0  0  0  0  0  0  0  0  0  0  0  0
    1.8884   -5.5616    7.5778 C   0  0  0  0  0  0  0  0  0  0  0  0
    3.2249   -5.8636    6.9559 C   0  0  1  0  0  0  0  0  0  0  0  0
    3.8810   -7.0696    7.6572 C   0  0  0  0  0  0  0  0  0  0  0  0
    3.0075   -8.3371    7.4750 C   0  0  0  0  0  0  0  0  0  0  0  0
    2.5954   -8.5563    6.0516 N   0  0  1  0  0  0  0  0  0  0  0  0
    1.7788   -9.7946    5.8880 C   0  0  0  0  0  0  0  0  0  0  0  0
    1.6819  -10.2448    4.4348 C   0  0  0  0  0  0  0  0  0  0  0  0
    0.9828  -11.5361    4.0958 C   0  0  0  0  0  0  0  0  0  0  0  0
    2.4756  -11.4404    3.9490 C   0  0  0  0  0  0  0  0  0  0  0  0
    3.9025   -4.4973    7.1322 C   0  0  2  0  0  0  0  0  0  0  0  0
    3.3085   -3.9426    8.3307 O   0  0  0  0  0  0  0  0  0  0  0  0
    0.8123   -1.4354    5.1701 C   0  0  1  0  0  0  0  0  0  0  0  0
   -0.0365   -2.5507    5.3757 O   0  0  0  0  0  0  0  0  0  0  0  0
    1.2182    3.1096    6.0070 C   0  0  2  0  0  0  0  0  0  0  0  0
    1.5631    3.1051    7.5252 C   0  0  0  0  0  0  0  0  0  0  0  0
    1.8110    4.4768    5.5423 C   0  0  0  0  0  0  0  0  0  0  0  0
    3.0249    4.6796    5.5379 O   0  0  0  0  0  0  0  0  0  0  0  0
    0.8894    5.5997    5.0949 C   0  0  0  0  0  0  0  0  0  0  0  0
    0.4005    5.3282    3.6778 C   0  0  0  0  0  0  0  0  0  0  0  0
   -0.8443    4.4536    3.6867 C   0  0  0  0  0  0  0  0  0  0  0  0
   -1.9011    4.9297    3.2807 O   0  0  0  0  0  0  0  0  0  0  0  0
   -0.0202   -1.5861    7.8480 H   0  0  0  0  0  0  0  0  0  0  0  0
    0.5845   -0.0301    8.3850 H   0  0  0  0  0  0  0  0  0  0  0  0
    1.6958   -1.2806    7.8979 H   0  0  0  0  0  0  0  0  0  0  0  0
   -1.0486    0.2938    4.9837 H   0  0  0  0  0  0  0  0  0  0  0  0
   -1.4427   -0.2816    6.5062 H   0  0  0  0  0  0  0  0  0  0  0  0
   -2.0394    1.9450    6.5703 H   0  0  0  0  0  0  0  0  0  0  0  0
   -0.7172    1.8336    7.6137 H   0  0  0  0  0  0  0  0  0  0  0  0
   -0.7942    3.8311    6.2282 H   0  0  0  0  0  0  0  0  0  0  0  0
   -2.0495    1.5578    4.2373 H   0  0  0  0  0  0  0  0  0  0  0  0
   -0.2681    1.0925    3.2660 H   0  0  0  0  0  0  0  0  0  0  0  0
    0.0465    2.4531    2.2938 H   0  0  0  0  0  0  0  0  0  0  0  0
    2.0508    1.1958    3.1643 H   0  0  0  0  0  0  0  0  0  0  0  0
    2.1077    2.9049    3.2816 H   0  0  0  0  0  0  0  0  0  0  0  0
    2.9935    2.2026    5.2515 H   0  0  0  0  0  0  0  0  0  0  0  0
    2.4181    0.7336    6.8793 H   0  0  0  0  0  0  0  0  0  0  0  0
    3.3655   -0.0589    4.3101 H   0  0  0  0  0  0  0  0  0  0  0  0
    3.8725   -0.5489    5.8894 H   0  0  0  0  0  0  0  0  0  0  0  0
    2.5361   -2.2154    4.0884 H   0  0  0  0  0  0  0  0  0  0  0  0
    4.4208   -3.3866    5.3394 H   0  0  0  0  0  0  0  0  0  0  0  0
    1.7098   -4.5847    4.9332 H   0  0  0  0  0  0  0  0  0  0  0  0
    3.0799   -4.6671    3.8520 H   0  0  0  0  0  0  0  0  0  0  0  0
    4.6349   -7.3497    5.2321 H   0  0  0  0  0  0  0  0  0  0  0  0
    1.9398   -7.5129    4.3004 H   0  0  0  0  0  0  0  0  0  0  0  0
    0.1693   -6.3095    5.1840 H   0  0  0  0  0  0  0  0  0  0  0  0
   -0.0192   -7.7900    6.0369 H   0  0  0  0  0  0  0  0  0  0  0  0
   -1.3930   -6.1696    7.7946 H   0  0  0  0  0  0  0  0  0  0  0  0
   -1.1388   -4.5336    9.6308 H   0  0  0  0  0  0  0  0  0  0  0  0
    4.8832   -7.2433    7.2599 H   0  0  0  0  0  0  0  0  0  0  0  0
    4.0192   -6.8604    8.7199 H   0  0  0  0  0  0  0  0  0  0  0  0
    3.5633   -9.2053    7.8381 H   0  0  0  0  0  0  0  0  0  0  0  0
    2.1253   -8.2633    8.1156 H   0  0  0  0  0  0  0  0  0  0  0  0
    2.2437  -10.6010    6.4596 H   0  0  0  0  0  0  0  0  0  0  0  0
    0.7785   -9.7056    6.3163 H   0  0  0  0  0  0  0  0  0  0  0  0
    1.4732   -9.4652    3.6992 H   0  0  0  0  0  0  0  0  0  0  0  0
    0.5776  -12.1285    4.9159 H   0  0  0  0  0  0  0  0  0  0  0  0
    0.3933  -11.5329    3.1824 H   0  0  0  0  0  0  0  0  0  0  0  0
    2.8794  -11.3709    2.9397 H   0  0  0  0  0  0  0  0  0  0  0  0
    3.0933  -11.9716    4.6753 H   0  0  0  0  0  0  0  0  0  0  0  0
    4.9861   -4.5818    7.2198 H   0  0  0  0  0  0  0  0  0  0  0  0
    0.5319   -1.0507    4.1884 H   0  0  0  0  0  0  0  0  0  0  0  0
    0.1982   -3.2109    4.7439 H   0  0  0  0  0  0  0  0  0  0  0  0
    1.3146    2.1812    8.0381 H   0  0  0  0  0  0  0  0  0  0  0  0
    1.0419    3.9046    8.0539 H   0  0  0  0  0  0  0  0  0  0  0  0
    2.6300    3.2538    7.6995 H   0  0  0  0  0  0  0  0  0  0  0  0
    0.0760    5.7537    5.8036 H   0  0  0  0  0  0  0  0  0  0  0  0
    1.4719    6.5194    5.0848 H   0  0  0  0  0  0  0  0  0  0  0  0
    0.1327    6.2722    3.1978 H   0  0  0  0  0  0  0  0  0  0  0  0
    1.1603    4.8706    3.0452 H   0  0  0  0  0  0  0  0  0  0  0  0
    3.4545   -8.7868    5.5722 H   0  0  0  0  0  0  0  0  0  0  0  0
  2  1  1  1
  1 48  1  0
  1 49  1  0
  1 50  1  0
  2 11  1  0
  2 38  1  0
  2  3  1  0
  3  4  1  0
  3 51  1  0
  3 52  1  0
  4  5  1  0
  4 53  1  0
  4 54  1  0
  5 40  1  0
  5  6  1  0
  5 55  1  1
  6 46  1  0
  6  7  1  1
  6  8  1  0
  7 56  1  0
  8  9  1  0
  8 57  1  0
  8 58  1  0
  9 10  1  0
  9 59  1  0
  9 60  1  0
 10 11  1  0
 10 40  1  0
 10 61  1  6
 11 12  1  0
 11 62  1  1
 12 13  1  0
 12 63  1  0
 12 64  1  0
 13 14  1  0
 13 38  1  0
 13 65  1  6
 14 15  1  0
 15 36  1  0
 15 16  1  0
 15 66  1  6
 16 17  1  0
 16 67  1  0
 16 68  1  0
 17 28  1  0
 17 18  1  6
 17 19  1  0
 18 69  1  0
 19 31  1  0
 19 20  1  0
 19 70  1  6
 20 21  1  0
 20 71  1  0
 20 72  1  0
 21 27  2  0
 21 22  1  0
 22 23  2  0
 22 73  1  0
 23 24  1  0
 23 74  1  0
 24 25  1  0
 24 26  2  0
 26 37  1  0
 26 27  1  0
 27 28  1  0
 28 29  1  1
 28 36  1  0
 29 30  1  0
 29 75  1  0
 29 76  1  0
 30 31  1  0
 30 77  1  0
 30 78  1  0
 31 32  1  0
 31 96  1  6
 32 33  1  0
 32 79  1  0
 32 80  1  0
 33 35  1  0
 33 34  1  0
 33 81  1  0
 34 35  1  0
 34 82  1  0
 34 83  1  0
 35 84  1  0
 35 85  1  0
 36 37  1  0
 36 86  1  1
 38 39  1  0
 38 87  1  6
 39 88  1  0
 40 41  1  1
 40 42  1  0
 41 89  1  0
 41 90  1  0
 41 91  1  0
 42 43  2  0
 42 44  1  0
 44 45  1  0
 44 92  1  0
 44 93  1  0
 45 46  1  0
 45 94  1  0
 45 95  1  0
 46 47  2  0
M  CHG  2  25  -1  31   1
M  END
>  <i_m_ct_stereo_status>  (188) 
1

>  <s_m_source_file>  (188) 
/var/tmp/pbs.5076255.sched01/tmp5gbx45fw/500pp51iot.sdf

>  <i_m_source_file_index>  (188) 
26

>  <i_lp_mmshare_version>  (188) 
48012

>  <i_f3d_flags>  (188) 
0

>  <s_epik_input>  (188) 
Tz1DMVtDSDJdW0NIMl1DKD1PKVtDQEBdKFtPSF0pKFtDSDJdW0NIMl0yKVtDQEBIXShbQ0gyXVtDSDJdMylbQ0BAXTEoW0NIM10pW0NASF0yW0NAQEhdKFtDQEBdMzRbQ0gzXSlbQ0gyXVtDQEhdKFtDQEhdNFtPSF0pT1tDQEhdKFtDSDJdNSlbQ0BIXTZPYyhjKFtPSF0pW2NIXVtjSF03KWM4YzdbQ0gyXVtDQEBIXShbQ0BAXTUoW0NAQF02ODkpW09IXSlOKFtDSDJdW0NIMl05KVtDSDJdW0NIXTFbQ0gyXVtDSDJdMQ==

>  <s_epik_cmdline>  (188) 
J2VwaWtfcHl0aG9uJywgJy1waHQnLCAnMi4wJywgJy1waCcsICc3LjAnLCAnLXRuJywgJzgnLCAnLW1hJywgJzIwMCcsICctaW1hZScsICc8aW5maWxlLm1hZT4nLCAnLW9tYWUnLCAnPG91dGZpbGUubWFlPic=

>  <r_epik_Ionization_Penalty>  (188) 
2.27257

>  <r_epik_Ionization_Penalty_Charging>  (188) 
2.27257

>  <r_epik_Ionization_Penalty_Neutral>  (188) 
5.4191e-07

>  <r_epik_State_Penalty>  (188) 
2.41583

>  <r_epik_Charging_Adjusted_Penalty>  (188) 
4.6884

>  <i_epik_Tot_Q>  (188) 
0

>  <i_epik_Tot_abs_Q>  (188) 
2

>  <s_lp_Force_Field>  (188) 
OPLS3e

>  <r_lp_Energy>  (188) 
124.144

>  <b_lp_Chiralities_Consistent>  (188) 
1

>  <s_lp_Variant>  (188) 
42:0-3

>  <s_i_glide_gridfile>  (188) 
pfpi4k_grid

>  <i_i_glide_lignum>  (188) 
26

>  <i_i_glide_rotatable_bonds>  (188) 
7

>  <r_i_docking_score>  (188) 
-3.15171

>  <r_i_glide_ligand_efficiency>  (188) 
-0.0670578

>  <r_i_glide_ligand_efficiency_sa>  (188) 
-0.242

>  <r_i_glide_ligand_efficiency_ln>  (188) 
-0.649818

>  <r_i_glide_gscore>  (188) 
-3.15171

>  <r_i_glide_lipo>  (188) 
-0.104658

>  <r_i_glide_hbond>  (188) 
-0.16

>  <r_i_glide_metal>  (188) 
-0

>  <r_i_glide_rewards>  (188) 
0

>  <r_i_glide_evdw>  (188) 
-28.8035

>  <r_i_glide_ecoul>  (188) 
-9.23798

>  <r_i_glide_erotb>  (188) 
0.0528036

>  <r_i_glide_esite>  (188) 
-0.113988

>  <r_i_glide_emodel>  (188) 
-46.9858

>  <r_i_glide_energy>  (188) 
-38.0415

>  <r_i_glide_einternal>  (188) 
3.63144

>  <r_i_glide_intrahb_reward>  (188) 
-0

>  <i_i_glide_confnum>  (188) 
1

>  <i_i_glide_posenum>  (188) 
27

>  <r_i_glide_eff_state_penalty>  (188) 
0

>  <ligand_id>  (188) 
42

>  <original_smiles>  (188) 
CC12CCC3C4(O)CCC(C1CC(OC1CC5(O)C6Cc7ccc(O)c8c7C5(CCN6CC5CC5)C1O8)C2O)C3(C)C(=O)CCC4=O

>  <smiles>  (188) 
[H]OC1([H])C([H])(OC2([H])C([H])([H])C3(O[H])C45c6c(c([O-])c([H])c([H])c6C([H])([H])C3([H])[N+]([H])(C([H])([H])C3([H])C([H])([H])C3([H])[H])C([H])([H])C4([H])[H])OC25[H])C([H])([H])C2([H])C3([H])C([H])([H])C([H])([H])C4(O[H])C(=O)C([H])([H])C([H])([H])C(=O)C3(C([H])([H])[H])C4([H])C([H])([H])C([H])([H])C12C([H])([H])[H]

$$$$
43:0:0
     RDKit          3D

 37 39  0  0  1  0  0  0  0  0999 V2000
  -11.5970  -10.1473   -8.2537 C   0  0  0  0  0  0  0  0  0  0  0  0
  -10.1317  -10.1983   -7.8819 C   0  0  0  0  0  0  0  0  0  0  0  0
   -9.3578   -9.1791   -8.0326 N   0  0  0  0  0  0  0  0  0  0  0  0
   -7.9024   -9.2181   -7.8101 C   0  0  1  0  0  0  0  0  0  0  0  0
   -7.4781   -7.9680   -7.0018 C   0  0  0  0  0  0  0  0  0  0  0  0
   -6.6173   -8.0489   -5.8780 C   0  0  0  0  0  0  0  0  0  0  0  0
   -6.2203   -6.9015   -5.1679 C   0  0  0  0  0  0  0  0  0  0  0  0
   -6.7062   -5.6418   -5.5447 C   0  0  0  0  0  0  0  0  0  0  0  0
   -6.1940   -4.2395   -4.6938 Cl  0  0  0  0  0  0  0  0  0  0  0  0
   -7.5875   -5.5339   -6.6388 C   0  0  0  0  0  0  0  0  0  0  0  0
   -7.9552   -6.6878   -7.3718 C   0  0  0  0  0  0  0  0  0  0  0  0
   -7.4564  -10.5523   -7.1704 C   0  0  2  0  0  0  0  0  0  0  0  0
   -5.9980  -10.9940   -7.2245 C   0  0  0  0  0  0  0  0  0  0  0  0
   -5.0434  -10.2950   -7.4757 O   0  0  0  0  0  0  0  0  0  0  0  0
   -5.9197  -12.4943   -6.9949 C   0  0  0  0  0  0  0  0  0  0  0  0
   -7.4161  -12.9212   -6.9787 C   0  0  0  0  0  0  0  0  0  0  0  0
   -8.1818  -11.7806   -7.7101 C   0  0  2  0  0  0  0  0  0  0  0  0
   -8.0395  -11.9921   -9.2455 C   0  0  0  0  0  0  0  0  0  0  0  0
   -9.6603  -11.5517   -7.3483 C   0  0  0  0  0  0  0  0  0  0  0  0
  -11.7971  -10.8751   -9.0396 H   0  0  0  0  0  0  0  0  0  0  0  0
  -11.8472   -9.1606   -8.6426 H   0  0  0  0  0  0  0  0  0  0  0  0
  -12.2422  -10.3584   -7.4037 H   0  0  0  0  0  0  0  0  0  0  0  0
   -7.4256   -9.1212   -8.7845 H   0  0  0  0  0  0  0  0  0  0  0  0
   -6.2259   -8.9686   -5.4788 H   0  0  0  0  0  0  0  0  0  0  0  0
   -5.5407   -7.0158   -4.3329 H   0  0  0  0  0  0  0  0  0  0  0  0
   -7.9580   -4.5599   -6.9361 H   0  0  0  0  0  0  0  0  0  0  0  0
   -8.6265   -6.5874   -8.2142 H   0  0  0  0  0  0  0  0  0  0  0  0
   -7.7163  -10.5085   -6.1178 H   0  0  0  0  0  0  0  0  0  0  0  0
   -5.3695  -12.9519   -7.8158 H   0  0  0  0  0  0  0  0  0  0  0  0
   -5.4097  -12.7045   -6.0587 H   0  0  0  0  0  0  0  0  0  0  0  0
   -7.5616  -13.8976   -7.4531 H   0  0  0  0  0  0  0  0  0  0  0  0
   -7.7435  -12.9891   -5.9407 H   0  0  0  0  0  0  0  0  0  0  0  0
   -8.5914  -12.8852   -9.5552 H   0  0  0  0  0  0  0  0  0  0  0  0
   -7.0005  -12.1227   -9.5550 H   0  0  0  0  0  0  0  0  0  0  0  0
   -8.4351  -11.1505   -9.8189 H   0  0  0  0  0  0  0  0  0  0  0  0
   -9.7667  -11.5288   -6.2574 H   0  0  0  0  0  0  0  0  0  0  0  0
  -10.2988  -12.3670   -7.7025 H   0  0  0  0  0  0  0  0  0  0  0  0
  1  2  1  0
  1 20  1  0
  1 21  1  0
  1 22  1  0
  2 19  1  0
  2  3  2  0
  3  4  1  0
  4  5  1  0
  4 12  1  0
  4 23  1  6
  5 11  1  0
  5  6  2  0
  6  7  1  0
  6 24  1  0
  7  8  2  0
  7 25  1  0
  8  9  1  0
  8 10  1  0
 10 11  2  0
 10 26  1  0
 11 27  1  0
 12 17  1  0
 12 13  1  0
 12 28  1  1
 13 14  2  0
 13 15  1  0
 15 16  1  0
 15 29  1  0
 15 30  1  0
 16 17  1  0
 16 31  1  0
 16 32  1  0
 17 18  1  6
 17 19  1  0
 18 33  1  0
 18 34  1  0
 18 35  1  0
 19 36  1  0
 19 37  1  0
M  END
>  <i_m_ct_stereo_status>  (189) 
1

>  <s_m_source_file>  (189) 
/var/tmp/pbs.5076255.sched01/tmp5gbx45fw/500pp51iot.sdf

>  <i_m_source_file_index>  (189) 
27

>  <i_lp_mmshare_version>  (189) 
48012

>  <i_f3d_flags>  (189) 
0

>  <s_epik_input>  (189) 
W0NIMl0xW0NIMl1DKD1PKVtDQEhdKFtDQEBdMTJbQ0gzXSlbQ0BASF0oTj1DKFtDSDNdKVtDSDJdMiljM1tjSF1bY0hdYyhDbClbY0hdW2NIXTM=

>  <s_epik_cmdline>  (189) 
J2VwaWtfcHl0aG9uJywgJy1waHQnLCAnMi4wJywgJy1waCcsICc3LjAnLCAnLXRuJywgJzgnLCAnLW1hJywgJzIwMCcsICctaW1hZScsICc8aW5maWxlLm1hZT4nLCAnLW9tYWUnLCAnPG91dGZpbGUubWFlPic=

>  <r_lp_tautomer_probability>  (189) 
0.999984

>  <r_epik_Ionization_Penalty>  (189) 
0.0838646

>  <r_epik_Ionization_Penalty_Charging>  (189) 
0

>  <r_epik_Ionization_Penalty_Neutral>  (189) 
0.0838646

>  <r_epik_State_Penalty>  (189) 
0.0745096

>  <r_epik_Charging_Adjusted_Penalty>  (189) 
0.0745096

>  <i_epik_Tot_Q>  (189) 
0

>  <i_epik_Tot_abs_Q>  (189) 
0

>  <s_epik_Chemistry_Notes>  (189) 
This compound has an imine and may undergo hydrolysis.

>  <s_lp_Force_Field>  (189) 
OPLS3e

>  <r_lp_Energy>  (189) 
11.5037

>  <b_lp_Chiralities_Consistent>  (189) 
1

>  <s_lp_Variant>  (189) 
43:0-1

>  <s_i_glide_gridfile>  (189) 
pfpi4k_grid

>  <i_i_glide_lignum>  (189) 
27

>  <i_i_glide_rotatable_bonds>  (189) 
1

>  <r_i_docking_score>  (189) 
-5.52005

>  <r_i_glide_ligand_efficiency>  (189) 
-0.290529

>  <r_i_glide_ligand_efficiency_sa>  (189) 
-0.775249

>  <r_i_glide_ligand_efficiency_ln>  (189) 
-1.39945

>  <r_i_glide_gscore>  (189) 
-5.52005

>  <r_i_glide_lipo>  (189) 
-2.23519

>  <r_i_glide_hbond>  (189) 
0

>  <r_i_glide_metal>  (189) 
-0

>  <r_i_glide_rewards>  (189) 
-2.17734

>  <r_i_glide_evdw>  (189) 
-26.2359

>  <r_i_glide_ecoul>  (189) 
-0.214323

>  <r_i_glide_erotb>  (189) 
0.236423

>  <r_i_glide_esite>  (189) 
0

>  <r_i_glide_emodel>  (189) 
-32.6391

>  <r_i_glide_energy>  (189) 
-26.4503

>  <r_i_glide_einternal>  (189) 
4.01781

>  <r_i_glide_intrahb_reward>  (189) 
-0

>  <i_i_glide_confnum>  (189) 
4

>  <i_i_glide_posenum>  (189) 
3

>  <r_i_glide_eff_state_penalty>  (189) 
0

>  <ligand_id>  (189) 
43

>  <original_smiles>  (189) 
CC1=NC(c2ccc(Cl)cc2)C2C(=O)CCC2(C)C1

>  <smiles>  (189) 
[H]c1c([H])c(C2([H])N=C(C([H])([H])[H])C([H])([H])C3(C([H])([H])[H])C([H])([H])C([H])([H])C(=O)C23[H])c([H])c([H])c1Cl

$$$$
43:0:1
     RDKit          3D

 37 39  0  0  1  0  0  0  0  0999 V2000
  -12.1412   -8.8556   -8.6835 C   0  0  0  0  0  0  0  0  0  0  0  0
  -10.6907   -9.1163   -8.3361 C   0  0  0  0  0  0  0  0  0  0  0  0
   -9.8290   -8.1702   -8.3372 N   0  0  0  0  0  0  0  0  0  0  0  0
   -8.3751   -8.3924   -8.1575 C   0  0  1  0  0  0  0  0  0  0  0  0
   -7.8299   -7.3421   -7.1729 C   0  0  0  0  0  0  0  0  0  0  0  0
   -6.9674   -7.6953   -6.0943 C   0  0  0  0  0  0  0  0  0  0  0  0
   -6.4661   -6.7213   -5.2312 C   0  0  0  0  0  0  0  0  0  0  0  0
   -6.8316   -5.3825   -5.3892 C   0  0  0  0  0  0  0  0  0  0  0  0
   -6.1851   -4.2076   -4.3222 Cl  0  0  0  0  0  0  0  0  0  0  0  0
   -7.7090   -5.0038   -6.4234 C   0  0  0  0  0  0  0  0  0  0  0  0
   -8.1863   -5.9816   -7.3163 C   0  0  0  0  0  0  0  0  0  0  0  0
   -8.0558   -9.8508   -7.7473 C   0  0  2  0  0  0  0  0  0  0  0  0
   -6.6617  -10.4245   -7.8814 C   0  0  0  0  0  0  0  0  0  0  0  0
   -5.6126   -9.7894   -7.9630 O   0  0  0  0  0  0  0  0  0  0  0  0
   -6.7432  -11.9379   -7.9112 C   0  0  0  0  0  0  0  0  0  0  0  0
   -8.2675  -12.2051   -7.9381 C   0  0  0  0  0  0  0  0  0  0  0  0
   -8.9100  -10.8961   -8.4653 C   0  0  2  0  0  0  0  0  0  0  0  0
   -8.7999  -10.8739  -10.0171 C   0  0  0  0  0  0  0  0  0  0  0  0
  -10.3610  -10.5838   -8.0286 C   0  0  0  0  0  0  0  0  0  0  0  0
  -12.4128   -9.4242   -9.5755 H   0  0  0  0  0  0  0  0  0  0  0  0
  -12.2968   -7.8025   -8.9039 H   0  0  0  0  0  0  0  0  0  0  0  0
  -12.8171   -9.1438   -7.8762 H   0  0  0  0  0  0  0  0  0  0  0  0
   -7.8908   -8.1878   -9.1151 H   0  0  0  0  0  0  0  0  0  0  0  0
   -6.6690   -8.7070   -5.8702 H   0  0  0  0  0  0  0  0  0  0  0  0
   -5.7919   -7.0193   -4.4313 H   0  0  0  0  0  0  0  0  0  0  0  0
   -7.9898   -3.9629   -6.5363 H   0  0  0  0  0  0  0  0  0  0  0  0
   -8.8605   -5.6799   -8.1172 H   0  0  0  0  0  0  0  0  0  0  0  0
   -8.3090   -9.9435   -6.6959 H   0  0  0  0  0  0  0  0  0  0  0  0
   -6.2377  -12.3141   -8.8049 H   0  0  0  0  0  0  0  0  0  0  0  0
   -6.2542  -12.3521   -7.0288 H   0  0  0  0  0  0  0  0  0  0  0  0
   -8.5137  -13.0721   -8.5596 H   0  0  0  0  0  0  0  0  0  0  0  0
   -8.6063  -12.4149   -6.9190 H   0  0  0  0  0  0  0  0  0  0  0  0
   -9.4378  -11.6429  -10.4488 H   0  0  0  0  0  0  0  0  0  0  0  0
   -7.7841  -11.0589  -10.3570 H   0  0  0  0  0  0  0  0  0  0  0  0
   -9.1053   -9.9156  -10.4383 H   0  0  0  0  0  0  0  0  0  0  0  0
  -10.4608  -10.7254   -6.9533 H   0  0  0  0  0  0  0  0  0  0  0  0
  -11.0750  -11.2573   -8.5065 H   0  0  0  0  0  0  0  0  0  0  0  0
  1  2  1  0
  1 20  1  0
  1 21  1  0
  1 22  1  0
  2 19  1  0
  2  3  2  0
  3  4  1  0
  4  5  1  0
  4 12  1  0
  4 23  1  6
  5 11  1  0
  5  6  2  0
  6  7  1  0
  6 24  1  0
  7  8  2  0
  7 25  1  0
  8  9  1  0
  8 10  1  0
 10 11  2  0
 10 26  1  0
 11 27  1  0
 12 17  1  0
 12 13  1  0
 12 28  1  1
 13 14  2  0
 13 15  1  0
 15 16  1  0
 15 29  1  0
 15 30  1  0
 16 17  1  0
 16 31  1  0
 16 32  1  0
 17 18  1  6
 17 19  1  0
 18 33  1  0
 18 34  1  0
 18 35  1  0
 19 36  1  0
 19 37  1  0
M  END
>  <i_m_ct_stereo_status>  (190) 
1

>  <s_m_source_file>  (190) 
/var/tmp/pbs.5076255.sched01/tmp5gbx45fw/500pp51iot.sdf

>  <i_m_source_file_index>  (190) 
27

>  <i_lp_mmshare_version>  (190) 
48012

>  <i_f3d_flags>  (190) 
0

>  <s_epik_input>  (190) 
W0NIMl0xW0NIMl1DKD1PKVtDQEhdKFtDQEBdMTJbQ0gzXSlbQ0BASF0oTj1DKFtDSDNdKVtDSDJdMiljM1tjSF1bY0hdYyhDbClbY0hdW2NIXTM=

>  <s_epik_cmdline>  (190) 
J2VwaWtfcHl0aG9uJywgJy1waHQnLCAnMi4wJywgJy1waCcsICc3LjAnLCAnLXRuJywgJzgnLCAnLW1hJywgJzIwMCcsICctaW1hZScsICc8aW5maWxlLm1hZT4nLCAnLW9tYWUnLCAnPG91dGZpbGUubWFlPic=

>  <r_lp_tautomer_probability>  (190) 
0.999984

>  <r_epik_Ionization_Penalty>  (190) 
0.0838646

>  <r_epik_Ionization_Penalty_Charging>  (190) 
0

>  <r_epik_Ionization_Penalty_Neutral>  (190) 
0.0838646

>  <r_epik_State_Penalty>  (190) 
0.0745096

>  <r_epik_Charging_Adjusted_Penalty>  (190) 
0.0745096

>  <i_epik_Tot_Q>  (190) 
0

>  <i_epik_Tot_abs_Q>  (190) 
0

>  <s_epik_Chemistry_Notes>  (190) 
This compound has an imine and may undergo hydrolysis.

>  <s_lp_Force_Field>  (190) 
OPLS3e

>  <r_lp_Energy>  (190) 
11.5037

>  <b_lp_Chiralities_Consistent>  (190) 
1

>  <s_lp_Variant>  (190) 
43:0-1

>  <s_i_glide_gridfile>  (190) 
pfpi4k_grid

>  <i_i_glide_lignum>  (190) 
27

>  <i_i_glide_rotatable_bonds>  (190) 
1

>  <r_i_docking_score>  (190) 
-5.39888

>  <r_i_glide_ligand_efficiency>  (190) 
-0.284151

>  <r_i_glide_ligand_efficiency_sa>  (190) 
-0.75823

>  <r_i_glide_ligand_efficiency_ln>  (190) 
-1.36873

>  <r_i_glide_gscore>  (190) 
-5.39888

>  <r_i_glide_lipo>  (190) 
-2.08855

>  <r_i_glide_hbond>  (190) 
0

>  <r_i_glide_metal>  (190) 
-0

>  <r_i_glide_rewards>  (190) 
-2.25175

>  <r_i_glide_evdw>  (190) 
-24.5159

>  <r_i_glide_ecoul>  (190) 
-0.428773

>  <r_i_glide_erotb>  (190) 
0.236423

>  <r_i_glide_esite>  (190) 
-0.00488018

>  <r_i_glide_emodel>  (190) 
-30.9333

>  <r_i_glide_energy>  (190) 
-24.9447

>  <r_i_glide_einternal>  (190) 
4.1133

>  <r_i_glide_intrahb_reward>  (190) 
-0

>  <i_i_glide_confnum>  (190) 
5

>  <i_i_glide_posenum>  (190) 
33

>  <r_i_glide_eff_state_penalty>  (190) 
0

>  <ligand_id>  (190) 
43

>  <original_smiles>  (190) 
CC1=NC(c2ccc(Cl)cc2)C2C(=O)CCC2(C)C1

>  <smiles>  (190) 
[H]c1c([H])c(C2([H])N=C(C([H])([H])[H])C([H])([H])C3(C([H])([H])[H])C([H])([H])C([H])([H])C(=O)C23[H])c([H])c([H])c1Cl

$$$$
43:0:2
     RDKit          3D

 37 39  0  0  1  0  0  0  0  0999 V2000
  -11.9861   -6.3998  -10.6066 C   0  0  0  0  0  0  0  0  0  0  0  0
  -11.1473   -7.2658   -9.6921 C   0  0  0  0  0  0  0  0  0  0  0  0
   -9.9258   -6.9427   -9.4288 N   0  0  0  0  0  0  0  0  0  0  0  0
   -9.0248   -7.7912   -8.6205 C   0  0  1  0  0  0  0  0  0  0  0  0
   -8.3203   -6.9244   -7.5516 C   0  0  0  0  0  0  0  0  0  0  0  0
   -7.1191   -7.3810   -6.9736 C   0  0  0  0  0  0  0  0  0  0  0  0
   -6.4967   -6.6635   -5.9384 C   0  0  0  0  0  0  0  0  0  0  0  0
   -7.0216   -5.4287   -5.5221 C   0  0  0  0  0  0  0  0  0  0  0  0
   -6.1920   -4.4976   -4.3235 Cl  0  0  0  0  0  0  0  0  0  0  0  0
   -8.1948   -4.9336   -6.1144 C   0  0  0  0  0  0  0  0  0  0  0  0
   -8.8496   -5.6833   -7.1145 C   0  0  0  0  0  0  0  0  0  0  0  0
   -9.7513   -9.0316   -8.0139 C   0  0  2  0  0  0  0  0  0  0  0  0
   -8.9996  -10.2787   -7.5340 C   0  0  0  0  0  0  0  0  0  0  0  0
   -7.8270  -10.3551   -7.2095 O   0  0  0  0  0  0  0  0  0  0  0  0
   -9.9402  -11.4749   -7.5615 C   0  0  0  0  0  0  0  0  0  0  0  0
  -11.2317  -10.9102   -8.2026 C   0  0  0  0  0  0  0  0  0  0  0  0
  -10.7835   -9.6429   -8.9760 C   0  0  2  0  0  0  0  0  0  0  0  0
  -10.2031  -10.0901  -10.3539 C   0  0  0  0  0  0  0  0  0  0  0  0
  -11.8348   -8.5369   -9.1869 C   0  0  0  0  0  0  0  0  0  0  0  0
  -12.2387   -6.9515  -11.5125 H   0  0  0  0  0  0  0  0  0  0  0  0
  -11.4353   -5.5045  -10.8952 H   0  0  0  0  0  0  0  0  0  0  0  0
  -12.9221   -6.0960  -10.1383 H   0  0  0  0  0  0  0  0  0  0  0  0
   -8.2384   -8.1518   -9.2889 H   0  0  0  0  0  0  0  0  0  0  0  0
   -6.6605   -8.3011   -7.3137 H   0  0  0  0  0  0  0  0  0  0  0  0
   -5.5928   -7.0532   -5.4902 H   0  0  0  0  0  0  0  0  0  0  0  0
   -8.5919   -3.9725   -5.8043 H   0  0  0  0  0  0  0  0  0  0  0  0
   -9.7665   -5.2823   -7.5182 H   0  0  0  0  0  0  0  0  0  0  0  0
  -10.2964   -8.6769   -7.1451 H   0  0  0  0  0  0  0  0  0  0  0  0
   -9.4920  -12.2605   -8.1756 H   0  0  0  0  0  0  0  0  0  0  0  0
  -10.1065  -11.8600   -6.5538 H   0  0  0  0  0  0  0  0  0  0  0  0
  -11.7185  -11.6459   -8.8530 H   0  0  0  0  0  0  0  0  0  0  0  0
  -11.9362  -10.6376   -7.4113 H   0  0  0  0  0  0  0  0  0  0  0  0
  -10.9986  -10.5029  -10.9773 H   0  0  0  0  0  0  0  0  0  0  0  0
   -9.4346  -10.8580  -10.2534 H   0  0  0  0  0  0  0  0  0  0  0  0
   -9.7548   -9.2686  -10.9151 H   0  0  0  0  0  0  0  0  0  0  0  0
  -12.3360   -8.3106   -8.2447 H   0  0  0  0  0  0  0  0  0  0  0  0
  -12.6136   -8.8589   -9.8837 H   0  0  0  0  0  0  0  0  0  0  0  0
  1  2  1  0
  1 20  1  0
  1 21  1  0
  1 22  1  0
  2 19  1  0
  2  3  2  0
  3  4  1  0
  4  5  1  0
  4 12  1  0
  4 23  1  6
  5 11  1  0
  5  6  2  0
  6  7  1  0
  6 24  1  0
  7  8  2  0
  7 25  1  0
  8  9  1  0
  8 10  1  0
 10 11  2  0
 10 26  1  0
 11 27  1  0
 12 17  1  0
 12 13  1  0
 12 28  1  1
 13 14  2  0
 13 15  1  0
 15 16  1  0
 15 29  1  0
 15 30  1  0
 16 17  1  0
 16 31  1  0
 16 32  1  0
 17 18  1  6
 17 19  1  0
 18 33  1  0
 18 34  1  0
 18 35  1  0
 19 36  1  0
 19 37  1  0
M  END
>  <i_m_ct_stereo_status>  (191) 
1

>  <s_m_source_file>  (191) 
/var/tmp/pbs.5076255.sched01/tmp5gbx45fw/500pp51iot.sdf

>  <i_m_source_file_index>  (191) 
27

>  <i_lp_mmshare_version>  (191) 
48012

>  <i_f3d_flags>  (191) 
0

>  <s_epik_input>  (191) 
W0NIMl0xW0NIMl1DKD1PKVtDQEhdKFtDQEBdMTJbQ0gzXSlbQ0BASF0oTj1DKFtDSDNdKVtDSDJdMiljM1tjSF1bY0hdYyhDbClbY0hdW2NIXTM=

>  <s_epik_cmdline>  (191) 
J2VwaWtfcHl0aG9uJywgJy1waHQnLCAnMi4wJywgJy1waCcsICc3LjAnLCAnLXRuJywgJzgnLCAnLW1hJywgJzIwMCcsICctaW1hZScsICc8aW5maWxlLm1hZT4nLCAnLW9tYWUnLCAnPG91dGZpbGUubWFlPic=

>  <r_lp_tautomer_probability>  (191) 
0.999984

>  <r_epik_Ionization_Penalty>  (191) 
0.0838646

>  <r_epik_Ionization_Penalty_Charging>  (191) 
0

>  <r_epik_Ionization_Penalty_Neutral>  (191) 
0.0838646

>  <r_epik_State_Penalty>  (191) 
0.0745096

>  <r_epik_Charging_Adjusted_Penalty>  (191) 
0.0745096

>  <i_epik_Tot_Q>  (191) 
0

>  <i_epik_Tot_abs_Q>  (191) 
0

>  <s_epik_Chemistry_Notes>  (191) 
This compound has an imine and may undergo hydrolysis.

>  <s_lp_Force_Field>  (191) 
OPLS3e

>  <r_lp_Energy>  (191) 
11.5037

>  <b_lp_Chiralities_Consistent>  (191) 
1

>  <s_lp_Variant>  (191) 
43:0-1

>  <s_i_glide_gridfile>  (191) 
pfpi4k_grid

>  <i_i_glide_lignum>  (191) 
27

>  <i_i_glide_rotatable_bonds>  (191) 
1

>  <r_i_docking_score>  (191) 
-5.21842

>  <r_i_glide_ligand_efficiency>  (191) 
-0.274653

>  <r_i_glide_ligand_efficiency_sa>  (191) 
-0.732886

>  <r_i_glide_ligand_efficiency_ln>  (191) 
-1.32298

>  <r_i_glide_gscore>  (191) 
-5.21842

>  <r_i_glide_lipo>  (191) 
-1.86037

>  <r_i_glide_hbond>  (191) 
0

>  <r_i_glide_metal>  (191) 
-0

>  <r_i_glide_rewards>  (191) 
-2.19342

>  <r_i_glide_evdw>  (191) 
-23.3918

>  <r_i_glide_ecoul>  (191) 
-1.36412

>  <r_i_glide_erotb>  (191) 
0.236423

>  <r_i_glide_esite>  (191) 
-0.0268435

>  <r_i_glide_emodel>  (191) 
-31.1391

>  <r_i_glide_energy>  (191) 
-24.7559

>  <r_i_glide_einternal>  (191) 
2.43044

>  <r_i_glide_intrahb_reward>  (191) 
-0

>  <i_i_glide_confnum>  (191) 
2

>  <i_i_glide_posenum>  (191) 
4

>  <r_i_glide_eff_state_penalty>  (191) 
0

>  <ligand_id>  (191) 
43

>  <original_smiles>  (191) 
CC1=NC(c2ccc(Cl)cc2)C2C(=O)CCC2(C)C1

>  <smiles>  (191) 
[H]c1c([H])c(C2([H])N=C(C([H])([H])[H])C([H])([H])C3(C([H])([H])[H])C([H])([H])C([H])([H])C(=O)C23[H])c([H])c([H])c1Cl

$$$$
43:1:0
     RDKit          3D

 38 40  0  0  1  0  0  0  0  0999 V2000
  -12.1208   -9.8229   -7.9187 C   0  0  0  0  0  0  0  0  0  0  0  0
  -10.6278   -9.9826   -7.9229 C   0  0  0  0  0  0  0  0  0  0  0  0
   -9.8615   -8.9172   -7.9467 N   0  0  0  0  0  0  0  0  0  0  0  0
   -8.3590   -8.8913   -7.9534 C   0  0  1  0  0  0  0  0  0  0  0  0
   -7.8297   -7.7227   -7.1184 C   0  0  0  0  0  0  0  0  0  0  0  0
   -6.9921   -7.9303   -5.9922 C   0  0  0  0  0  0  0  0  0  0  0  0
   -6.4956   -6.8471   -5.2543 C   0  0  0  0  0  0  0  0  0  0  0  0
   -6.8518   -5.5322   -5.5995 C   0  0  0  0  0  0  0  0  0  0  0  0
   -6.1841   -4.2391   -4.6920 Cl  0  0  0  0  0  0  0  0  0  0  0  0
   -7.7149   -5.3011   -6.6844 C   0  0  0  0  0  0  0  0  0  0  0  0
   -8.1868   -6.3940   -7.4500 C   0  0  0  0  0  0  0  0  0  0  0  0
   -7.8391  -10.2758   -7.5204 C   0  0  2  0  0  0  0  0  0  0  0  0
   -6.3749  -10.6588   -7.6427 C   0  0  0  0  0  0  0  0  0  0  0  0
   -5.4167   -9.8854   -7.7318 O   0  0  0  0  0  0  0  0  0  0  0  0
   -6.2638  -12.1709   -7.7168 C   0  0  0  0  0  0  0  0  0  0  0  0
   -7.7412  -12.6361   -7.7783 C   0  0  0  0  0  0  0  0  0  0  0  0
   -8.5494  -11.4096   -8.2698 C   0  0  2  0  0  0  0  0  0  0  0  0
   -8.4277  -11.3275   -9.8191 C   0  0  0  0  0  0  0  0  0  0  0  0
  -10.0377  -11.3919   -7.8576 C   0  0  0  0  0  0  0  0  0  0  0  0
  -12.5968  -10.7836   -7.7120 H   0  0  0  0  0  0  0  0  0  0  0  0
  -12.4707   -9.4675   -8.8851 H   0  0  0  0  0  0  0  0  0  0  0  0
  -12.4306   -9.1199   -7.1439 H   0  0  0  0  0  0  0  0  0  0  0  0
   -8.0912   -8.6929   -8.9904 H   0  0  0  0  0  0  0  0  0  0  0  0
   -6.7046   -8.9069   -5.6372 H   0  0  0  0  0  0  0  0  0  0  0  0
   -5.8267   -7.0152   -4.4205 H   0  0  0  0  0  0  0  0  0  0  0  0
   -7.9779   -4.2869   -6.9620 H   0  0  0  0  0  0  0  0  0  0  0  0
   -8.8181   -6.1982   -8.3027 H   0  0  0  0  0  0  0  0  0  0  0  0
   -8.0893  -10.4026   -6.4702 H   0  0  0  0  0  0  0  0  0  0  0  0
   -5.7063  -12.4589   -8.6120 H   0  0  0  0  0  0  0  0  0  0  0  0
   -5.7386  -12.5496   -6.8377 H   0  0  0  0  0  0  0  0  0  0  0  0
   -7.8646  -13.5185   -8.4147 H   0  0  0  0  0  0  0  0  0  0  0  0
   -8.0585  -12.9115   -6.7669 H   0  0  0  0  0  0  0  0  0  0  0  0
   -8.8523  -12.2185  -10.2903 H   0  0  0  0  0  0  0  0  0  0  0  0
   -7.3947  -11.2582  -10.1529 H   0  0  0  0  0  0  0  0  0  0  0  0
   -8.9504  -10.4646  -10.2373 H   0  0  0  0  0  0  0  0  0  0  0  0
  -10.1653  -11.7599   -6.8349 H   0  0  0  0  0  0  0  0  0  0  0  0
  -10.6104  -12.0564   -8.5134 H   0  0  0  0  0  0  0  0  0  0  0  0
  -10.3346   -8.0082   -7.9568 H   0  0  0  0  0  0  0  0  0  0  0  0
  1  2  1  0
  1 20  1  0
  1 21  1  0
  1 22  1  0
  2 19  1  0
  2  3  2  0
  3  4  1  0
  3 38  1  0
  4  5  1  0
  4 12  1  0
  4 23  1  6
  5 11  1  0
  5  6  2  0
  6  7  1  0
  6 24  1  0
  7  8  2  0
  7 25  1  0
  8  9  1  0
  8 10  1  0
 10 11  2  0
 10 26  1  0
 11 27  1  0
 12 17  1  0
 12 13  1  0
 12 28  1  1
 13 14  2  0
 13 15  1  0
 15 16  1  0
 15 29  1  0
 15 30  1  0
 16 17  1  0
 16 31  1  0
 16 32  1  0
 17 18  1  6
 17 19  1  0
 18 33  1  0
 18 34  1  0
 18 35  1  0
 19 36  1  0
 19 37  1  0
M  CHG  1   3   1
M  END
>  <i_m_ct_stereo_status>  (192) 
1

>  <s_m_source_file>  (192) 
/var/tmp/pbs.5076255.sched01/tmp5gbx45fw/500pp51iot.sdf

>  <i_m_source_file_index>  (192) 
28

>  <i_lp_mmshare_version>  (192) 
48012

>  <i_f3d_flags>  (192) 
0

>  <s_epik_input>  (192) 
W0NIMl0xW0NIMl1DKD1PKVtDQEhdKFtDQEBdMTJbQ0gzXSlbQ0BASF0oTj1DKFtDSDNdKVtDSDJdMiljM1tjSF1bY0hdYyhDbClbY0hdW2NIXTM=

>  <s_epik_cmdline>  (192) 
J2VwaWtfcHl0aG9uJywgJy1waHQnLCAnMi4wJywgJy1waCcsICc3LjAnLCAnLXRuJywgJzgnLCAnLW1hJywgJzIwMCcsICctaW1hZScsICc8aW5maWxlLm1hZT4nLCAnLW9tYWUnLCAnPG91dGZpbGUubWFlPic=

>  <r_lp_tautomer_probability>  (192) 
1

>  <r_epik_Ionization_Penalty>  (192) 
1.20085

>  <r_epik_Ionization_Penalty_Charging>  (192) 
1.19982

>  <r_epik_Ionization_Penalty_Neutral>  (192) 
0.00103162

>  <r_epik_State_Penalty>  (192) 
1.26532

>  <r_epik_Charging_Adjusted_Penalty>  (192) 
2.46514

>  <i_epik_Tot_Q>  (192) 
1

>  <i_epik_Tot_abs_Q>  (192) 
1

>  <s_epik_Chemistry_Notes>  (192) 
This compound has an imine and may undergo hydrolysis.

>  <s_lp_Force_Field>  (192) 
OPLS3e

>  <r_lp_Energy>  (192) 
20.7668

>  <b_lp_Chiralities_Consistent>  (192) 
1

>  <s_lp_Variant>  (192) 
43:0-2

>  <s_i_glide_gridfile>  (192) 
pfpi4k_grid

>  <i_i_glide_lignum>  (192) 
28

>  <i_i_glide_rotatable_bonds>  (192) 
1

>  <r_i_docking_score>  (192) 
-5.6232

>  <r_i_glide_ligand_efficiency>  (192) 
-0.295958

>  <r_i_glide_ligand_efficiency_sa>  (192) 
-0.789734

>  <r_i_glide_ligand_efficiency_ln>  (192) 
-1.4256

>  <r_i_glide_gscore>  (192) 
-5.6232

>  <r_i_glide_lipo>  (192) 
-2.03895

>  <r_i_glide_hbond>  (192) 
0

>  <r_i_glide_metal>  (192) 
-0

>  <r_i_glide_rewards>  (192) 
-2.10666

>  <r_i_glide_evdw>  (192) 
-27.0041

>  <r_i_glide_ecoul>  (192) 
-2.37099

>  <r_i_glide_erotb>  (192) 
0.234931

>  <r_i_glide_esite>  (192) 
-0.00666693

>  <r_i_glide_emodel>  (192) 
-37.2867

>  <r_i_glide_energy>  (192) 
-29.3751

>  <r_i_glide_einternal>  (192) 
3.32027

>  <r_i_glide_intrahb_reward>  (192) 
-0

>  <i_i_glide_confnum>  (192) 
1

>  <i_i_glide_posenum>  (192) 
1

>  <r_i_glide_eff_state_penalty>  (192) 
0

>  <ligand_id>  (192) 
43

>  <original_smiles>  (192) 
CC1=NC(c2ccc(Cl)cc2)C2C(=O)CCC2(C)C1

>  <smiles>  (192) 
[H]c1c([H])c(C2([H])[N+]([H])=C(C([H])([H])[H])C([H])([H])C3(C([H])([H])[H])C([H])([H])C([H])([H])C(=O)C23[H])c([H])c([H])c1Cl

$$$$
43:1:1
     RDKit          3D

 38 40  0  0  1  0  0  0  0  0999 V2000
  -12.7044   -8.2330   -8.4648 C   0  0  0  0  0  0  0  0  0  0  0  0
  -11.2647   -8.6352   -8.4741 C   0  0  0  0  0  0  0  0  0  0  0  0
  -10.3467   -7.7031   -8.3353 N   0  0  0  0  0  0  0  0  0  0  0  0
   -8.8699   -7.9182   -8.3364 C   0  0  1  0  0  0  0  0  0  0  0  0
   -8.1982   -6.9821   -7.3230 C   0  0  0  0  0  0  0  0  0  0  0  0
   -8.3877   -5.5799   -7.4161 C   0  0  0  0  0  0  0  0  0  0  0  0
   -7.7894   -4.7043   -6.4727 C   0  0  0  0  0  0  0  0  0  0  0  0
   -6.9587   -5.2187   -5.4553 C   0  0  0  0  0  0  0  0  0  0  0  0
   -6.1844   -4.1976   -4.3173 Cl  0  0  0  0  0  0  0  0  0  0  0  0
   -6.7601   -6.6020   -5.3565 C   0  0  0  0  0  0  0  0  0  0  0  0
   -7.4011   -7.4747   -6.2489 C   0  0  0  0  0  0  0  0  0  0  0  0
   -8.5735   -9.4182   -8.1183 C   0  0  2  0  0  0  0  0  0  0  0  0
   -7.1843  -10.0142   -8.2990 C   0  0  0  0  0  0  0  0  0  0  0  0
   -6.1242   -9.4062   -8.2906 O   0  0  0  0  0  0  0  0  0  0  0  0
   -7.3074  -11.5000   -8.5738 C   0  0  0  0  0  0  0  0  0  0  0  0
   -8.8346  -11.7010   -8.7029 C   0  0  0  0  0  0  0  0  0  0  0  0
   -9.4299  -10.3010   -9.0147 C   0  0  2  0  0  0  0  0  0  0  0  0
   -9.2499  -10.0198  -10.5357 C   0  0  0  0  0  0  0  0  0  0  0  0
  -10.9060  -10.1080   -8.6031 C   0  0  0  0  0  0  0  0  0  0  0  0
  -13.3383   -9.1249   -8.3991 H   0  0  0  0  0  0  0  0  0  0  0  0
  -12.9773   -7.6949   -9.3806 H   0  0  0  0  0  0  0  0  0  0  0  0
  -12.9428   -7.5967   -7.6033 H   0  0  0  0  0  0  0  0  0  0  0  0
   -8.5408   -7.6086   -9.3278 H   0  0  0  0  0  0  0  0  0  0  0  0
   -8.9930   -5.1498   -8.2094 H   0  0  0  0  0  0  0  0  0  0  0  0
   -7.9323   -3.6312   -6.5474 H   0  0  0  0  0  0  0  0  0  0  0  0
   -6.1352   -7.0169   -4.5722 H   0  0  0  0  0  0  0  0  0  0  0  0
   -7.2412   -8.5235   -6.0330 H   0  0  0  0  0  0  0  0  0  0  0  0
   -8.8636   -9.6516   -7.1010 H   0  0  0  0  0  0  0  0  0  0  0  0
   -6.7702  -11.7397   -9.4942 H   0  0  0  0  0  0  0  0  0  0  0  0
   -6.8720  -12.0576   -7.7447 H   0  0  0  0  0  0  0  0  0  0  0  0
   -9.0760  -12.4551   -9.4668 H   0  0  0  0  0  0  0  0  0  0  0  0
   -9.2190  -12.0619   -7.7375 H   0  0  0  0  0  0  0  0  0  0  0  0
   -9.7913  -10.7597  -11.1318 H   0  0  0  0  0  0  0  0  0  0  0  0
   -8.2050  -10.0652  -10.8458 H   0  0  0  0  0  0  0  0  0  0  0  0
   -9.6237   -9.0363  -10.8241 H   0  0  0  0  0  0  0  0  0  0  0  0
  -11.1187  -10.6046   -7.6479 H   0  0  0  0  0  0  0  0  0  0  0  0
  -11.5492  -10.5763   -9.3550 H   0  0  0  0  0  0  0  0  0  0  0  0
  -10.6907   -6.7546   -8.2128 H   0  0  0  0  0  0  0  0  0  0  0  0
  1  2  1  0
  1 20  1  0
  1 21  1  0
  1 22  1  0
  2 19  1  0
  2  3  2  0
  3  4  1  0
  3 38  1  0
  4  5  1  0
  4 12  1  0
  4 23  1  6
  5 11  1  0
  5  6  2  0
  6  7  1  0
  6 24  1  0
  7  8  2  0
  7 25  1  0
  8  9  1  0
  8 10  1  0
 10 11  2  0
 10 26  1  0
 11 27  1  0
 12 17  1  0
 12 13  1  0
 12 28  1  1
 13 14  2  0
 13 15  1  0
 15 16  1  0
 15 29  1  0
 15 30  1  0
 16 17  1  0
 16 31  1  0
 16 32  1  0
 17 18  1  6
 17 19  1  0
 18 33  1  0
 18 34  1  0
 18 35  1  0
 19 36  1  0
 19 37  1  0
M  CHG  1   3   1
M  END
>  <i_m_ct_stereo_status>  (193) 
1

>  <s_m_source_file>  (193) 
/var/tmp/pbs.5076255.sched01/tmp5gbx45fw/500pp51iot.sdf

>  <i_m_source_file_index>  (193) 
28

>  <i_lp_mmshare_version>  (193) 
48012

>  <i_f3d_flags>  (193) 
0

>  <s_epik_input>  (193) 
W0NIMl0xW0NIMl1DKD1PKVtDQEhdKFtDQEBdMTJbQ0gzXSlbQ0BASF0oTj1DKFtDSDNdKVtDSDJdMiljM1tjSF1bY0hdYyhDbClbY0hdW2NIXTM=

>  <s_epik_cmdline>  (193) 
J2VwaWtfcHl0aG9uJywgJy1waHQnLCAnMi4wJywgJy1waCcsICc3LjAnLCAnLXRuJywgJzgnLCAnLW1hJywgJzIwMCcsICctaW1hZScsICc8aW5maWxlLm1hZT4nLCAnLW9tYWUnLCAnPG91dGZpbGUubWFlPic=

>  <r_lp_tautomer_probability>  (193) 
1

>  <r_epik_Ionization_Penalty>  (193) 
1.20085

>  <r_epik_Ionization_Penalty_Charging>  (193) 
1.19982

>  <r_epik_Ionization_Penalty_Neutral>  (193) 
0.00103162

>  <r_epik_State_Penalty>  (193) 
1.26532

>  <r_epik_Charging_Adjusted_Penalty>  (193) 
2.46514

>  <i_epik_Tot_Q>  (193) 
1

>  <i_epik_Tot_abs_Q>  (193) 
1

>  <s_epik_Chemistry_Notes>  (193) 
This compound has an imine and may undergo hydrolysis.

>  <s_lp_Force_Field>  (193) 
OPLS3e

>  <r_lp_Energy>  (193) 
20.7668

>  <b_lp_Chiralities_Consistent>  (193) 
1

>  <s_lp_Variant>  (193) 
43:0-2

>  <s_i_glide_gridfile>  (193) 
pfpi4k_grid

>  <i_i_glide_lignum>  (193) 
28

>  <i_i_glide_rotatable_bonds>  (193) 
1

>  <r_i_docking_score>  (193) 
-5.55006

>  <r_i_glide_ligand_efficiency>  (193) 
-0.292108

>  <r_i_glide_ligand_efficiency_sa>  (193) 
-0.779462

>  <r_i_glide_ligand_efficiency_ln>  (193) 
-1.40706

>  <r_i_glide_gscore>  (193) 
-5.55006

>  <r_i_glide_lipo>  (193) 
-1.95977

>  <r_i_glide_hbond>  (193) 
0

>  <r_i_glide_metal>  (193) 
-0

>  <r_i_glide_rewards>  (193) 
-2.12344

>  <r_i_glide_evdw>  (193) 
-24.8572

>  <r_i_glide_ecoul>  (193) 
-2.90422

>  <r_i_glide_erotb>  (193) 
0.234931

>  <r_i_glide_esite>  (193) 
-0.0232829

>  <r_i_glide_emodel>  (193) 
-34.9766

>  <r_i_glide_energy>  (193) 
-27.7614

>  <r_i_glide_einternal>  (193) 
4.28732

>  <r_i_glide_intrahb_reward>  (193) 
-0

>  <i_i_glide_confnum>  (193) 
2

>  <i_i_glide_posenum>  (193) 
4

>  <r_i_glide_eff_state_penalty>  (193) 
0

>  <ligand_id>  (193) 
43

>  <original_smiles>  (193) 
CC1=NC(c2ccc(Cl)cc2)C2C(=O)CCC2(C)C1

>  <smiles>  (193) 
[H]c1c([H])c(C2([H])[N+]([H])=C(C([H])([H])[H])C([H])([H])C3(C([H])([H])[H])C([H])([H])C([H])([H])C(=O)C23[H])c([H])c([H])c1Cl

$$$$
43:1:2
     RDKit          3D

 38 40  0  0  1  0  0  0  0  0999 V2000
  -11.7864   -6.8581   -9.9174 C   0  0  0  0  0  0  0  0  0  0  0  0
  -11.1160   -8.1216   -9.4720 C   0  0  0  0  0  0  0  0  0  0  0  0
   -9.8184   -8.1346   -9.3233 N   0  0  0  0  0  0  0  0  0  0  0  0
   -8.9865   -9.2860   -8.8442 C   0  0  1  0  0  0  0  0  0  0  0  0
   -7.8734   -8.7997   -7.9159 C   0  0  0  0  0  0  0  0  0  0  0  0
   -6.6692   -9.5378   -7.8194 C   0  0  0  0  0  0  0  0  0  0  0  0
   -5.6493   -9.1356   -6.9397 C   0  0  0  0  0  0  0  0  0  0  0  0
   -5.8041   -7.9664   -6.1718 C   0  0  0  0  0  0  0  0  0  0  0  0
   -4.5543   -7.4573   -5.1143 Cl  0  0  0  0  0  0  0  0  0  0  0  0
   -6.9861   -7.2156   -6.2706 C   0  0  0  0  0  0  0  0  0  0  0  0
   -8.0162   -7.6301   -7.1308 C   0  0  0  0  0  0  0  0  0  0  0  0
   -9.9123  -10.3414   -8.2028 C   0  0  2  0  0  0  0  0  0  0  0  0
   -9.4333  -11.7411   -7.8472 C   0  0  0  0  0  0  0  0  0  0  0  0
   -8.2865  -12.0719   -7.5566 O   0  0  0  0  0  0  0  0  0  0  0  0
  -10.6067  -12.7016   -7.8856 C   0  0  0  0  0  0  0  0  0  0  0  0
  -11.7716  -11.8214   -8.3856 C   0  0  0  0  0  0  0  0  0  0  0  0
  -11.1150  -10.6308   -9.1125 C   0  0  2  0  0  0  0  0  0  0  0  0
  -10.7395  -11.0948  -10.5542 C   0  0  0  0  0  0  0  0  0  0  0  0
  -11.9717   -9.3464   -9.1799 C   0  0  0  0  0  0  0  0  0  0  0  0
  -12.8697   -6.9666   -9.8483 H   0  0  0  0  0  0  0  0  0  0  0  0
  -11.5349   -6.6368  -10.9558 H   0  0  0  0  0  0  0  0  0  0  0  0
  -11.5006   -6.0149   -9.2860 H   0  0  0  0  0  0  0  0  0  0  0  0
   -8.5153   -9.6830   -9.7426 H   0  0  0  0  0  0  0  0  0  0  0  0
   -6.5292  -10.4400   -8.4002 H   0  0  0  0  0  0  0  0  0  0  0  0
   -4.7442   -9.7213   -6.8453 H   0  0  0  0  0  0  0  0  0  0  0  0
   -7.1034   -6.3242   -5.6736 H   0  0  0  0  0  0  0  0  0  0  0  0
   -8.9235   -7.0412   -7.1537 H   0  0  0  0  0  0  0  0  0  0  0  0
  -10.2845   -9.9208   -7.2650 H   0  0  0  0  0  0  0  0  0  0  0  0
  -10.3748  -13.5234   -8.5692 H   0  0  0  0  0  0  0  0  0  0  0  0
  -10.7875  -13.0992   -6.8878 H   0  0  0  0  0  0  0  0  0  0  0  0
  -12.4577  -12.3881   -9.0206 H   0  0  0  0  0  0  0  0  0  0  0  0
  -12.3356  -11.4527   -7.5290 H   0  0  0  0  0  0  0  0  0  0  0  0
  -11.6368  -11.3800  -11.1056 H   0  0  0  0  0  0  0  0  0  0  0  0
  -10.0791  -11.9618  -10.5600 H   0  0  0  0  0  0  0  0  0  0  0  0
  -10.2514  -10.3126  -11.1407 H   0  0  0  0  0  0  0  0  0  0  0  0
  -12.5097   -9.1813   -8.2419 H   0  0  0  0  0  0  0  0  0  0  0  0
  -12.7266   -9.4548   -9.9605 H   0  0  0  0  0  0  0  0  0  0  0  0
   -9.3105   -7.2683   -9.4802 H   0  0  0  0  0  0  0  0  0  0  0  0
  1  2  1  0
  1 20  1  0
  1 21  1  0
  1 22  1  0
  2 19  1  0
  2  3  2  0
  3  4  1  0
  3 38  1  0
  4  5  1  0
  4 12  1  0
  4 23  1  6
  5 11  1  0
  5  6  2  0
  6  7  1  0
  6 24  1  0
  7  8  2  0
  7 25  1  0
  8  9  1  0
  8 10  1  0
 10 11  2  0
 10 26  1  0
 11 27  1  0
 12 17  1  0
 12 13  1  0
 12 28  1  1
 13 14  2  0
 13 15  1  0
 15 16  1  0
 15 29  1  0
 15 30  1  0
 16 17  1  0
 16 31  1  0
 16 32  1  0
 17 18  1  6
 17 19  1  0
 18 33  1  0
 18 34  1  0
 18 35  1  0
 19 36  1  0
 19 37  1  0
M  CHG  1   3   1
M  END
>  <i_m_ct_stereo_status>  (194) 
1

>  <s_m_source_file>  (194) 
/var/tmp/pbs.5076255.sched01/tmp5gbx45fw/500pp51iot.sdf

>  <i_m_source_file_index>  (194) 
28

>  <i_lp_mmshare_version>  (194) 
48012

>  <i_f3d_flags>  (194) 
0

>  <s_epik_input>  (194) 
W0NIMl0xW0NIMl1DKD1PKVtDQEhdKFtDQEBdMTJbQ0gzXSlbQ0BASF0oTj1DKFtDSDNdKVtDSDJdMiljM1tjSF1bY0hdYyhDbClbY0hdW2NIXTM=

>  <s_epik_cmdline>  (194) 
J2VwaWtfcHl0aG9uJywgJy1waHQnLCAnMi4wJywgJy1waCcsICc3LjAnLCAnLXRuJywgJzgnLCAnLW1hJywgJzIwMCcsICctaW1hZScsICc8aW5maWxlLm1hZT4nLCAnLW9tYWUnLCAnPG91dGZpbGUubWFlPic=

>  <r_lp_tautomer_probability>  (194) 
1

>  <r_epik_Ionization_Penalty>  (194) 
1.20085

>  <r_epik_Ionization_Penalty_Charging>  (194) 
1.19982

>  <r_epik_Ionization_Penalty_Neutral>  (194) 
0.00103162

>  <r_epik_State_Penalty>  (194) 
1.26532

>  <r_epik_Charging_Adjusted_Penalty>  (194) 
2.46514

>  <i_epik_Tot_Q>  (194) 
1

>  <i_epik_Tot_abs_Q>  (194) 
1

>  <s_epik_Chemistry_Notes>  (194) 
This compound has an imine and may undergo hydrolysis.

>  <s_lp_Force_Field>  (194) 
OPLS3e

>  <r_lp_Energy>  (194) 
20.7668

>  <b_lp_Chiralities_Consistent>  (194) 
1

>  <s_lp_Variant>  (194) 
43:0-2

>  <s_i_glide_gridfile>  (194) 
pfpi4k_grid

>  <i_i_glide_lignum>  (194) 
28

>  <i_i_glide_rotatable_bonds>  (194) 
1

>  <r_i_docking_score>  (194) 
-4.8147

>  <r_i_glide_ligand_efficiency>  (194) 
-0.253405

>  <r_i_glide_ligand_efficiency_sa>  (194) 
-0.676188

>  <r_i_glide_ligand_efficiency_ln>  (194) 
-1.22063

>  <r_i_glide_gscore>  (194) 
-4.8147

>  <r_i_glide_lipo>  (194) 
-1.33907

>  <r_i_glide_hbond>  (194) 
0

>  <r_i_glide_metal>  (194) 
-0

>  <r_i_glide_rewards>  (194) 
-2.04757

>  <r_i_glide_evdw>  (194) 
-24.0674

>  <r_i_glide_ecoul>  (194) 
-2.98148

>  <r_i_glide_erotb>  (194) 
0.234931

>  <r_i_glide_esite>  (194) 
-0.012395

>  <r_i_glide_emodel>  (194) 
-34.6245

>  <r_i_glide_energy>  (194) 
-27.0489

>  <r_i_glide_einternal>  (194) 
1.46376

>  <r_i_glide_intrahb_reward>  (194) 
-0

>  <i_i_glide_confnum>  (194) 
3

>  <i_i_glide_posenum>  (194) 
36

>  <r_i_glide_eff_state_penalty>  (194) 
0

>  <ligand_id>  (194) 
43

>  <original_smiles>  (194) 
CC1=NC(c2ccc(Cl)cc2)C2C(=O)CCC2(C)C1

>  <smiles>  (194) 
[H]c1c([H])c(C2([H])[N+]([H])=C(C([H])([H])[H])C([H])([H])C3(C([H])([H])[H])C([H])([H])C([H])([H])C(=O)C23[H])c([H])c([H])c1Cl

$$$$
44:0:0
     RDKit          3D

 13 14  0  0  1  0  0  0  0  0999 V2000
   -7.4538   -4.4117   -4.4712 C   0  0  0  0  0  0  0  0  0  0  0  0
   -6.9446   -5.6631   -5.1146 C   0  0  0  0  0  0  0  0  0  0  0  0
   -5.9170   -6.4708   -4.6108 C   0  0  0  0  0  0  0  0  0  0  0  0
   -5.7515   -7.5029   -5.4734 C   0  0  0  0  0  0  0  0  0  0  0  0
   -4.7119   -8.8258   -5.4554 S   0  0  0  0  0  0  0  0  0  0  0  0
   -5.3969   -9.3605   -6.9159 N   0  0  0  0  0  0  0  0  0  0  0  0
   -6.3620   -8.5597   -7.3497 N   0  0  0  0  0  0  0  0  0  0  0  0
   -6.5789   -7.4756   -6.5008 C   0  0  0  0  0  0  0  0  0  0  0  0
   -7.7174   -6.1977   -6.6441 S   0  0  0  0  0  0  0  0  0  0  0  0
   -6.9323   -4.1753   -3.5402 H   0  0  0  0  0  0  0  0  0  0  0  0
   -8.5182   -4.4911   -4.2402 H   0  0  0  0  0  0  0  0  0  0  0  0
   -7.3397   -3.5534   -5.1349 H   0  0  0  0  0  0  0  0  0  0  0  0
   -5.3596   -6.3165   -3.6980 H   0  0  0  0  0  0  0  0  0  0  0  0
  1  2  1  0
  1 10  1  0
  1 11  1  0
  1 12  1  0
  2  9  1  0
  2  3  2  0
  3  4  1  0
  3 13  1  0
  4  8  2  0
  4  5  1  0
  5  6  1  0
  6  7  2  0
  7  8  1  0
  8  9  1  0
M  END
>  <i_m_ct_stereo_status>  (195) 
1

>  <s_m_source_file>  (195) 
/var/tmp/pbs.5076255.sched01/tmp5gbx45fw/500pp51iot.sdf

>  <i_m_source_file_index>  (195) 
29

>  <i_lp_mmshare_version>  (195) 
48012

>  <i_f3d_flags>  (195) 
0

>  <s_epik_input>  (195) 
W0NIM11jKFtjSF0xKXNjKGMxMilubnMy

>  <s_epik_cmdline>  (195) 
J2VwaWtfcHl0aG9uJywgJy1waHQnLCAnMi4wJywgJy1waCcsICc3LjAnLCAnLXRuJywgJzgnLCAnLW1hJywgJzIwMCcsICctaW1hZScsICc8aW5maWxlLm1hZT4nLCAnLW9tYWUnLCAnPG91dGZpbGUubWFlPic=

>  <r_lp_tautomer_probability>  (195) 
1

>  <r_epik_Ionization_Penalty>  (195) 
1.11163e-08

>  <r_epik_Ionization_Penalty_Charging>  (195) 
0

>  <r_epik_Ionization_Penalty_Neutral>  (195) 
1.11163e-08

>  <r_epik_State_Penalty>  (195) 
-0

>  <r_epik_Charging_Adjusted_Penalty>  (195) 
0

>  <i_epik_Tot_Q>  (195) 
0

>  <i_epik_Tot_abs_Q>  (195) 
0

>  <s_lp_Force_Field>  (195) 
OPLS3e

>  <r_lp_Energy>  (195) 
2.5361

>  <b_lp_Chiralities_Consistent>  (195) 
1

>  <s_lp_Variant>  (195) 
44:0-1

>  <s_i_glide_gridfile>  (195) 
pfpi4k_grid

>  <i_i_glide_lignum>  (195) 
29

>  <i_i_glide_rotatable_bonds>  (195) 
0

>  <r_i_docking_score>  (195) 
-5.71077

>  <r_i_glide_ligand_efficiency>  (195) 
-0.63453

>  <r_i_glide_ligand_efficiency_sa>  (195) 
-1.31988

>  <r_i_glide_ligand_efficiency_ln>  (195) 
-1.78617

>  <r_i_glide_gscore>  (195) 
-5.71077

>  <r_i_glide_lipo>  (195) 
-1.96487

>  <r_i_glide_hbond>  (195) 
0

>  <r_i_glide_metal>  (195) 
-0

>  <r_i_glide_rewards>  (195) 
-2.61826

>  <r_i_glide_evdw>  (195) 
-21.3438

>  <r_i_glide_ecoul>  (195) 
-0.402982

>  <r_i_glide_erotb>  (195) 
0

>  <r_i_glide_esite>  (195) 
0

>  <r_i_glide_emodel>  (195) 
-29.7177

>  <r_i_glide_energy>  (195) 
-21.7468

>  <r_i_glide_einternal>  (195) 
0

>  <r_i_glide_intrahb_reward>  (195) 
-0

>  <i_i_glide_confnum>  (195) 
1

>  <i_i_glide_posenum>  (195) 
1

>  <r_i_glide_eff_state_penalty>  (195) 
0

>  <ligand_id>  (195) 
44

>  <original_smiles>  (195) 
Cc1cc2snnc2s1

>  <smiles>  (195) 
[H]c1c(C([H])([H])[H])sc2nnsc12

$$$$
44:0:1
     RDKit          3D

 13 14  0  0  1  0  0  0  0  0999 V2000
   -6.9704   -4.4681   -4.1385 C   0  0  0  0  0  0  0  0  0  0  0  0
   -6.7666   -5.6293   -5.0594 C   0  0  0  0  0  0  0  0  0  0  0  0
   -7.6016   -6.0023   -6.1219 C   0  0  0  0  0  0  0  0  0  0  0  0
   -7.0661   -7.1167   -6.7122 C   0  0  0  0  0  0  0  0  0  0  0  0
   -7.5511   -8.0640   -8.0344 S   0  0  0  0  0  0  0  0  0  0  0  0
   -6.1724   -9.0484   -7.8032 N   0  0  0  0  0  0  0  0  0  0  0  0
   -5.4205   -8.6569   -6.7868 N   0  0  0  0  0  0  0  0  0  0  0  0
   -5.9522   -7.5273   -6.1470 C   0  0  0  0  0  0  0  0  0  0  0  0
   -5.3399   -6.6680   -4.8021 S   0  0  0  0  0  0  0  0  0  0  0  0
   -7.8781   -3.9132   -4.3784 H   0  0  0  0  0  0  0  0  0  0  0  0
   -6.1281   -3.7765   -4.1921 H   0  0  0  0  0  0  0  0  0  0  0  0
   -7.0482   -4.8048   -3.1042 H   0  0  0  0  0  0  0  0  0  0  0  0
   -8.5118   -5.5127   -6.4343 H   0  0  0  0  0  0  0  0  0  0  0  0
  1  2  1  0
  1 10  1  0
  1 11  1  0
  1 12  1  0
  2  9  1  0
  2  3  2  0
  3  4  1  0
  3 13  1  0
  4  8  2  0
  4  5  1  0
  5  6  1  0
  6  7  2  0
  7  8  1  0
  8  9  1  0
M  END
>  <i_m_ct_stereo_status>  (196) 
1

>  <s_m_source_file>  (196) 
/var/tmp/pbs.5076255.sched01/tmp5gbx45fw/500pp51iot.sdf

>  <i_m_source_file_index>  (196) 
29

>  <i_lp_mmshare_version>  (196) 
48012

>  <i_f3d_flags>  (196) 
0

>  <s_epik_input>  (196) 
W0NIM11jKFtjSF0xKXNjKGMxMilubnMy

>  <s_epik_cmdline>  (196) 
J2VwaWtfcHl0aG9uJywgJy1waHQnLCAnMi4wJywgJy1waCcsICc3LjAnLCAnLXRuJywgJzgnLCAnLW1hJywgJzIwMCcsICctaW1hZScsICc8aW5maWxlLm1hZT4nLCAnLW9tYWUnLCAnPG91dGZpbGUubWFlPic=

>  <r_lp_tautomer_probability>  (196) 
1

>  <r_epik_Ionization_Penalty>  (196) 
1.11163e-08

>  <r_epik_Ionization_Penalty_Charging>  (196) 
0

>  <r_epik_Ionization_Penalty_Neutral>  (196) 
1.11163e-08

>  <r_epik_State_Penalty>  (196) 
-0

>  <r_epik_Charging_Adjusted_Penalty>  (196) 
0

>  <i_epik_Tot_Q>  (196) 
0

>  <i_epik_Tot_abs_Q>  (196) 
0

>  <s_lp_Force_Field>  (196) 
OPLS3e

>  <r_lp_Energy>  (196) 
2.5361

>  <b_lp_Chiralities_Consistent>  (196) 
1

>  <s_lp_Variant>  (196) 
44:0-1

>  <s_i_glide_gridfile>  (196) 
pfpi4k_grid

>  <i_i_glide_lignum>  (196) 
29

>  <i_i_glide_rotatable_bonds>  (196) 
0

>  <r_i_docking_score>  (196) 
-5.59324

>  <r_i_glide_ligand_efficiency>  (196) 
-0.621471

>  <r_i_glide_ligand_efficiency_sa>  (196) 
-1.29271

>  <r_i_glide_ligand_efficiency_ln>  (196) 
-1.74941

>  <r_i_glide_gscore>  (196) 
-5.59324

>  <r_i_glide_lipo>  (196) 
-1.72055

>  <r_i_glide_hbond>  (196) 
0

>  <r_i_glide_metal>  (196) 
-0

>  <r_i_glide_rewards>  (196) 
-2.7993

>  <r_i_glide_evdw>  (196) 
-20.7104

>  <r_i_glide_ecoul>  (196) 
-0.252553

>  <r_i_glide_erotb>  (196) 
0

>  <r_i_glide_esite>  (196) 
0

>  <r_i_glide_emodel>  (196) 
-28.7656

>  <r_i_glide_energy>  (196) 
-20.9629

>  <r_i_glide_einternal>  (196) 
0

>  <r_i_glide_intrahb_reward>  (196) 
-0

>  <i_i_glide_confnum>  (196) 
1

>  <i_i_glide_posenum>  (196) 
14

>  <r_i_glide_eff_state_penalty>  (196) 
0

>  <ligand_id>  (196) 
44

>  <original_smiles>  (196) 
Cc1cc2snnc2s1

>  <smiles>  (196) 
[H]c1c(C([H])([H])[H])sc2nnsc12

$$$$
44:0:2
     RDKit          3D

 13 14  0  0  1  0  0  0  0  0999 V2000
   -6.6717   -4.4985   -4.1124 C   0  0  0  0  0  0  0  0  0  0  0  0
   -7.5320   -4.8397   -5.2859 C   0  0  0  0  0  0  0  0  0  0  0  0
   -7.3203   -5.9077   -6.1678 C   0  0  0  0  0  0  0  0  0  0  0  0
   -8.2990   -5.8541   -7.1033 C   0  0  0  0  0  0  0  0  0  0  0  0
   -8.6405   -6.8323   -8.4268 S   0  0  0  0  0  0  0  0  0  0  0  0
   -9.9977   -5.8689   -8.7662 N   0  0  0  0  0  0  0  0  0  0  0  0
  -10.1508   -4.8838   -7.8905 N   0  0  0  0  0  0  0  0  0  0  0  0
   -9.1609   -4.8742   -6.9195 C   0  0  0  0  0  0  0  0  0  0  0  0
   -8.9725   -3.8128   -5.5946 S   0  0  0  0  0  0  0  0  0  0  0  0
   -5.8371   -5.1938   -3.9947 H   0  0  0  0  0  0  0  0  0  0  0  0
   -7.2483   -4.5204   -3.1838 H   0  0  0  0  0  0  0  0  0  0  0  0
   -6.2506   -3.4927   -4.2038 H   0  0  0  0  0  0  0  0  0  0  0  0
   -6.5249   -6.6417   -6.1368 H   0  0  0  0  0  0  0  0  0  0  0  0
  1  2  1  0
  1 10  1  0
  1 11  1  0
  1 12  1  0
  2  9  1  0
  2  3  2  0
  3  4  1  0
  3 13  1  0
  4  8  2  0
  4  5  1  0
  5  6  1  0
  6  7  2  0
  7  8  1  0
  8  9  1  0
M  END
>  <i_m_ct_stereo_status>  (197) 
1

>  <s_m_source_file>  (197) 
/var/tmp/pbs.5076255.sched01/tmp5gbx45fw/500pp51iot.sdf

>  <i_m_source_file_index>  (197) 
29

>  <i_lp_mmshare_version>  (197) 
48012

>  <i_f3d_flags>  (197) 
0

>  <s_epik_input>  (197) 
W0NIM11jKFtjSF0xKXNjKGMxMilubnMy

>  <s_epik_cmdline>  (197) 
J2VwaWtfcHl0aG9uJywgJy1waHQnLCAnMi4wJywgJy1waCcsICc3LjAnLCAnLXRuJywgJzgnLCAnLW1hJywgJzIwMCcsICctaW1hZScsICc8aW5maWxlLm1hZT4nLCAnLW9tYWUnLCAnPG91dGZpbGUubWFlPic=

>  <r_lp_tautomer_probability>  (197) 
1

>  <r_epik_Ionization_Penalty>  (197) 
1.11163e-08

>  <r_epik_Ionization_Penalty_Charging>  (197) 
0

>  <r_epik_Ionization_Penalty_Neutral>  (197) 
1.11163e-08

>  <r_epik_State_Penalty>  (197) 
-0

>  <r_epik_Charging_Adjusted_Penalty>  (197) 
0

>  <i_epik_Tot_Q>  (197) 
0

>  <i_epik_Tot_abs_Q>  (197) 
0

>  <s_lp_Force_Field>  (197) 
OPLS3e

>  <r_lp_Energy>  (197) 
2.5361

>  <b_lp_Chiralities_Consistent>  (197) 
1

>  <s_lp_Variant>  (197) 
44:0-1

>  <s_i_glide_gridfile>  (197) 
pfpi4k_grid

>  <i_i_glide_lignum>  (197) 
29

>  <i_i_glide_rotatable_bonds>  (197) 
0

>  <r_i_docking_score>  (197) 
-5.4782

>  <r_i_glide_ligand_efficiency>  (197) 
-0.608689

>  <r_i_glide_ligand_efficiency_sa>  (197) 
-1.26612

>  <r_i_glide_ligand_efficiency_ln>  (197) 
-1.71342

>  <r_i_glide_gscore>  (197) 
-5.4782

>  <r_i_glide_lipo>  (197) 
-1.77323

>  <r_i_glide_hbond>  (197) 
0

>  <r_i_glide_metal>  (197) 
-0

>  <r_i_glide_rewards>  (197) 
-2.50739

>  <r_i_glide_evdw>  (197) 
-20.8603

>  <r_i_glide_ecoul>  (197) 
-0.759588

>  <r_i_glide_erotb>  (197) 
0

>  <r_i_glide_esite>  (197) 
-0.040631

>  <r_i_glide_emodel>  (197) 
-29.2605

>  <r_i_glide_energy>  (197) 
-21.6199

>  <r_i_glide_einternal>  (197) 
0

>  <r_i_glide_intrahb_reward>  (197) 
-0

>  <i_i_glide_confnum>  (197) 
1

>  <i_i_glide_posenum>  (197) 
2

>  <r_i_glide_eff_state_penalty>  (197) 
0

>  <ligand_id>  (197) 
44

>  <original_smiles>  (197) 
Cc1cc2snnc2s1

>  <smiles>  (197) 
[H]c1c(C([H])([H])[H])sc2nnsc12

$$$$
45:0:0
     RDKit          3D

 35 37  0  0  1  0  0  0  0  0999 V2000
    5.4048   -1.6184    0.6036 O   0  0  0  0  0  0  0  0  0  0  0  0
    5.1875   -2.7297   -0.2579 C   0  0  1  0  0  0  0  0  0  0  0  0
    4.6872   -2.2631   -1.6349 C   0  0  0  0  0  0  0  0  0  0  0  0
    4.2784   -0.9315   -1.8613 C   0  0  0  0  0  0  0  0  0  0  0  0
    3.8160   -0.5378   -3.1263 C   0  0  0  0  0  0  0  0  0  0  0  0
    3.7554   -1.5046   -4.1402 C   0  0  0  0  0  0  0  0  0  0  0  0
    4.1414   -2.7817   -3.9549 N   0  0  0  0  0  0  0  0  0  0  0  0
    4.5989   -3.1436   -2.7424 C   0  0  0  0  0  0  0  0  0  0  0  0
    6.5595   -3.4379   -0.4081 C   0  0  0  0  0  0  0  0  0  0  0  0
    7.3673   -3.9953    0.7862 C   0  0  0  0  0  0  0  0  0  0  0  0
    8.6444   -3.6430    0.0402 C   0  0  0  0  0  0  0  0  0  0  0  0
    7.8243   -2.6416   -0.7791 C   0  0  0  0  0  0  0  0  0  0  0  0
    4.1076   -3.6062    0.4395 C   0  0  2  0  0  0  0  0  0  0  0  0
    4.4562   -4.0416    1.8829 C   0  0  0  0  0  0  0  0  0  0  0  0
    4.6834   -5.4819    1.7452 N   0  0  0  0  0  0  0  0  0  0  0  0
    4.3623   -5.8922    0.5138 C   0  0  0  0  0  0  0  0  0  0  0  0
    3.9472   -4.8848   -0.2680 N   0  0  0  0  0  0  0  0  0  0  0  0
    4.5786   -1.1726    0.7511 H   0  0  0  0  0  0  0  0  0  0  0  0
    4.2942   -0.1962   -1.0751 H   0  0  0  0  0  0  0  0  0  0  0  0
    3.4867    0.4774   -3.3160 H   0  0  0  0  0  0  0  0  0  0  0  0
    3.4092   -1.2478   -5.1305 H   0  0  0  0  0  0  0  0  0  0  0  0
    4.8785   -4.1809   -2.6544 H   0  0  0  0  0  0  0  0  0  0  0  0
    6.4649   -4.2513   -1.1286 H   0  0  0  0  0  0  0  0  0  0  0  0
    7.2667   -3.4040    1.6932 H   0  0  0  0  0  0  0  0  0  0  0  0
    7.2389   -5.0696    0.9539 H   0  0  0  0  0  0  0  0  0  0  0  0
    9.4003   -3.1941    0.6870 H   0  0  0  0  0  0  0  0  0  0  0  0
    9.0396   -4.4756   -0.5501 H   0  0  0  0  0  0  0  0  0  0  0  0
    8.0611   -2.6246   -1.8475 H   0  0  0  0  0  0  0  0  0  0  0  0
    7.8412   -1.6430   -0.3330 H   0  0  0  0  0  0  0  0  0  0  0  0
    3.1566   -3.0843    0.4317 H   0  0  0  0  0  0  0  0  0  0  0  0
    5.3204   -3.5167    2.2826 H   0  0  0  0  0  0  0  0  0  0  0  0
    3.6089   -3.8707    2.5487 H   0  0  0  0  0  0  0  0  0  0  0  0
    5.0564   -6.0687    2.4803 H   0  0  0  0  0  0  0  0  0  0  0  0
    4.4456   -6.9117    0.1700 H   0  0  0  0  0  0  0  0  0  0  0  0
    3.6251   -4.9945   -1.2296 H   0  0  0  0  0  0  0  0  0  0  0  0
  2  1  1  1
  1 18  1  0
  2  3  1  0
  2  9  1  0
  2 13  1  0
  3  8  1  0
  3  4  2  0
  4  5  1  0
  4 19  1  0
  5  6  2  0
  5 20  1  0
  6  7  1  0
  6 21  1  0
  7  8  2  0
  8 22  1  0
  9 12  1  0
  9 10  1  0
  9 23  1  0
 10 11  1  0
 10 24  1  0
 10 25  1  0
 11 12  1  0
 11 26  1  0
 11 27  1  0
 12 28  1  0
 12 29  1  0
 13 17  1  0
 13 14  1  0
 13 30  1  1
 14 15  1  0
 14 31  1  0
 14 32  1  0
 15 16  1  0
 15 33  1  0
 16 17  2  0
 16 34  1  0
 17 35  1  0
M  CHG  1  17   1
M  END
>  <i_m_ct_stereo_status>  (198) 
1

>  <s_m_source_file>  (198) 
/var/tmp/pbs.5076255.sched01/tmp5gbx45fw/500pp51iot.sdf

>  <i_m_source_file_index>  (198) 
30

>  <i_lp_mmshare_version>  (198) 
48012

>  <i_f3d_flags>  (198) 
0

>  <s_epik_input>  (198) 
TjE9W0NIXVtOSF1bQ0gyXVtDQEhdMVtDQEBdKFtPSF0pKFtDSF0yW0NIMl1bQ0gyXVtDSDJdMiljM1tjSF1bY0hdW2NIXW5bY0hdMw==

>  <s_epik_cmdline>  (198) 
J2VwaWtfcHl0aG9uJywgJy1waHQnLCAnMi4wJywgJy1waCcsICc3LjAnLCAnLXRuJywgJzgnLCAnLW1hJywgJzIwMCcsICctaW1hZScsICc8aW5maWxlLm1hZT4nLCAnLW9tYWUnLCAnPG91dGZpbGUubWFlPic=

>  <r_epik_Ionization_Penalty>  (198) 
0.00143013

>  <r_epik_Ionization_Penalty_Charging>  (198) 
0.000268358

>  <r_epik_Ionization_Penalty_Neutral>  (198) 
0.00116177

>  <r_epik_State_Penalty>  (198) 
0.41068

>  <r_epik_Charging_Adjusted_Penalty>  (198) 
0.410948

>  <i_epik_Tot_Q>  (198) 
1

>  <i_epik_Tot_abs_Q>  (198) 
1

>  <s_epik_Chemistry_Notes>  (198) 
This compound has an imine and may undergo hydrolysis.

>  <s_lp_Force_Field>  (198) 
OPLS3e

>  <r_lp_Energy>  (198) 
28.0501

>  <b_lp_Chiralities_Consistent>  (198) 
1

>  <s_lp_Variant>  (198) 
45:0-1

>  <s_i_glide_gridfile>  (198) 
pfpi4k_grid

>  <i_i_glide_lignum>  (198) 
30

>  <i_i_glide_rotatable_bonds>  (198) 
4

>  <r_i_docking_score>  (198) 
-3.93305

>  <r_i_glide_ligand_efficiency>  (198) 
-0.231356

>  <r_i_glide_ligand_efficiency_sa>  (198) 
-0.594882

>  <r_i_glide_ligand_efficiency_ln>  (198) 
-1.02605

>  <r_i_glide_gscore>  (198) 
-3.93305

>  <r_i_glide_lipo>  (198) 
-0.601051

>  <r_i_glide_hbond>  (198) 
-0.159252

>  <r_i_glide_metal>  (198) 
-0

>  <r_i_glide_rewards>  (198) 
-1.96344

>  <r_i_glide_evdw>  (198) 
-23.6969

>  <r_i_glide_ecoul>  (198) 
-6.30218

>  <r_i_glide_erotb>  (198) 
0.952145

>  <r_i_glide_esite>  (198) 
-0.0312843

>  <r_i_glide_emodel>  (198) 
-36.9068

>  <r_i_glide_energy>  (198) 
-29.9991

>  <r_i_glide_einternal>  (198) 
1.52817

>  <r_i_glide_intrahb_reward>  (198) 
-0

>  <i_i_glide_confnum>  (198) 
5

>  <i_i_glide_posenum>  (198) 
35

>  <r_i_glide_eff_state_penalty>  (198) 
0

>  <ligand_id>  (198) 
45

>  <original_smiles>  (198) 
OC(c1cccnc1)(C1CCC1)C1CNC=N1

>  <smiles>  (198) 
[H]OC(c1c([H])nc([H])c([H])c1[H])(C1([H])[N+]([H])=C([H])N([H])C1([H])[H])C1([H])C([H])([H])C([H])([H])C1([H])[H]

$$$$
45:0:1
     RDKit          3D

 35 37  0  0  1  0  0  0  0  0999 V2000
    5.3599   -1.7560    0.6434 O   0  0  0  0  0  0  0  0  0  0  0  0
    5.1101   -2.8627   -0.2104 C   0  0  1  0  0  0  0  0  0  0  0  0
    4.6446   -2.3641   -1.5834 C   0  0  0  0  0  0  0  0  0  0  0  0
    4.2200   -1.0299   -1.7693 C   0  0  0  0  0  0  0  0  0  0  0  0
    3.7895   -0.6093   -3.0367 C   0  0  0  0  0  0  0  0  0  0  0  0
    3.7707   -1.5457   -4.0775 C   0  0  0  0  0  0  0  0  0  0  0  0
    4.1762   -2.8237   -3.9261 N   0  0  0  0  0  0  0  0  0  0  0  0
    4.6054   -3.2121   -2.7145 C   0  0  0  0  0  0  0  0  0  0  0  0
    6.4525   -3.6130   -0.3366 C   0  0  0  0  0  0  0  0  0  0  0  0
    7.3453   -3.9921    0.8589 C   0  0  0  0  0  0  0  0  0  0  0  0
    8.5650   -3.7807   -0.0370 C   0  0  0  0  0  0  0  0  0  0  0  0
    7.6806   -2.9147   -0.9407 C   0  0  0  0  0  0  0  0  0  0  0  0
    3.9966   -3.7265    0.4623 C   0  0  2  0  0  0  0  0  0  0  0  0
    4.3363   -4.2122    1.8954 C   0  0  0  0  0  0  0  0  0  0  0  0
    4.5018   -5.6544    1.7270 N   0  0  0  0  0  0  0  0  0  0  0  0
    4.1729   -6.0256    0.4823 C   0  0  0  0  0  0  0  0  0  0  0  0
    3.8013   -4.9808   -0.2830 N   0  0  0  0  0  0  0  0  0  0  0  0
    5.6266   -2.0755    1.4889 H   0  0  0  0  0  0  0  0  0  0  0  0
    4.2112   -0.3181   -0.9578 H   0  0  0  0  0  0  0  0  0  0  0  0
    3.4555    0.4062   -3.1967 H   0  0  0  0  0  0  0  0  0  0  0  0
    3.4413   -1.2612   -5.0675 H   0  0  0  0  0  0  0  0  0  0  0  0
    4.8942   -4.2509   -2.6487 H   0  0  0  0  0  0  0  0  0  0  0  0
    6.2782   -4.5327   -0.8910 H   0  0  0  0  0  0  0  0  0  0  0  0
    7.3207   -3.2761    1.6810 H   0  0  0  0  0  0  0  0  0  0  0  0
    7.2277   -5.0226    1.1991 H   0  0  0  0  0  0  0  0  0  0  0  0
    9.3798   -3.2407    0.4515 H   0  0  0  0  0  0  0  0  0  0  0  0
    8.9060   -4.7028   -0.5177 H   0  0  0  0  0  0  0  0  0  0  0  0
    7.8234   -3.0811   -2.0112 H   0  0  0  0  0  0  0  0  0  0  0  0
    7.7282   -1.8564   -0.6756 H   0  0  0  0  0  0  0  0  0  0  0  0
    3.0598   -3.1611    0.4802 H   0  0  0  0  0  0  0  0  0  0  0  0
    5.2198   -3.7413    2.3199 H   0  0  0  0  0  0  0  0  0  0  0  0
    3.5154   -4.0102    2.5778 H   0  0  0  0  0  0  0  0  0  0  0  0
    4.8457   -6.2731    2.4591 H   0  0  0  0  0  0  0  0  0  0  0  0
    4.2228   -7.0460    0.1229 H   0  0  0  0  0  0  0  0  0  0  0  0
    3.4732   -5.0616   -1.2414 H   0  0  0  0  0  0  0  0  0  0  0  0
  2  1  1  1
  1 18  1  0
  2  3  1  0
  2  9  1  0
  2 13  1  0
  3  8  1  0
  3  4  2  0
  4  5  1  0
  4 19  1  0
  5  6  2  0
  5 20  1  0
  6  7  1  0
  6 21  1  0
  7  8  2  0
  8 22  1  0
  9 12  1  0
  9 10  1  0
  9 23  1  0
 10 11  1  0
 10 24  1  0
 10 25  1  0
 11 12  1  0
 11 26  1  0
 11 27  1  0
 12 28  1  0
 12 29  1  0
 13 17  1  0
 13 14  1  0
 13 30  1  1
 14 15  1  0
 14 31  1  0
 14 32  1  0
 15 16  1  0
 15 33  1  0
 16 17  2  0
 16 34  1  0
 17 35  1  0
M  CHG  1  17   1
M  END
>  <i_m_ct_stereo_status>  (199) 
1

>  <s_m_source_file>  (199) 
/var/tmp/pbs.5076255.sched01/tmp5gbx45fw/500pp51iot.sdf

>  <i_m_source_file_index>  (199) 
30

>  <i_lp_mmshare_version>  (199) 
48012

>  <i_f3d_flags>  (199) 
0

>  <s_epik_input>  (199) 
TjE9W0NIXVtOSF1bQ0gyXVtDQEhdMVtDQEBdKFtPSF0pKFtDSF0yW0NIMl1bQ0gyXVtDSDJdMiljM1tjSF1bY0hdW2NIXW5bY0hdMw==

>  <s_epik_cmdline>  (199) 
J2VwaWtfcHl0aG9uJywgJy1waHQnLCAnMi4wJywgJy1waCcsICc3LjAnLCAnLXRuJywgJzgnLCAnLW1hJywgJzIwMCcsICctaW1hZScsICc8aW5maWxlLm1hZT4nLCAnLW9tYWUnLCAnPG91dGZpbGUubWFlPic=

>  <r_epik_Ionization_Penalty>  (199) 
0.00143013

>  <r_epik_Ionization_Penalty_Charging>  (199) 
0.000268358

>  <r_epik_Ionization_Penalty_Neutral>  (199) 
0.00116177

>  <r_epik_State_Penalty>  (199) 
0.41068

>  <r_epik_Charging_Adjusted_Penalty>  (199) 
0.410948

>  <i_epik_Tot_Q>  (199) 
1

>  <i_epik_Tot_abs_Q>  (199) 
1

>  <s_epik_Chemistry_Notes>  (199) 
This compound has an imine and may undergo hydrolysis.

>  <s_lp_Force_Field>  (199) 
OPLS3e

>  <r_lp_Energy>  (199) 
28.0501

>  <b_lp_Chiralities_Consistent>  (199) 
1

>  <s_lp_Variant>  (199) 
45:0-1

>  <s_i_glide_gridfile>  (199) 
pfpi4k_grid

>  <i_i_glide_lignum>  (199) 
30

>  <i_i_glide_rotatable_bonds>  (199) 
4

>  <r_i_docking_score>  (199) 
-3.77721

>  <r_i_glide_ligand_efficiency>  (199) 
-0.222189

>  <r_i_glide_ligand_efficiency_sa>  (199) 
-0.57131

>  <r_i_glide_ligand_efficiency_ln>  (199) 
-0.985389

>  <r_i_glide_gscore>  (199) 
-3.77721

>  <r_i_glide_lipo>  (199) 
-0.513334

>  <r_i_glide_hbond>  (199) 
-0.131213

>  <r_i_glide_metal>  (199) 
-0

>  <r_i_glide_rewards>  (199) 
-1.97446

>  <r_i_glide_evdw>  (199) 
-23.4421

>  <r_i_glide_ecoul>  (199) 
-6.01066

>  <r_i_glide_erotb>  (199) 
0.952145

>  <r_i_glide_esite>  (199) 
-0.0366418

>  <r_i_glide_emodel>  (199) 
-36.7967

>  <r_i_glide_energy>  (199) 
-29.4527

>  <r_i_glide_einternal>  (199) 
0.436462

>  <r_i_glide_intrahb_reward>  (199) 
-0

>  <i_i_glide_confnum>  (199) 
5

>  <i_i_glide_posenum>  (199) 
31

>  <r_i_glide_eff_state_penalty>  (199) 
0

>  <ligand_id>  (199) 
45

>  <original_smiles>  (199) 
OC(c1cccnc1)(C1CCC1)C1CNC=N1

>  <smiles>  (199) 
[H]OC(c1c([H])nc([H])c([H])c1[H])(C1([H])[N+]([H])=C([H])N([H])C1([H])[H])C1([H])C([H])([H])C([H])([H])C1([H])[H]

$$$$
45:0:2
     RDKit          3D

 35 37  0  0  1  0  0  0  0  0999 V2000
    6.1144   -1.4400   -0.0600 O   0  0  0  0  0  0  0  0  0  0  0  0
    4.7439   -1.7944   -0.0261 C   0  0  1  0  0  0  0  0  0  0  0  0
    4.1666   -1.6746   -1.4403 C   0  0  0  0  0  0  0  0  0  0  0  0
    4.6223   -0.6699   -2.3151 C   0  0  0  0  0  0  0  0  0  0  0  0
    4.0667   -0.5524   -3.5902 C   0  0  0  0  0  0  0  0  0  0  0  0
    3.0618   -1.4554   -3.9545 C   0  0  0  0  0  0  0  0  0  0  0  0
    2.6218   -2.4464   -3.1551 N   0  0  0  0  0  0  0  0  0  0  0  0
    3.1544   -2.5389   -1.9242 C   0  0  0  0  0  0  0  0  0  0  0  0
    4.6636   -3.2541    0.4856 C   0  0  0  0  0  0  0  0  0  0  0  0
    5.4311   -3.7901    1.7062 C   0  0  0  0  0  0  0  0  0  0  0  0
    5.5350   -5.1350    0.9942 C   0  0  0  0  0  0  0  0  0  0  0  0
    5.3052   -4.3879   -0.3235 C   0  0  0  0  0  0  0  0  0  0  0  0
    4.0516   -0.7679    0.9288 C   0  0  2  0  0  0  0  0  0  0  0  0
    4.5321   -0.8053    2.3988 C   0  0  0  0  0  0  0  0  0  0  0  0
    3.3770   -1.3563    3.1167 N   0  0  0  0  0  0  0  0  0  0  0  0
    2.3255   -1.4745    2.3097 C   0  0  0  0  0  0  0  0  0  0  0  0
    2.6238   -1.0819    1.0541 N   0  0  0  0  0  0  0  0  0  0  0  0
    6.4697   -1.5244    0.8146 H   0  0  0  0  0  0  0  0  0  0  0  0
    5.3970    0.0272   -2.0134 H   0  0  0  0  0  0  0  0  0  0  0  0
    4.3710    0.2170   -4.2864 H   0  0  0  0  0  0  0  0  0  0  0  0
    2.6125   -1.3679   -4.9216 H   0  0  0  0  0  0  0  0  0  0  0  0
    2.7026   -3.3095   -1.3135 H   0  0  0  0  0  0  0  0  0  0  0  0
    3.6271   -3.5472    0.6640 H   0  0  0  0  0  0  0  0  0  0  0  0
    6.4129   -3.3414    1.8635 H   0  0  0  0  0  0  0  0  0  0  0  0
    4.8323   -3.8281    2.6184 H   0  0  0  0  0  0  0  0  0  0  0  0
    6.5172   -5.6014    1.0873 H   0  0  0  0  0  0  0  0  0  0  0  0
    4.7179   -5.8166    1.2489 H   0  0  0  0  0  0  0  0  0  0  0  0
    4.6248   -4.8897   -1.0201 H   0  0  0  0  0  0  0  0  0  0  0  0
    6.2324   -4.0731   -0.8116 H   0  0  0  0  0  0  0  0  0  0  0  0
    4.1482    0.2498    0.5345 H   0  0  0  0  0  0  0  0  0  0  0  0
    5.4376   -1.3777    2.5481 H   0  0  0  0  0  0  0  0  0  0  0  0
    4.7461    0.1927    2.7649 H   0  0  0  0  0  0  0  0  0  0  0  0
    3.4053   -1.6375    4.0848 H   0  0  0  0  0  0  0  0  0  0  0  0
    1.3463   -1.8523    2.6073 H   0  0  0  0  0  0  0  0  0  0  0  0
    1.9407   -1.0249    0.2747 H   0  0  0  0  0  0  0  0  0  0  0  0
  2  1  1  6
  1 18  1  0
  2  3  1  0
  2  9  1  0
  2 13  1  0
  3  8  1  0
  3  4  2  0
  4  5  1  0
  4 19  1  0
  5  6  2  0
  5 20  1  0
  6  7  1  0
  6 21  1  0
  7  8  2  0
  8 22  1  0
  9 12  1  0
  9 10  1  0
  9 23  1  0
 10 11  1  0
 10 24  1  0
 10 25  1  0
 11 12  1  0
 11 26  1  0
 11 27  1  0
 12 28  1  0
 12 29  1  0
 13 17  1  0
 13 14  1  0
 13 30  1  6
 14 15  1  0
 14 31  1  0
 14 32  1  0
 15 16  1  0
 15 33  1  0
 16 17  2  0
 16 34  1  0
 17 35  1  0
M  CHG  1  17   1
M  END
>  <i_m_ct_stereo_status>  (200) 
1

>  <s_m_source_file>  (200) 
/var/tmp/pbs.5076255.sched01/tmp5gbx45fw/500pp51iot.sdf

>  <i_m_source_file_index>  (200) 
30

>  <i_lp_mmshare_version>  (200) 
48012

>  <i_f3d_flags>  (200) 
0

>  <s_epik_input>  (200) 
TjE9W0NIXVtOSF1bQ0gyXVtDQEhdMVtDQEBdKFtPSF0pKFtDSF0yW0NIMl1bQ0gyXVtDSDJdMiljM1tjSF1bY0hdW2NIXW5bY0hdMw==

>  <s_epik_cmdline>  (200) 
J2VwaWtfcHl0aG9uJywgJy1waHQnLCAnMi4wJywgJy1waCcsICc3LjAnLCAnLXRuJywgJzgnLCAnLW1hJywgJzIwMCcsICctaW1hZScsICc8aW5maWxlLm1hZT4nLCAnLW9tYWUnLCAnPG91dGZpbGUubWFlPic=

>  <r_epik_Ionization_Penalty>  (200) 
0.00143013

>  <r_epik_Ionization_Penalty_Charging>  (200) 
0.000268358

>  <r_epik_Ionization_Penalty_Neutral>  (200) 
0.00116177

>  <r_epik_State_Penalty>  (200) 
0.41068

>  <r_epik_Charging_Adjusted_Penalty>  (200) 
0.410948

>  <i_epik_Tot_Q>  (200) 
1

>  <i_epik_Tot_abs_Q>  (200) 
1

>  <s_epik_Chemistry_Notes>  (200) 
This compound has an imine and may undergo hydrolysis.

>  <s_lp_Force_Field>  (200) 
OPLS3e

>  <r_lp_Energy>  (200) 
28.0501

>  <b_lp_Chiralities_Consistent>  (200) 
1

>  <s_lp_Variant>  (200) 
45:0-1

>  <s_i_glide_gridfile>  (200) 
pfpi4k_grid

>  <i_i_glide_lignum>  (200) 
30

>  <i_i_glide_rotatable_bonds>  (200) 
4

>  <r_i_docking_score>  (200) 
-3.76704

>  <r_i_glide_ligand_efficiency>  (200) 
-0.221591

>  <r_i_glide_ligand_efficiency_sa>  (200) 
-0.569772

>  <r_i_glide_ligand_efficiency_ln>  (200) 
-0.982738

>  <r_i_glide_gscore>  (200) 
-3.76704

>  <r_i_glide_lipo>  (200) 
-0.660584

>  <r_i_glide_hbond>  (200) 
-0.2

>  <r_i_glide_metal>  (200) 
-0

>  <r_i_glide_rewards>  (200) 
-1.82522

>  <r_i_glide_evdw>  (200) 
-19.2861

>  <r_i_glide_ecoul>  (200) 
-6.54781

>  <r_i_glide_erotb>  (200) 
0.952145

>  <r_i_glide_esite>  (200) 
-0.0869135

>  <r_i_glide_emodel>  (200) 
-32.474

>  <r_i_glide_energy>  (200) 
-25.8339

>  <r_i_glide_einternal>  (200) 
1.78546

>  <r_i_glide_intrahb_reward>  (200) 
-0

>  <i_i_glide_confnum>  (200) 
5

>  <i_i_glide_posenum>  (200) 
33

>  <r_i_glide_eff_state_penalty>  (200) 
0

>  <ligand_id>  (200) 
45

>  <original_smiles>  (200) 
OC(c1cccnc1)(C1CCC1)C1CNC=N1

>  <smiles>  (200) 
[H]OC(c1c([H])nc([H])c([H])c1[H])(C1([H])[N+]([H])=C([H])N([H])C1([H])[H])C1([H])C([H])([H])C([H])([H])C1([H])[H]

$$$$
45:1:0
     RDKit          3D

 35 37  0  0  1  0  0  0  0  0999 V2000
   -5.3809   -8.5478   -7.8898 O   0  0  0  0  0  0  0  0  0  0  0  0
   -6.4311   -8.4749   -6.9343 C   0  0  1  0  0  0  0  0  0  0  0  0
   -6.3314   -7.1777   -6.0978 C   0  0  0  0  0  0  0  0  0  0  0  0
   -7.4678   -6.3574   -5.8827 C   0  0  0  0  0  0  0  0  0  0  0  0
   -7.3562   -5.1707   -5.1485 C   0  0  0  0  0  0  0  0  0  0  0  0
   -6.1106   -4.8411   -4.5909 C   0  0  0  0  0  0  0  0  0  0  0  0
   -5.0057   -5.6022   -4.7699 N   0  0  0  0  0  0  0  0  0  0  0  0
   -5.1112   -6.7208   -5.5230 C   0  0  0  0  0  0  0  0  0  0  0  0
   -7.7518   -8.5123   -7.7511 C   0  0  0  0  0  0  0  0  0  0  0  0
   -8.0527   -9.5308   -8.8757 C   0  0  0  0  0  0  0  0  0  0  0  0
   -8.8333   -8.4366   -9.6071 C   0  0  0  0  0  0  0  0  0  0  0  0
   -8.0449   -7.4118   -8.8019 C   0  0  0  0  0  0  0  0  0  0  0  0
   -6.2897   -9.7297   -6.0243 C   0  0  2  0  0  0  0  0  0  0  0  0
   -4.8877   -9.8739   -5.3649 C   0  0  0  0  0  0  0  0  0  0  0  0
   -4.3371  -11.0798   -5.9747 N   0  0  0  0  0  0  0  0  0  0  0  0
   -5.2180  -11.6278   -6.8159 C   0  0  0  0  0  0  0  0  0  0  0  0
   -6.3823  -10.9709   -6.8152 N   0  0  0  0  0  0  0  0  0  0  0  0
   -5.5488   -7.9205   -8.5807 H   0  0  0  0  0  0  0  0  0  0  0  0
   -8.4493   -6.5966   -6.2703 H   0  0  0  0  0  0  0  0  0  0  0  0
   -8.2252   -4.5354   -5.0025 H   0  0  0  0  0  0  0  0  0  0  0  0
   -5.9822   -3.9437   -4.0045 H   0  0  0  0  0  0  0  0  0  0  0  0
   -4.1621   -7.2072   -5.7036 H   0  0  0  0  0  0  0  0  0  0  0  0
   -8.6118   -8.5919   -7.0754 H   0  0  0  0  0  0  0  0  0  0  0  0
   -7.1660   -9.8582   -9.4251 H   0  0  0  0  0  0  0  0  0  0  0  0
   -8.6749  -10.3742   -8.5630 H   0  0  0  0  0  0  0  0  0  0  0  0
   -8.6609   -8.3818  -10.6831 H   0  0  0  0  0  0  0  0  0  0  0  0
   -9.8984   -8.4201   -9.3593 H   0  0  0  0  0  0  0  0  0  0  0  0
   -8.6462   -6.5717   -8.4502 H   0  0  0  0  0  0  0  0  0  0  0  0
   -7.1428   -7.0715   -9.3146 H   0  0  0  0  0  0  0  0  0  0  0  0
   -7.1721  -11.1646   -7.4176 H   0  0  0  0  0  0  0  0  0  0  0  0
   -4.9758  -10.0349   -4.2909 H   0  0  0  0  0  0  0  0  0  0  0  0
   -7.0758   -9.7218   -5.2745 H   0  0  0  0  0  0  0  0  0  0  0  0
   -4.1797   -9.0753   -5.5412 H   0  0  0  0  0  0  0  0  0  0  0  0
   -5.0010  -12.4622   -7.4755 H   0  0  0  0  0  0  0  0  0  0  0  0
   -3.3484  -11.2821   -5.9466 H   0  0  0  0  0  0  0  0  0  0  0  0
  2  1  1  6
  1 18  1  0
  2  3  1  0
  2  9  1  0
  2 13  1  0
  3  8  1  0
  3  4  2  0
  4  5  1  0
  4 19  1  0
  5  6  2  0
  5 20  1  0
  6  7  1  0
  6 21  1  0
  7  8  2  0
  8 22  1  0
  9 12  1  0
  9 10  1  0
  9 23  1  0
 10 11  1  0
 10 24  1  0
 10 25  1  0
 11 12  1  0
 11 26  1  0
 11 27  1  0
 12 28  1  0
 12 29  1  0
 13 14  1  0
 13 32  1  1
 13 17  1  0
 14 15  1  0
 14 31  1  0
 14 33  1  0
 15 16  2  0
 15 35  1  0
 16 17  1  0
 16 34  1  0
 17 30  1  0
M  CHG  1  15   1
M  END
>  <i_m_ct_stereo_status>  (201) 
1

>  <s_m_source_file>  (201) 
/var/tmp/pbs.5076255.sched01/tmp5gbx45fw/500pp51iot.sdf

>  <i_m_source_file_index>  (201) 
31

>  <i_lp_mmshare_version>  (201) 
48012

>  <i_f3d_flags>  (201) 
0

>  <s_epik_input>  (201) 
TjE9W0NIXVtOSF1bQ0gyXVtDQEhdMVtDQEBdKFtPSF0pKFtDSF0yW0NIMl1bQ0gyXVtDSDJdMiljM1tjSF1bY0hdW2NIXW5bY0hdMw==

>  <s_epik_cmdline>  (201) 
J2VwaWtfcHl0aG9uJywgJy1waHQnLCAnMi4wJywgJy1waCcsICc3LjAnLCAnLXRuJywgJzgnLCAnLW1hJywgJzIwMCcsICctaW1hZScsICc8aW5maWxlLm1hZT4nLCAnLW9tYWUnLCAnPG91dGZpbGUubWFlPic=

>  <r_epik_Ionization_Penalty>  (201) 
0.00125159

>  <r_epik_Ionization_Penalty_Charging>  (201) 
0.000275297

>  <r_epik_Ionization_Penalty_Neutral>  (201) 
0.000976294

>  <r_epik_State_Penalty>  (201) 
0.41068

>  <r_epik_Charging_Adjusted_Penalty>  (201) 
0.410955

>  <i_epik_Tot_Q>  (201) 
1

>  <i_epik_Tot_abs_Q>  (201) 
1

>  <s_epik_Chemistry_Notes>  (201) 
This compound has an imine and may undergo hydrolysis.

>  <s_lp_Force_Field>  (201) 
OPLS3e

>  <r_lp_Energy>  (201) 
27.482

>  <b_lp_Chiralities_Consistent>  (201) 
1

>  <s_lp_Variant>  (201) 
45:0-2

>  <s_i_glide_gridfile>  (201) 
pfpi4k_grid

>  <i_i_glide_lignum>  (201) 
31

>  <i_i_glide_rotatable_bonds>  (201) 
4

>  <r_i_docking_score>  (201) 
-6.7339

>  <r_i_glide_ligand_efficiency>  (201) 
-0.396112

>  <r_i_glide_ligand_efficiency_sa>  (201) 
-1.01851

>  <r_i_glide_ligand_efficiency_ln>  (201) 
-1.75672

>  <r_i_glide_gscore>  (201) 
-6.7339

>  <r_i_glide_lipo>  (201) 
-2.35271

>  <r_i_glide_hbond>  (201) 
-0.32

>  <r_i_glide_metal>  (201) 
-0

>  <r_i_glide_rewards>  (201) 
-3.16654

>  <r_i_glide_evdw>  (201) 
-22.3643

>  <r_i_glide_ecoul>  (201) 
-4.77787

>  <r_i_glide_erotb>  (201) 
0.952145

>  <r_i_glide_esite>  (201) 
-0.0118969

>  <r_i_glide_emodel>  (201) 
-35.8531

>  <r_i_glide_energy>  (201) 
-27.1422

>  <r_i_glide_einternal>  (201) 
6.15409

>  <r_i_glide_intrahb_reward>  (201) 
-0

>  <i_i_glide_confnum>  (201) 
1

>  <i_i_glide_posenum>  (201) 
20

>  <r_i_glide_eff_state_penalty>  (201) 
0

>  <ligand_id>  (201) 
45

>  <original_smiles>  (201) 
OC(c1cccnc1)(C1CCC1)C1CNC=N1

>  <smiles>  (201) 
[H]OC(c1c([H])nc([H])c([H])c1[H])(C1([H])N([H])C([H])=[N+]([H])C1([H])[H])C1([H])C([H])([H])C([H])([H])C1([H])[H]

$$$$
45:1:1
     RDKit          3D

 35 37  0  0  1  0  0  0  0  0999 V2000
    6.1041   -1.5048    0.3159 O   0  0  0  0  0  0  0  0  0  0  0  0
    4.7005   -1.7581    0.3483 C   0  0  1  0  0  0  0  0  0  0  0  0
    4.1510   -1.8706   -1.0889 C   0  0  0  0  0  0  0  0  0  0  0  0
    3.0960   -2.7589   -1.4249 C   0  0  0  0  0  0  0  0  0  0  0  0
    2.6463   -2.8509   -2.7494 C   0  0  0  0  0  0  0  0  0  0  0  0
    3.2469   -2.0213   -3.7036 C   0  0  0  0  0  0  0  0  0  0  0  0
    4.2300   -1.1470   -3.4190 N   0  0  0  0  0  0  0  0  0  0  0  0
    4.6666   -1.0823   -2.1452 C   0  0  0  0  0  0  0  0  0  0  0  0
    4.4981   -3.1140    1.1151 C   0  0  0  0  0  0  0  0  0  0  0  0
    5.2785   -3.5382    2.3764 C   0  0  0  0  0  0  0  0  0  0  0  0
    6.0894   -4.4817    1.4883 C   0  0  0  0  0  0  0  0  0  0  0  0
    4.9586   -4.4368    0.4642 C   0  0  0  0  0  0  0  0  0  0  0  0
    4.0472   -0.5540    1.0724 C   0  0  2  0  0  0  0  0  0  0  0  0
    4.4649   -0.3841    2.5572 C   0  0  0  0  0  0  0  0  0  0  0  0
    3.2661   -0.7985    3.2855 N   0  0  0  0  0  0  0  0  0  0  0  0
    2.2543   -1.0072    2.4442 C   0  0  0  0  0  0  0  0  0  0  0  0
    2.6088   -0.7980    1.1688 N   0  0  0  0  0  0  0  0  0  0  0  0
    6.2599   -0.5771    0.3836 H   0  0  0  0  0  0  0  0  0  0  0  0
    2.6184   -3.3871   -0.6882 H   0  0  0  0  0  0  0  0  0  0  0  0
    1.8610   -3.5363   -3.0137 H   0  0  0  0  0  0  0  0  0  0  0  0
    2.9351   -2.0697   -4.7327 H   0  0  0  0  0  0  0  0  0  0  0  0
    5.4675   -0.3841   -1.9726 H   0  0  0  0  0  0  0  0  0  0  0  0
    3.4440   -3.2443    1.3486 H   0  0  0  0  0  0  0  0  0  0  0  0
    5.9074   -2.8175    2.8770 H   0  0  0  0  0  0  0  0  0  0  0  0
    4.6255   -4.0854    3.0625 H   0  0  0  0  0  0  0  0  0  0  0  0
    6.9886   -3.9862    1.1248 H   0  0  0  0  0  0  0  0  0  0  0  0
    6.2959   -5.4641    1.9215 H   0  0  0  0  0  0  0  0  0  0  0  0
    4.2287   -5.2346    0.5881 H   0  0  0  0  0  0  0  0  0  0  0  0
    5.2968   -4.3516   -0.5705 H   0  0  0  0  0  0  0  0  0  0  0  0
    1.9848   -0.9160    0.3635 H   0  0  0  0  0  0  0  0  0  0  0  0
    4.6379    0.6867    2.7984 H   0  0  0  0  0  0  0  0  0  0  0  0
    4.2124    0.3738    0.5278 H   0  0  0  0  0  0  0  0  0  0  0  0
    5.3596   -0.9243    2.8422 H   0  0  0  0  0  0  0  0  0  0  0  0
    1.2583   -1.3459    2.7410 H   0  0  0  0  0  0  0  0  0  0  0  0
    3.2520   -0.9894    4.2664 H   0  0  0  0  0  0  0  0  0  0  0  0
  2  1  1  6
  1 18  1  0
  2  3  1  0
  2  9  1  0
  2 13  1  0
  3  8  1  0
  3  4  2  0
  4  5  1  0
  4 19  1  0
  5  6  2  0
  5 20  1  0
  6  7  1  0
  6 21  1  0
  7  8  2  0
  8 22  1  0
  9 12  1  0
  9 10  1  0
  9 23  1  0
 10 11  1  0
 10 24  1  0
 10 25  1  0
 11 12  1  0
 11 26  1  0
 11 27  1  0
 12 28  1  0
 12 29  1  0
 13 14  1  0
 13 32  1  6
 13 17  1  0
 14 15  1  0
 14 31  1  0
 14 33  1  0
 15 16  2  0
 15 35  1  0
 16 17  1  0
 16 34  1  0
 17 30  1  0
M  CHG  1  15   1
M  END
>  <i_m_ct_stereo_status>  (202) 
1

>  <s_m_source_file>  (202) 
/var/tmp/pbs.5076255.sched01/tmp5gbx45fw/500pp51iot.sdf

>  <i_m_source_file_index>  (202) 
31

>  <i_lp_mmshare_version>  (202) 
48012

>  <i_f3d_flags>  (202) 
0

>  <s_epik_input>  (202) 
TjE9W0NIXVtOSF1bQ0gyXVtDQEhdMVtDQEBdKFtPSF0pKFtDSF0yW0NIMl1bQ0gyXVtDSDJdMiljM1tjSF1bY0hdW2NIXW5bY0hdMw==

>  <s_epik_cmdline>  (202) 
J2VwaWtfcHl0aG9uJywgJy1waHQnLCAnMi4wJywgJy1waCcsICc3LjAnLCAnLXRuJywgJzgnLCAnLW1hJywgJzIwMCcsICctaW1hZScsICc8aW5maWxlLm1hZT4nLCAnLW9tYWUnLCAnPG91dGZpbGUubWFlPic=

>  <r_epik_Ionization_Penalty>  (202) 
0.00125159

>  <r_epik_Ionization_Penalty_Charging>  (202) 
0.000275297

>  <r_epik_Ionization_Penalty_Neutral>  (202) 
0.000976294

>  <r_epik_State_Penalty>  (202) 
0.41068

>  <r_epik_Charging_Adjusted_Penalty>  (202) 
0.410955

>  <i_epik_Tot_Q>  (202) 
1

>  <i_epik_Tot_abs_Q>  (202) 
1

>  <s_epik_Chemistry_Notes>  (202) 
This compound has an imine and may undergo hydrolysis.

>  <s_lp_Force_Field>  (202) 
OPLS3e

>  <r_lp_Energy>  (202) 
27.482

>  <b_lp_Chiralities_Consistent>  (202) 
1

>  <s_lp_Variant>  (202) 
45:0-2

>  <s_i_glide_gridfile>  (202) 
pfpi4k_grid

>  <i_i_glide_lignum>  (202) 
31

>  <i_i_glide_rotatable_bonds>  (202) 
4

>  <r_i_docking_score>  (202) 
-3.85141

>  <r_i_glide_ligand_efficiency>  (202) 
-0.226554

>  <r_i_glide_ligand_efficiency_sa>  (202) 
-0.582534

>  <r_i_glide_ligand_efficiency_ln>  (202) 
-1.00475

>  <r_i_glide_gscore>  (202) 
-3.85141

>  <r_i_glide_lipo>  (202) 
-0.538599

>  <r_i_glide_hbond>  (202) 
-0.2

>  <r_i_glide_metal>  (202) 
-0

>  <r_i_glide_rewards>  (202) 
-1.82522

>  <r_i_glide_evdw>  (202) 
-20.9829

>  <r_i_glide_ecoul>  (202) 
-7.35523

>  <r_i_glide_erotb>  (202) 
0.952145

>  <r_i_glide_esite>  (202) 
-0.0873126

>  <r_i_glide_emodel>  (202) 
-32.7483

>  <r_i_glide_energy>  (202) 
-28.3382

>  <r_i_glide_einternal>  (202) 
3.74236

>  <r_i_glide_intrahb_reward>  (202) 
-0

>  <i_i_glide_confnum>  (202) 
5

>  <i_i_glide_posenum>  (202) 
29

>  <r_i_glide_eff_state_penalty>  (202) 
0

>  <ligand_id>  (202) 
45

>  <original_smiles>  (202) 
OC(c1cccnc1)(C1CCC1)C1CNC=N1

>  <smiles>  (202) 
[H]OC(c1c([H])nc([H])c([H])c1[H])(C1([H])N([H])C([H])=[N+]([H])C1([H])[H])C1([H])C([H])([H])C([H])([H])C1([H])[H]

$$$$
45:1:2
     RDKit          3D

 35 37  0  0  1  0  0  0  0  0999 V2000
    5.1269   -1.2826    0.3397 O   0  0  0  0  0  0  0  0  0  0  0  0
    4.7740   -2.4228   -0.4268 C   0  0  1  0  0  0  0  0  0  0  0  0
    4.2939   -2.0154   -1.8306 C   0  0  0  0  0  0  0  0  0  0  0  0
    3.8697   -2.9777   -2.7799 C   0  0  0  0  0  0  0  0  0  0  0  0
    3.3998   -2.5608   -4.0265 C   0  0  0  0  0  0  0  0  0  0  0  0
    3.4102   -1.1865   -4.3408 C   0  0  0  0  0  0  0  0  0  0  0  0
    3.8559   -0.2561   -3.4752 N   0  0  0  0  0  0  0  0  0  0  0  0
    4.2621   -0.6697   -2.2645 C   0  0  0  0  0  0  0  0  0  0  0  0
    6.0632   -3.2835   -0.5580 C   0  0  0  0  0  0  0  0  0  0  0  0
    7.0653   -3.5026    0.6065 C   0  0  0  0  0  0  0  0  0  0  0  0
    7.9919   -2.4882   -0.0534 C   0  0  0  0  0  0  0  0  0  0  0  0
    7.2521   -2.7490   -1.3726 C   0  0  0  0  0  0  0  0  0  0  0  0
    3.6366   -3.1364    0.3700 C   0  0  2  0  0  0  0  0  0  0  0  0
    4.0356   -3.5550    1.8043 C   0  0  0  0  0  0  0  0  0  0  0  0
    4.1756   -5.0131    1.7071 N   0  0  0  0  0  0  0  0  0  0  0  0
    3.7636   -5.4269    0.5006 C   0  0  0  0  0  0  0  0  0  0  0  0
    3.3272   -4.4288   -0.2605 N   0  0  0  0  0  0  0  0  0  0  0  0
    4.3672   -0.7344    0.4871 H   0  0  0  0  0  0  0  0  0  0  0  0
    3.8949   -4.0332   -2.5592 H   0  0  0  0  0  0  0  0  0  0  0  0
    3.0230   -3.2861   -4.7321 H   0  0  0  0  0  0  0  0  0  0  0  0
    3.0717   -0.8291   -5.3020 H   0  0  0  0  0  0  0  0  0  0  0  0
    4.5864    0.1201   -1.6181 H   0  0  0  0  0  0  0  0  0  0  0  0
    5.8041   -4.2458   -0.9939 H   0  0  0  0  0  0  0  0  0  0  0  0
    6.7516   -3.1841    1.6009 H   0  0  0  0  0  0  0  0  0  0  0  0
    7.4747   -4.5210    0.5881 H   0  0  0  0  0  0  0  0  0  0  0  0
    7.8187   -1.4829    0.3274 H   0  0  0  0  0  0  0  0  0  0  0  0
    9.0484   -2.7520   -0.0544 H   0  0  0  0  0  0  0  0  0  0  0  0
    7.7389   -3.5066   -1.9961 H   0  0  0  0  0  0  0  0  0  0  0  0
    7.0264   -1.8639   -1.9672 H   0  0  0  0  0  0  0  0  0  0  0  0
    3.0977   -4.5239   -1.2533 H   0  0  0  0  0  0  0  0  0  0  0  0
    3.2229   -3.3401    2.4965 H   0  0  0  0  0  0  0  0  0  0  0  0
    2.7421   -2.5073    0.3937 H   0  0  0  0  0  0  0  0  0  0  0  0
    4.9408   -3.0763    2.1662 H   0  0  0  0  0  0  0  0  0  0  0  0
    3.8122   -6.4457    0.1469 H   0  0  0  0  0  0  0  0  0  0  0  0
    4.6090   -5.6091    2.3969 H   0  0  0  0  0  0  0  0  0  0  0  0
  2  1  1  1
  1 18  1  0
  2  3  1  0
  2  9  1  0
  2 13  1  0
  3  8  1  0
  3  4  2  0
  4  5  1  0
  4 19  1  0
  5  6  2  0
  5 20  1  0
  6  7  1  0
  6 21  1  0
  7  8  2  0
  8 22  1  0
  9 12  1  0
  9 10  1  0
  9 23  1  0
 10 11  1  0
 10 24  1  0
 10 25  1  0
 11 12  1  0
 11 26  1  0
 11 27  1  0
 12 28  1  0
 12 29  1  0
 13 14  1  0
 13 32  1  1
 13 17  1  0
 14 15  1  0
 14 31  1  0
 14 33  1  0
 15 16  2  0
 15 35  1  0
 16 17  1  0
 16 34  1  0
 17 30  1  0
M  CHG  1  15   1
M  END
>  <i_m_ct_stereo_status>  (203) 
1

>  <s_m_source_file>  (203) 
/var/tmp/pbs.5076255.sched01/tmp5gbx45fw/500pp51iot.sdf

>  <i_m_source_file_index>  (203) 
31

>  <i_lp_mmshare_version>  (203) 
48012

>  <i_f3d_flags>  (203) 
0

>  <s_epik_input>  (203) 
TjE9W0NIXVtOSF1bQ0gyXVtDQEhdMVtDQEBdKFtPSF0pKFtDSF0yW0NIMl1bQ0gyXVtDSDJdMiljM1tjSF1bY0hdW2NIXW5bY0hdMw==

>  <s_epik_cmdline>  (203) 
J2VwaWtfcHl0aG9uJywgJy1waHQnLCAnMi4wJywgJy1waCcsICc3LjAnLCAnLXRuJywgJzgnLCAnLW1hJywgJzIwMCcsICctaW1hZScsICc8aW5maWxlLm1hZT4nLCAnLW9tYWUnLCAnPG91dGZpbGUubWFlPic=

>  <r_epik_Ionization_Penalty>  (203) 
0.00125159

>  <r_epik_Ionization_Penalty_Charging>  (203) 
0.000275297

>  <r_epik_Ionization_Penalty_Neutral>  (203) 
0.000976294

>  <r_epik_State_Penalty>  (203) 
0.41068

>  <r_epik_Charging_Adjusted_Penalty>  (203) 
0.410955

>  <i_epik_Tot_Q>  (203) 
1

>  <i_epik_Tot_abs_Q>  (203) 
1

>  <s_epik_Chemistry_Notes>  (203) 
This compound has an imine and may undergo hydrolysis.

>  <s_lp_Force_Field>  (203) 
OPLS3e

>  <r_lp_Energy>  (203) 
27.482

>  <b_lp_Chiralities_Consistent>  (203) 
1

>  <s_lp_Variant>  (203) 
45:0-2

>  <s_i_glide_gridfile>  (203) 
pfpi4k_grid

>  <i_i_glide_lignum>  (203) 
31

>  <i_i_glide_rotatable_bonds>  (203) 
4

>  <r_i_docking_score>  (203) 
-3.09551

>  <r_i_glide_ligand_efficiency>  (203) 
-0.182089

>  <r_i_glide_ligand_efficiency_sa>  (203) 
-0.468201

>  <r_i_glide_ligand_efficiency_ln>  (203) 
-0.807549

>  <r_i_glide_gscore>  (203) 
-3.09551

>  <r_i_glide_lipo>  (203) 
-0.294489

>  <r_i_glide_hbond>  (203) 
0

>  <r_i_glide_metal>  (203) 
-0

>  <r_i_glide_rewards>  (203) 
-1.83174

>  <r_i_glide_evdw>  (203) 
-23.6104

>  <r_i_glide_ecoul>  (203) 
-4.71309

>  <r_i_glide_erotb>  (203) 
0.952145

>  <r_i_glide_esite>  (203) 
-0.0339405

>  <r_i_glide_emodel>  (203) 
-33.2693

>  <r_i_glide_energy>  (203) 
-28.3235

>  <r_i_glide_einternal>  (203) 
0.804579

>  <r_i_glide_intrahb_reward>  (203) 
-0

>  <i_i_glide_confnum>  (203) 
5

>  <i_i_glide_posenum>  (203) 
10

>  <r_i_glide_eff_state_penalty>  (203) 
0

>  <ligand_id>  (203) 
45

>  <original_smiles>  (203) 
OC(c1cccnc1)(C1CCC1)C1CNC=N1

>  <smiles>  (203) 
[H]OC(c1c([H])nc([H])c([H])c1[H])(C1([H])N([H])C([H])=[N+]([H])C1([H])[H])C1([H])C([H])([H])C([H])([H])C1([H])[H]

$$$$
47:0:0
     RDKit          3D

 73 80  0  0  1  0  0  0  0  0999 V2000
    1.5872   -4.0863    6.2810 C   0  0  0  0  0  0  0  0  0  0  0  0
    2.1740   -4.9399    5.2928 O   0  0  0  0  0  0  0  0  0  0  0  0
    3.6041   -5.1230    5.2199 C   0  0  1  0  0  0  0  0  0  0  0  0
    4.1827   -5.6685    6.5321 C   0  0  0  0  0  0  0  0  0  0  0  0
    3.9276   -5.2512    7.6616 O   0  0  0  0  0  0  0  0  0  0  0  0
    5.1428   -6.8096    6.2716 C   0  0  0  0  0  0  0  0  0  0  0  0
    5.2056   -6.9251    4.7398 C   0  0  0  0  0  0  0  0  0  0  0  0
    3.9085   -6.2902    4.1513 C   0  0  1  0  0  0  0  0  0  0  0  0
    2.8727   -7.3369    4.3401 N   0  0  0  0  0  0  0  0  0  0  0  0
    2.8687   -8.5712    3.5446 C   0  0  0  0  0  0  0  0  0  0  0  0
    1.6960   -9.4767    3.9443 C   0  0  0  0  0  0  0  0  0  0  0  0
    0.3345   -8.8398    3.7110 C   0  0  0  0  0  0  0  0  0  0  0  0
   -0.1112   -7.7693    4.5120 C   0  0  0  0  0  0  0  0  0  0  0  0
   -1.3683   -7.2064    4.2509 C   0  0  0  0  0  0  0  0  0  0  0  0
   -2.1833   -7.6367    3.2677 N   0  0  0  0  0  0  0  0  0  0  0  0
   -1.7683   -8.6807    2.5203 C   0  0  0  0  0  0  0  0  0  0  0  0
   -0.5174   -9.3049    2.6920 C   0  0  0  0  0  0  0  0  0  0  0  0
    3.9118   -5.7531    2.6291 C   0  0  2  0  0  0  0  0  0  0  0  0
    2.5239   -5.5787    2.3448 O   0  0  0  0  0  0  0  0  0  0  0  0
    4.5071   -6.5057    1.3790 C   0  0  1  0  0  0  0  0  0  0  0  0
    4.0375   -5.8006    0.0575 C   0  0  0  0  0  0  0  0  0  0  0  0
    4.1799   -4.2752   -0.0092 C   0  0  0  0  0  0  0  0  0  0  0  0
    4.0685   -3.3928   -1.1008 C   0  0  0  0  0  0  0  0  0  0  0  0
    4.1314   -1.9874   -0.8724 C   0  0  0  0  0  0  0  0  0  0  0  0
    4.2467   -1.4489    0.4403 C   0  0  0  0  0  0  0  0  0  0  0  0
    4.2992   -0.1024    0.6404 O   0  0  0  0  0  0  0  0  0  0  0  0
    4.3155   -2.3156    1.5485 C   0  0  0  0  0  0  0  0  0  0  0  0
    4.3231   -3.6682    1.2383 C   0  0  0  0  0  0  0  0  0  0  0  0
    4.5894   -4.3771    2.5115 C   0  0  2  0  0  0  0  0  0  0  0  0
    6.1478   -4.4694    2.6440 C   0  0  0  0  0  0  0  0  0  0  0  0
    6.7912   -5.3574    1.6466 N   0  0  1  0  0  0  0  0  0  0  0  0
    8.1727   -5.7966    1.9604 C   0  0  0  0  0  0  0  0  0  0  0  0
    8.0681   -7.2262    2.5118 C   0  0  0  0  0  0  0  0  0  0  0  0
    6.7769   -7.7985    1.9068 C   0  0  0  0  0  0  0  0  0  0  0  0
    6.0526   -6.5875    1.3033 C   0  0  1  0  0  0  0  0  0  0  0  0
    3.9589   -3.3493    3.4423 C   0  0  2  0  0  0  0  0  0  0  0  0
    4.3764   -2.0751    2.9126 O   0  0  0  0  0  0  0  0  0  0  0  0
    4.2452   -3.7440    4.8754 C   0  0  0  0  0  0  0  0  0  0  0  0
    4.8962   -3.0379    5.6470 O   0  0  0  0  0  0  0  0  0  0  0  0
    0.5708   -3.8389    5.9737 H   0  0  0  0  0  0  0  0  0  0  0  0
    2.1169   -3.1432    6.4211 H   0  0  0  0  0  0  0  0  0  0  0  0
    1.5154   -4.5949    7.2424 H   0  0  0  0  0  0  0  0  0  0  0  0
    6.1230   -6.6384    6.7215 H   0  0  0  0  0  0  0  0  0  0  0  0
    4.7200   -7.7161    6.7081 H   0  0  0  0  0  0  0  0  0  0  0  0
    6.1233   -6.4578    4.4263 H   0  0  0  0  0  0  0  0  0  0  0  0
    5.3239   -7.9745    4.4950 H   0  0  0  0  0  0  0  0  0  0  0  0
    2.8010   -7.5550    5.3287 H   0  0  0  0  0  0  0  0  0  0  0  0
    2.7481   -8.3531    2.4881 H   0  0  0  0  0  0  0  0  0  0  0  0
    3.7977   -9.1277    3.6682 H   0  0  0  0  0  0  0  0  0  0  0  0
    1.7674  -10.3912    3.3563 H   0  0  0  0  0  0  0  0  0  0  0  0
    1.7749   -9.7726    4.9905 H   0  0  0  0  0  0  0  0  0  0  0  0
    0.4947   -7.3667    5.3079 H   0  0  0  0  0  0  0  0  0  0  0  0
   -1.7212   -6.3787    4.8465 H   0  0  0  0  0  0  0  0  0  0  0  0
   -2.4553   -9.0267    1.7639 H   0  0  0  0  0  0  0  0  0  0  0  0
   -0.2341  -10.1329    2.0584 H   0  0  0  0  0  0  0  0  0  0  0  0
    2.1051   -6.4138    2.5112 H   0  0  0  0  0  0  0  0  0  0  0  0
    4.1569   -7.5305    1.3026 H   0  0  0  0  0  0  0  0  0  0  0  0
    4.5416   -6.2299   -0.8028 H   0  0  0  0  0  0  0  0  0  0  0  0
    2.9814   -6.0189   -0.0998 H   0  0  0  0  0  0  0  0  0  0  0  0
    3.9272   -3.7807   -2.0981 H   0  0  0  0  0  0  0  0  0  0  0  0
    4.0677   -1.3218   -1.7167 H   0  0  0  0  0  0  0  0  0  0  0  0
    4.3260    0.3939   -0.1634 H   0  0  0  0  0  0  0  0  0  0  0  0
    6.5695   -3.4836    2.4634 H   0  0  0  0  0  0  0  0  0  0  0  0
    6.4618   -4.7038    3.6479 H   0  0  0  0  0  0  0  0  0  0  0  0
    8.7128   -5.8476    1.0143 H   0  0  0  0  0  0  0  0  0  0  0  0
    8.7291   -5.1252    2.6162 H   0  0  0  0  0  0  0  0  0  0  0  0
    8.9429   -7.8360    2.2693 H   0  0  0  0  0  0  0  0  0  0  0  0
    8.0030   -7.2102    3.5995 H   0  0  0  0  0  0  0  0  0  0  0  0
    7.0183   -8.5209    1.1216 H   0  0  0  0  0  0  0  0  0  0  0  0
    6.1873   -8.3475    2.6354 H   0  0  0  0  0  0  0  0  0  0  0  0
    6.3011   -6.6555    0.2518 H   0  0  0  0  0  0  0  0  0  0  0  0
    2.8724   -3.3631    3.3458 H   0  0  0  0  0  0  0  0  0  0  0  0
    6.8270   -4.8028    0.8011 H   0  0  0  0  0  0  0  0  0  0  0  0
  1  2  1  0
  1 40  1  0
  1 41  1  0
  1 42  1  0
  3  2  1  1
  3  8  1  0
  3 38  1  0
  3  4  1  0
  4  5  2  0
  4  6  1  0
  6  7  1  0
  6 43  1  0
  6 44  1  0
  7  8  1  0
  7 45  1  0
  7 46  1  0
  8  9  1  6
  8 18  1  0
  9 10  1  0
  9 47  1  0
 10 11  1  0
 10 48  1  0
 10 49  1  0
 11 12  1  0
 11 50  1  0
 11 51  1  0
 12 17  1  0
 12 13  2  0
 13 14  1  0
 13 52  1  0
 14 15  2  0
 14 53  1  0
 15 16  1  0
 16 17  2  0
 16 54  1  0
 17 55  1  0
 18 29  1  0
 18 19  1  6
 18 20  1  0
 19 56  1  0
 20 35  1  0
 20 21  1  0
 20 57  1  6
 21 22  1  0
 21 58  1  0
 21 59  1  0
 22 28  2  0
 22 23  1  0
 23 24  2  0
 23 60  1  0
 24 25  1  0
 24 61  1  0
 25 26  1  0
 25 27  2  0
 26 62  1  0
 27 37  1  0
 27 28  1  0
 28 29  1  0
 29 30  1  1
 29 36  1  0
 30 31  1  0
 30 63  1  0
 30 64  1  0
 31 35  1  0
 31 32  1  0
 31 73  1  6
 32 33  1  0
 32 65  1  0
 32 66  1  0
 33 34  1  0
 33 67  1  0
 33 68  1  0
 34 35  1  0
 34 69  1  0
 34 70  1  0
 35 71  1  6
 36 37  1  0
 36 38  1  0
 36 72  1  1
 38 39  2  0
M  CHG  1  31   1
M  END
>  <i_m_ct_stereo_status>  (204) 
1

>  <s_m_source_file>  (204) 
/var/tmp/pbs.5076255.sched01/tmp5gbx45fw/500pp51iot.sdf

>  <i_m_source_file_index>  (204) 
33

>  <i_lp_mmshare_version>  (204) 
48012

>  <i_f3d_flags>  (204) 
0

>  <s_epik_input>  (204) 
W2NIXTFbY0hdbltjSF1bY0hdYzFbQ0gyXVtDSDJdW05IXVtDQEBdMihbQ0BdMyhbQ0BdNDU2KVtPSF0pW0NAQF0oT1tDSDNdKShDKD1PKVtDSDJdW0NIMl0yKUMoPU8pW0NASF02T2M3YzRjKFtjSF1bY0hdYzdbT0hdKVtDSDJdW0NASF0zW0NASF04TihbQ0gyXTUpW0NIMl1bQ0gyXVtDSDJdOA==

>  <s_epik_cmdline>  (204) 
J2VwaWtfcHl0aG9uJywgJy1waHQnLCAnMi4wJywgJy1waCcsICc3LjAnLCAnLXRuJywgJzgnLCAnLW1hJywgJzIwMCcsICctaW1hZScsICc8aW5maWxlLm1hZT4nLCAnLW9tYWUnLCAnPG91dGZpbGUubWFlPic=

>  <r_lp_tautomer_probability>  (204) 
0.99995

>  <r_epik_Ionization_Penalty>  (204) 
0.201271

>  <r_epik_Ionization_Penalty_Charging>  (204) 
0.000713385

>  <r_epik_Ionization_Penalty_Neutral>  (204) 
0.200557

>  <r_epik_State_Penalty>  (204) 
0.165007

>  <r_epik_Charging_Adjusted_Penalty>  (204) 
0.16572

>  <i_epik_Tot_Q>  (204) 
1

>  <i_epik_Tot_abs_Q>  (204) 
1

>  <s_lp_Force_Field>  (204) 
OPLS3e

>  <r_lp_Energy>  (204) 
111.288

>  <b_lp_Chiralities_Consistent>  (204) 
1

>  <s_lp_Variant>  (204) 
47:0-1

>  <s_i_glide_gridfile>  (204) 
pfpi4k_grid

>  <i_i_glide_lignum>  (204) 
33

>  <i_i_glide_rotatable_bonds>  (204) 
7

>  <r_i_docking_score>  (204) 
-2.17437

>  <r_i_glide_ligand_efficiency>  (204) 
-0.0557531

>  <r_i_glide_ligand_efficiency_sa>  (204) 
-0.189071

>  <r_i_glide_ligand_efficiency_ln>  (204) 
-0.466247

>  <r_i_glide_gscore>  (204) 
-2.17437

>  <r_i_glide_lipo>  (204) 
-0.481647

>  <r_i_glide_hbond>  (204) 
0

>  <r_i_glide_metal>  (204) 
-0

>  <r_i_glide_rewards>  (204) 
-0.00297977

>  <r_i_glide_evdw>  (204) 
-27.3142

>  <r_i_glide_ecoul>  (204) 
-3.61453

>  <r_i_glide_erotb>  (204) 
0.218145

>  <r_i_glide_esite>  (204) 
0

>  <r_i_glide_emodel>  (204) 
-34.3257

>  <r_i_glide_energy>  (204) 
-30.9288

>  <r_i_glide_einternal>  (204) 
2.3696

>  <r_i_glide_intrahb_reward>  (204) 
-0

>  <i_i_glide_confnum>  (204) 
1

>  <i_i_glide_posenum>  (204) 
16

>  <r_i_glide_eff_state_penalty>  (204) 
0

>  <ligand_id>  (204) 
47

>  <original_smiles>  (204) 
COC12C(=O)CCC1(NCCc1ccncc1)C1(O)C3Cc4ccc(O)c5c4C1(CN1CCCC31)C(O5)C2=O

>  <smiles>  (204) 
[H]Oc1c([H])c([H])c2c3c1OC1([H])C(=O)C4(OC([H])([H])[H])C(=O)C([H])([H])C([H])([H])C4(N([H])C([H])([H])C([H])([H])c4c([H])c([H])nc([H])c4[H])C4(O[H])C([H])(C2([H])[H])C2([H])C([H])([H])C([H])([H])C([H])([H])[N+]2([H])C([H])([H])C314

$$$$
47:0:1
     RDKit          3D

 73 80  0  0  1  0  0  0  0  0999 V2000
    2.3857   -6.7195    7.4480 C   0  0  0  0  0  0  0  0  0  0  0  0
    3.0503   -5.9095    6.4688 O   0  0  0  0  0  0  0  0  0  0  0  0
    4.3044   -6.2773    5.8417 C   0  0  1  0  0  0  0  0  0  0  0  0
    5.2366   -7.0554    6.7772 C   0  0  0  0  0  0  0  0  0  0  0  0
    5.4297   -6.8015    7.9676 O   0  0  0  0  0  0  0  0  0  0  0  0
    5.9377   -8.1777    6.0531 C   0  0  0  0  0  0  0  0  0  0  0  0
    5.5018   -8.0192    4.5861 C   0  0  0  0  0  0  0  0  0  0  0  0
    4.1489   -7.2402    4.5512 C   0  0  1  0  0  0  0  0  0  0  0  0
    3.1121   -8.2489    4.8751 N   0  0  0  0  0  0  0  0  0  0  0  0
    2.8261   -9.3864    3.9963 C   0  0  0  0  0  0  0  0  0  0  0  0
    1.4819  -10.0284    4.3724 C   0  0  0  0  0  0  0  0  0  0  0  0
    0.2999   -9.1409    4.0090 C   0  0  0  0  0  0  0  0  0  0  0  0
   -0.4875   -9.4064    2.8714 C   0  0  0  0  0  0  0  0  0  0  0  0
   -1.5687   -8.5490    2.5824 C   0  0  0  0  0  0  0  0  0  0  0  0
   -1.8726   -7.4546    3.3174 N   0  0  0  0  0  0  0  0  0  0  0  0
   -1.1246   -7.2129    4.4094 C   0  0  0  0  0  0  0  0  0  0  0  0
   -0.0351   -8.0158    4.7907 C   0  0  0  0  0  0  0  0  0  0  0  0
    3.7568   -6.4256    3.2082 C   0  0  2  0  0  0  0  0  0  0  0  0
    2.3709   -6.1513    3.4133 O   0  0  0  0  0  0  0  0  0  0  0  0
    3.8619   -6.9476    1.7183 C   0  0  1  0  0  0  0  0  0  0  0  0
    3.0788   -5.9866    0.7574 C   0  0  0  0  0  0  0  0  0  0  0  0
    3.3414   -4.4898    0.8989 C   0  0  0  0  0  0  0  0  0  0  0  0
    3.0003   -3.4231    0.0560 C   0  0  0  0  0  0  0  0  0  0  0  0
    3.2678   -2.0895    0.4783 C   0  0  0  0  0  0  0  0  0  0  0  0
    3.8166   -1.8048    1.7649 C   0  0  0  0  0  0  0  0  0  0  0  0
    4.0135   -0.5096    2.1471 O   0  0  0  0  0  0  0  0  0  0  0  0
    4.1430   -2.8633    2.6344 C   0  0  0  0  0  0  0  0  0  0  0  0
    3.9255   -4.1337    2.1207 C   0  0  0  0  0  0  0  0  0  0  0  0
    4.4950   -5.0790    3.1077 C   0  0  2  0  0  0  0  0  0  0  0  0
    6.0067   -5.2489    2.7304 C   0  0  0  0  0  0  0  0  0  0  0  0
    6.2175   -5.9662    1.4454 N   0  0  1  0  0  0  0  0  0  0  0  0
    7.5797   -6.5067    1.2393 C   0  0  0  0  0  0  0  0  0  0  0  0
    7.5073   -8.0040    1.5411 C   0  0  0  0  0  0  0  0  0  0  0  0
    6.0406   -8.4128    1.3219 C   0  0  0  0  0  0  0  0  0  0  0  0
    5.2923   -7.0858    1.1503 C   0  0  1  0  0  0  0  0  0  0  0  0
    4.2743   -4.2238    4.3442 C   0  0  2  0  0  0  0  0  0  0  0  0
    4.6352   -2.8884    3.9326 O   0  0  0  0  0  0  0  0  0  0  0  0
    4.9483   -4.8957    5.5255 C   0  0  0  0  0  0  0  0  0  0  0  0
    5.8574   -4.3611    6.1649 O   0  0  0  0  0  0  0  0  0  0  0  0
    1.4789   -6.1986    7.7500 H   0  0  0  0  0  0  0  0  0  0  0  0
    2.9710   -6.8643    8.3498 H   0  0  0  0  0  0  0  0  0  0  0  0
    2.0948   -7.7052    7.0987 H   0  0  0  0  0  0  0  0  0  0  0  0
    7.0222   -8.1382    6.1892 H   0  0  0  0  0  0  0  0  0  0  0  0
    5.5773   -9.1217    6.4628 H   0  0  0  0  0  0  0  0  0  0  0  0
    6.3177   -7.5313    4.0771 H   0  0  0  0  0  0  0  0  0  0  0  0
    5.4428   -9.0089    4.1488 H   0  0  0  0  0  0  0  0  0  0  0  0
    3.2846   -8.5970    5.8134 H   0  0  0  0  0  0  0  0  0  0  0  0
    2.7293   -9.0994    2.9529 H   0  0  0  0  0  0  0  0  0  0  0  0
    3.6259  -10.1290    4.0581 H   0  0  0  0  0  0  0  0  0  0  0  0
    1.3931  -10.9660    3.8234 H   0  0  0  0  0  0  0  0  0  0  0  0
    1.4463  -10.2746    5.4329 H   0  0  0  0  0  0  0  0  0  0  0  0
   -0.2881  -10.2524    2.2278 H   0  0  0  0  0  0  0  0  0  0  0  0
   -2.2111   -8.7343    1.7332 H   0  0  0  0  0  0  0  0  0  0  0  0
   -1.3955   -6.3546    5.0041 H   0  0  0  0  0  0  0  0  0  0  0  0
    0.5236   -7.7593    5.6702 H   0  0  0  0  0  0  0  0  0  0  0  0
    1.9612   -6.9752    3.6460 H   0  0  0  0  0  0  0  0  0  0  0  0
    3.3962   -7.9113    1.5458 H   0  0  0  0  0  0  0  0  0  0  0  0
    3.2358   -6.2537   -0.2832 H   0  0  0  0  0  0  0  0  0  0  0  0
    2.0109   -6.1444    0.9204 H   0  0  0  0  0  0  0  0  0  0  0  0
    2.5262   -3.6087   -0.9013 H   0  0  0  0  0  0  0  0  0  0  0  0
    3.0148   -1.2826   -0.1899 H   0  0  0  0  0  0  0  0  0  0  0  0
    3.6647    0.1112    1.5292 H   0  0  0  0  0  0  0  0  0  0  0  0
    6.4524   -4.2690    2.5773 H   0  0  0  0  0  0  0  0  0  0  0  0
    6.6072   -5.6634    3.5272 H   0  0  0  0  0  0  0  0  0  0  0  0
    7.8071   -6.4024    0.1805 H   0  0  0  0  0  0  0  0  0  0  0  0
    8.3710   -5.9986    1.7915 H   0  0  0  0  0  0  0  0  0  0  0  0
    8.1852   -8.5552    0.8861 H   0  0  0  0  0  0  0  0  0  0  0  0
    7.7983   -8.2026    2.5728 H   0  0  0  0  0  0  0  0  0  0  0  0
    5.9482   -9.0392    0.4337 H   0  0  0  0  0  0  0  0  0  0  0  0
    5.6545   -9.0479    2.1087 H   0  0  0  0  0  0  0  0  0  0  0  0
    5.1845   -7.0195    0.0733 H   0  0  0  0  0  0  0  0  0  0  0  0
    3.2097   -4.1655    4.5940 H   0  0  0  0  0  0  0  0  0  0  0  0
    6.0460   -5.2614    0.7323 H   0  0  0  0  0  0  0  0  0  0  0  0
  1  2  1  0
  1 40  1  0
  1 41  1  0
  1 42  1  0
  3  2  1  1
  3  8  1  0
  3 38  1  0
  3  4  1  0
  4  5  2  0
  4  6  1  0
  6  7  1  0
  6 43  1  0
  6 44  1  0
  7  8  1  0
  7 45  1  0
  7 46  1  0
  8  9  1  1
  8 18  1  0
  9 10  1  0
  9 47  1  0
 10 11  1  0
 10 48  1  0
 10 49  1  0
 11 12  1  0
 11 50  1  0
 11 51  1  0
 12 17  1  0
 12 13  2  0
 13 14  1  0
 13 52  1  0
 14 15  2  0
 14 53  1  0
 15 16  1  0
 16 17  2  0
 16 54  1  0
 17 55  1  0
 18 29  1  0
 18 19  1  1
 18 20  1  0
 19 56  1  0
 20 35  1  0
 20 21  1  0
 20 57  1  1
 21 22  1  0
 21 58  1  0
 21 59  1  0
 22 28  2  0
 22 23  1  0
 23 24  2  0
 23 60  1  0
 24 25  1  0
 24 61  1  0
 25 26  1  0
 25 27  2  0
 26 62  1  0
 27 37  1  0
 27 28  1  0
 28 29  1  0
 29 30  1  6
 29 36  1  0
 30 31  1  0
 30 63  1  0
 30 64  1  0
 31 35  1  0
 31 32  1  0
 31 73  1  6
 32 33  1  0
 32 65  1  0
 32 66  1  0
 33 34  1  0
 33 67  1  0
 33 68  1  0
 34 35  1  0
 34 69  1  0
 34 70  1  0
 35 71  1  6
 36 37  1  0
 36 38  1  0
 36 72  1  1
 38 39  2  0
M  CHG  1  31   1
M  END
>  <i_m_ct_stereo_status>  (205) 
1

>  <s_m_source_file>  (205) 
/var/tmp/pbs.5076255.sched01/tmp5gbx45fw/500pp51iot.sdf

>  <i_m_source_file_index>  (205) 
33

>  <i_lp_mmshare_version>  (205) 
48012

>  <i_f3d_flags>  (205) 
0

>  <s_epik_input>  (205) 
W2NIXTFbY0hdbltjSF1bY0hdYzFbQ0gyXVtDSDJdW05IXVtDQEBdMihbQ0BdMyhbQ0BdNDU2KVtPSF0pW0NAQF0oT1tDSDNdKShDKD1PKVtDSDJdW0NIMl0yKUMoPU8pW0NASF02T2M3YzRjKFtjSF1bY0hdYzdbT0hdKVtDSDJdW0NASF0zW0NASF04TihbQ0gyXTUpW0NIMl1bQ0gyXVtDSDJdOA==

>  <s_epik_cmdline>  (205) 
J2VwaWtfcHl0aG9uJywgJy1waHQnLCAnMi4wJywgJy1waCcsICc3LjAnLCAnLXRuJywgJzgnLCAnLW1hJywgJzIwMCcsICctaW1hZScsICc8aW5maWxlLm1hZT4nLCAnLW9tYWUnLCAnPG91dGZpbGUubWFlPic=

>  <r_lp_tautomer_probability>  (205) 
0.99995

>  <r_epik_Ionization_Penalty>  (205) 
0.201271

>  <r_epik_Ionization_Penalty_Charging>  (205) 
0.000713385

>  <r_epik_Ionization_Penalty_Neutral>  (205) 
0.200557

>  <r_epik_State_Penalty>  (205) 
0.165007

>  <r_epik_Charging_Adjusted_Penalty>  (205) 
0.16572

>  <i_epik_Tot_Q>  (205) 
1

>  <i_epik_Tot_abs_Q>  (205) 
1

>  <s_lp_Force_Field>  (205) 
OPLS3e

>  <r_lp_Energy>  (205) 
111.288

>  <b_lp_Chiralities_Consistent>  (205) 
1

>  <s_lp_Variant>  (205) 
47:0-1

>  <s_i_glide_gridfile>  (205) 
pfpi4k_grid

>  <i_i_glide_lignum>  (205) 
33

>  <i_i_glide_rotatable_bonds>  (205) 
7

>  <r_i_docking_score>  (205) 
-2.11531

>  <r_i_glide_ligand_efficiency>  (205) 
-0.0542386

>  <r_i_glide_ligand_efficiency_sa>  (205) 
-0.183935

>  <r_i_glide_ligand_efficiency_ln>  (205) 
-0.453581

>  <r_i_glide_gscore>  (205) 
-2.11531

>  <r_i_glide_lipo>  (205) 
-0.342089

>  <r_i_glide_hbond>  (205) 
0

>  <r_i_glide_metal>  (205) 
-0

>  <r_i_glide_rewards>  (205) 
0

>  <r_i_glide_evdw>  (205) 
-28.0483

>  <r_i_glide_ecoul>  (205) 
-3.9263

>  <r_i_glide_erotb>  (205) 
0.218145

>  <r_i_glide_esite>  (205) 
0

>  <r_i_glide_emodel>  (205) 
-32.6392

>  <r_i_glide_energy>  (205) 
-31.9746

>  <r_i_glide_einternal>  (205) 
7.21333

>  <r_i_glide_intrahb_reward>  (205) 
-0

>  <i_i_glide_confnum>  (205) 
1

>  <i_i_glide_posenum>  (205) 
6

>  <r_i_glide_eff_state_penalty>  (205) 
0

>  <ligand_id>  (205) 
47

>  <original_smiles>  (205) 
COC12C(=O)CCC1(NCCc1ccncc1)C1(O)C3Cc4ccc(O)c5c4C1(CN1CCCC31)C(O5)C2=O

>  <smiles>  (205) 
[H]Oc1c([H])c([H])c2c3c1OC1([H])C(=O)C4(OC([H])([H])[H])C(=O)C([H])([H])C([H])([H])C4(N([H])C([H])([H])C([H])([H])c4c([H])c([H])nc([H])c4[H])C4(O[H])C([H])(C2([H])[H])C2([H])C([H])([H])C([H])([H])C([H])([H])[N+]2([H])C([H])([H])C314

$$$$
47:0:2
     RDKit          3D

 73 80  0  0  1  0  0  0  0  0999 V2000
    1.9106   -5.2224    7.4767 C   0  0  0  0  0  0  0  0  0  0  0  0
    2.3547   -5.9595    6.3339 O   0  0  0  0  0  0  0  0  0  0  0  0
    3.7590   -6.0425    5.9990 C   0  0  1  0  0  0  0  0  0  0  0  0
    4.5877   -6.6307    7.1443 C   0  0  0  0  0  0  0  0  0  0  0  0
    4.5149   -6.2991    8.3298 O   0  0  0  0  0  0  0  0  0  0  0  0
    5.5425   -7.6913    6.6481 C   0  0  0  0  0  0  0  0  0  0  0  0
    5.3362   -7.7156    5.1217 C   0  0  0  0  0  0  0  0  0  0  0  0
    3.9343   -7.1218    4.8165 C   0  0  1  0  0  0  0  0  0  0  0  0
    2.9910   -8.2309    5.1131 N   0  0  0  0  0  0  0  0  0  0  0  0
    2.8782   -9.4124    4.2465 C   0  0  0  0  0  0  0  0  0  0  0  0
    1.5141  -10.1042    4.4276 C   0  0  0  0  0  0  0  0  0  0  0  0
    0.3501   -9.2056    4.0257 C   0  0  0  0  0  0  0  0  0  0  0  0
   -0.4087   -9.4539    2.8608 C   0  0  0  0  0  0  0  0  0  0  0  0
   -1.4727   -8.5800    2.5428 C   0  0  0  0  0  0  0  0  0  0  0  0
   -1.7845   -7.4826    3.2673 N   0  0  0  0  0  0  0  0  0  0  0  0
   -1.0653   -7.2557    4.3832 C   0  0  0  0  0  0  0  0  0  0  0  0
   -0.0086   -8.0840    4.8049 C   0  0  0  0  0  0  0  0  0  0  0  0
    3.6587   -6.4835    3.3506 C   0  0  2  0  0  0  0  0  0  0  0  0
    2.2364   -6.3734    3.3095 O   0  0  0  0  0  0  0  0  0  0  0  0
    4.0632   -7.1004    1.9419 C   0  0  1  0  0  0  0  0  0  0  0  0
    3.3245   -6.3330    0.7941 C   0  0  0  0  0  0  0  0  0  0  0  0
    3.3638   -4.8130    0.8223 C   0  0  0  0  0  0  0  0  0  0  0  0
    3.0230   -3.8778   -0.1609 C   0  0  0  0  0  0  0  0  0  0  0  0
    3.0581   -2.4926    0.1582 C   0  0  0  0  0  0  0  0  0  0  0  0
    3.3634   -2.0309    1.4791 C   0  0  0  0  0  0  0  0  0  0  0  0
    3.3333   -0.6947    1.7497 O   0  0  0  0  0  0  0  0  0  0  0  0
    3.6845   -2.9584    2.4892 C   0  0  0  0  0  0  0  0  0  0  0  0
    3.7095   -4.2825    2.0768 C   0  0  0  0  0  0  0  0  0  0  0  0
    4.2292   -5.0607    3.2255 C   0  0  2  0  0  0  0  0  0  0  0  0
    5.7912   -5.0585    3.0859 C   0  0  0  0  0  0  0  0  0  0  0  0
    6.2899   -5.8333    1.9228 N   0  0  1  0  0  0  0  0  0  0  0  0
    7.7162   -6.2049    1.9735 C   0  0  0  0  0  0  0  0  0  0  0  0
    7.7812   -7.6720    2.4196 C   0  0  0  0  0  0  0  0  0  0  0  0
    6.4331   -8.2795    2.0069 C   0  0  0  0  0  0  0  0  0  0  0  0
    5.5707   -7.0792    1.6079 C   0  0  1  0  0  0  0  0  0  0  0  0
    3.7157   -4.1421    4.3248 C   0  0  2  0  0  0  0  0  0  0  0  0
    3.9646   -2.8087    3.8420 O   0  0  0  0  0  0  0  0  0  0  0  0
    4.2640   -4.6089    5.6551 C   0  0  0  0  0  0  0  0  0  0  0  0
    4.9960   -3.9100    6.3601 O   0  0  0  0  0  0  0  0  0  0  0  0
    0.8464   -5.0143    7.3670 H   0  0  0  0  0  0  0  0  0  0  0  0
    2.4107   -4.2639    7.6126 H   0  0  0  0  0  0  0  0  0  0  0  0
    2.0265   -5.8133    8.3844 H   0  0  0  0  0  0  0  0  0  0  0  0
    6.5762   -7.4854    6.9352 H   0  0  0  0  0  0  0  0  0  0  0  0
    5.2486   -8.6467    7.0872 H   0  0  0  0  0  0  0  0  0  0  0  0
    6.1567   -7.1704    4.6886 H   0  0  0  0  0  0  0  0  0  0  0  0
    5.4363   -8.7390    4.7770 H   0  0  0  0  0  0  0  0  0  0  0  0
    3.1140   -8.5297    6.0797 H   0  0  0  0  0  0  0  0  0  0  0  0
    2.9005   -9.1568    3.1963 H   0  0  0  0  0  0  0  0  0  0  0  0
    3.7093  -10.1051    4.4316 H   0  0  0  0  0  0  0  0  0  0  0  0
    1.5101  -10.9820    3.7824 H   0  0  0  0  0  0  0  0  0  0  0  0
    1.3785  -10.4449    5.4486 H   0  0  0  0  0  0  0  0  0  0  0  0
   -0.2014  -10.2974    2.2157 H   0  0  0  0  0  0  0  0  0  0  0  0
   -2.0959   -8.7632    1.6823 H   0  0  0  0  0  0  0  0  0  0  0  0
   -1.3311   -6.3860    4.9660 H   0  0  0  0  0  0  0  0  0  0  0  0
    0.5297   -7.8301    5.7042 H   0  0  0  0  0  0  0  0  0  0  0  0
    1.8784   -7.2245    3.5187 H   0  0  0  0  0  0  0  0  0  0  0  0
    3.7664   -8.1270    1.7734 H   0  0  0  0  0  0  0  0  0  0  0  0
    3.6850   -6.6479   -0.1802 H   0  0  0  0  0  0  0  0  0  0  0  0
    2.2732   -6.6271    0.8110 H   0  0  0  0  0  0  0  0  0  0  0  0
    2.7368   -4.2065   -1.1543 H   0  0  0  0  0  0  0  0  0  0  0  0
    2.8235   -1.7847   -0.6160 H   0  0  0  0  0  0  0  0  0  0  0  0
    2.9580   -0.1962    1.0461 H   0  0  0  0  0  0  0  0  0  0  0  0
    6.1306   -4.0384    2.9192 H   0  0  0  0  0  0  0  0  0  0  0  0
    6.3005   -5.3249    4.0032 H   0  0  0  0  0  0  0  0  0  0  0  0
    8.0909   -6.1666    0.9521 H   0  0  0  0  0  0  0  0  0  0  0  0
    8.3489   -5.5512    2.5770 H   0  0  0  0  0  0  0  0  0  0  0  0
    8.6134   -8.2124    1.9662 H   0  0  0  0  0  0  0  0  0  0  0  0
    7.9123   -7.7387    3.4999 H   0  0  0  0  0  0  0  0  0  0  0  0
    6.5697   -8.9401    1.1478 H   0  0  0  0  0  0  0  0  0  0  0  0
    6.0039   -8.9114    2.7776 H   0  0  0  0  0  0  0  0  0  0  0  0
    5.6290   -7.1190    0.5251 H   0  0  0  0  0  0  0  0  0  0  0  0
    2.6271   -4.2147    4.4138 H   0  0  0  0  0  0  0  0  0  0  0  0
    6.1486   -5.2163    1.1287 H   0  0  0  0  0  0  0  0  0  0  0  0
  1  2  1  0
  1 40  1  0
  1 41  1  0
  1 42  1  0
  3  2  1  1
  3  8  1  0
  3 38  1  0
  3  4  1  0
  4  5  2  0
  4  6  1  0
  6  7  1  0
  6 43  1  0
  6 44  1  0
  7  8  1  0
  7 45  1  0
  7 46  1  0
  8  9  1  1
  8 18  1  0
  9 10  1  0
  9 47  1  0
 10 11  1  0
 10 48  1  0
 10 49  1  0
 11 12  1  0
 11 50  1  0
 11 51  1  0
 12 17  1  0
 12 13  2  0
 13 14  1  0
 13 52  1  0
 14 15  2  0
 14 53  1  0
 15 16  1  0
 16 17  2  0
 16 54  1  0
 17 55  1  0
 18 29  1  0
 18 19  1  6
 18 20  1  0
 19 56  1  0
 20 35  1  0
 20 21  1  0
 20 57  1  1
 21 22  1  0
 21 58  1  0
 21 59  1  0
 22 28  2  0
 22 23  1  0
 23 24  2  0
 23 60  1  0
 24 25  1  0
 24 61  1  0
 25 26  1  0
 25 27  2  0
 26 62  1  0
 27 37  1  0
 27 28  1  0
 28 29  1  0
 29 30  1  6
 29 36  1  0
 30 31  1  0
 30 63  1  0
 30 64  1  0
 31 35  1  0
 31 32  1  0
 31 73  1  6
 32 33  1  0
 32 65  1  0
 32 66  1  0
 33 34  1  0
 33 67  1  0
 33 68  1  0
 34 35  1  0
 34 69  1  0
 34 70  1  0
 35 71  1  6
 36 37  1  0
 36 38  1  0
 36 72  1  1
 38 39  2  0
M  CHG  1  31   1
M  END
>  <i_m_ct_stereo_status>  (206) 
1

>  <s_m_source_file>  (206) 
/var/tmp/pbs.5076255.sched01/tmp5gbx45fw/500pp51iot.sdf

>  <i_m_source_file_index>  (206) 
33

>  <i_lp_mmshare_version>  (206) 
48012

>  <i_f3d_flags>  (206) 
0

>  <s_epik_input>  (206) 
W2NIXTFbY0hdbltjSF1bY0hdYzFbQ0gyXVtDSDJdW05IXVtDQEBdMihbQ0BdMyhbQ0BdNDU2KVtPSF0pW0NAQF0oT1tDSDNdKShDKD1PKVtDSDJdW0NIMl0yKUMoPU8pW0NASF02T2M3YzRjKFtjSF1bY0hdYzdbT0hdKVtDSDJdW0NASF0zW0NASF04TihbQ0gyXTUpW0NIMl1bQ0gyXVtDSDJdOA==

>  <s_epik_cmdline>  (206) 
J2VwaWtfcHl0aG9uJywgJy1waHQnLCAnMi4wJywgJy1waCcsICc3LjAnLCAnLXRuJywgJzgnLCAnLW1hJywgJzIwMCcsICctaW1hZScsICc8aW5maWxlLm1hZT4nLCAnLW9tYWUnLCAnPG91dGZpbGUubWFlPic=

>  <r_lp_tautomer_probability>  (206) 
0.99995

>  <r_epik_Ionization_Penalty>  (206) 
0.201271

>  <r_epik_Ionization_Penalty_Charging>  (206) 
0.000713385

>  <r_epik_Ionization_Penalty_Neutral>  (206) 
0.200557

>  <r_epik_State_Penalty>  (206) 
0.165007

>  <r_epik_Charging_Adjusted_Penalty>  (206) 
0.16572

>  <i_epik_Tot_Q>  (206) 
1

>  <i_epik_Tot_abs_Q>  (206) 
1

>  <s_lp_Force_Field>  (206) 
OPLS3e

>  <r_lp_Energy>  (206) 
111.288

>  <b_lp_Chiralities_Consistent>  (206) 
1

>  <s_lp_Variant>  (206) 
47:0-1

>  <s_i_glide_gridfile>  (206) 
pfpi4k_grid

>  <i_i_glide_lignum>  (206) 
33

>  <i_i_glide_rotatable_bonds>  (206) 
7

>  <r_i_docking_score>  (206) 
-2.10724

>  <r_i_glide_ligand_efficiency>  (206) 
-0.0540317

>  <r_i_glide_ligand_efficiency_sa>  (206) 
-0.183233

>  <r_i_glide_ligand_efficiency_ln>  (206) 
-0.451852

>  <r_i_glide_gscore>  (206) 
-2.10724

>  <r_i_glide_lipo>  (206) 
-0.286798

>  <r_i_glide_hbond>  (206) 
0

>  <r_i_glide_metal>  (206) 
-0

>  <r_i_glide_rewards>  (206) 
0

>  <r_i_glide_evdw>  (206) 
-27.5947

>  <r_i_glide_ecoul>  (206) 
-4.39234

>  <r_i_glide_erotb>  (206) 
0.218145

>  <r_i_glide_esite>  (206) 
0

>  <r_i_glide_emodel>  (206) 
-34.2428

>  <r_i_glide_energy>  (206) 
-31.987

>  <r_i_glide_einternal>  (206) 
3.72397

>  <r_i_glide_intrahb_reward>  (206) 
-0

>  <i_i_glide_confnum>  (206) 
1

>  <i_i_glide_posenum>  (206) 
2

>  <r_i_glide_eff_state_penalty>  (206) 
0

>  <ligand_id>  (206) 
47

>  <original_smiles>  (206) 
COC12C(=O)CCC1(NCCc1ccncc1)C1(O)C3Cc4ccc(O)c5c4C1(CN1CCCC31)C(O5)C2=O

>  <smiles>  (206) 
[H]Oc1c([H])c([H])c2c3c1OC1([H])C(=O)C4(OC([H])([H])[H])C(=O)C([H])([H])C([H])([H])C4(N([H])C([H])([H])C([H])([H])c4c([H])c([H])nc([H])c4[H])C4(O[H])C([H])(C2([H])[H])C2([H])C([H])([H])C([H])([H])C([H])([H])[N+]2([H])C([H])([H])C314

$$$$
47:1:0
     RDKit          3D

 74 81  0  0  1  0  0  0  0  0999 V2000
    5.4899   -3.0880   -1.8658 C   0  0  0  0  0  0  0  0  0  0  0  0
    4.6444   -3.0216   -0.7090 O   0  0  0  0  0  0  0  0  0  0  0  0
    5.2103   -3.0184    0.6181 C   0  0  1  0  0  0  0  0  0  0  0  0
    6.1154   -1.8086    0.8651 C   0  0  0  0  0  0  0  0  0  0  0  0
    6.9574   -1.3855    0.0787 O   0  0  0  0  0  0  0  0  0  0  0  0
    5.8181   -1.1714    2.2103 C   0  0  0  0  0  0  0  0  0  0  0  0
    4.7087   -2.0396    2.8100 C   0  0  0  0  0  0  0  0  0  0  0  0
    4.0056   -2.8005    1.6499 C   0  0  1  0  0  0  0  0  0  0  0  0
    3.0418   -1.8102    1.0240 N   0  0  0  0  0  0  0  0  0  0  0  0
    1.9016   -1.2922    1.8323 C   0  0  0  0  0  0  0  0  0  0  0  0
    1.8812    0.2430    1.8751 C   0  0  0  0  0  0  0  0  0  0  0  0
    0.7754    0.7992    2.7650 C   0  0  0  0  0  0  0  0  0  0  0  0
   -0.4100    1.3221    2.2163 C   0  0  0  0  0  0  0  0  0  0  0  0
   -1.3797    1.8645    3.0812 C   0  0  0  0  0  0  0  0  0  0  0  0
   -1.2389    1.8926    4.4235 N   0  0  0  0  0  0  0  0  0  0  0  0
   -0.0982    1.3972    4.9440 C   0  0  0  0  0  0  0  0  0  0  0  0
    0.9328    0.8365    4.1648 C   0  0  0  0  0  0  0  0  0  0  0  0
    3.2647   -4.1958    1.9820 C   0  0  2  0  0  0  0  0  0  0  0  0
    2.4860   -4.3904    0.7978 O   0  0  0  0  0  0  0  0  0  0  0  0
    2.2731   -4.4617    3.1855 C   0  0  1  0  0  0  0  0  0  0  0  0
    1.4864   -5.8099    2.9629 C   0  0  0  0  0  0  0  0  0  0  0  0
    2.3197   -7.0284    2.5460 C   0  0  0  0  0  0  0  0  0  0  0  0
    1.9648   -8.3954    2.4852 C   0  0  0  0  0  0  0  0  0  0  0  0
    2.9002   -9.3296    1.9513 C   0  0  0  0  0  0  0  0  0  0  0  0
    4.1583   -8.9285    1.4276 C   0  0  0  0  0  0  0  0  0  0  0  0
    5.0146   -9.8450    0.9077 O   0  0  0  0  0  0  0  0  0  0  0  0
    4.5131   -7.5613    1.4523 C   0  0  0  0  0  0  0  0  0  0  0  0
    3.5900   -6.7219    2.0532 C   0  0  0  0  0  0  0  0  0  0  0  0
    4.2380   -5.3871    2.1305 C   0  0  2  0  0  0  0  0  0  0  0  0
    5.0435   -5.3617    3.4783 C   0  0  0  0  0  0  0  0  0  0  0  0
    4.1699   -5.3751    4.6831 N   0  0  1  0  0  0  0  0  0  0  0  0
    4.8203   -4.9663    5.9538 C   0  0  0  0  0  0  0  0  0  0  0  0
    4.4177   -3.5099    6.2077 C   0  0  0  0  0  0  0  0  0  0  0  0
    3.0857   -3.3225    5.4702 C   0  0  0  0  0  0  0  0  0  0  0  0
    2.9173   -4.5752    4.6026 C   0  0  1  0  0  0  0  0  0  0  0  0
    5.1144   -5.5374    0.8985 C   0  0  2  0  0  0  0  0  0  0  0  0
    5.6233   -6.8794    0.9703 O   0  0  0  0  0  0  0  0  0  0  0  0
    6.0304   -4.3381    0.8054 C   0  0  0  0  0  0  0  0  0  0  0  0
    7.2578   -4.4244    0.8566 O   0  0  0  0  0  0  0  0  0  0  0  0
    4.8875   -3.3983   -2.7181 H   0  0  0  0  0  0  0  0  0  0  0  0
    6.3112   -3.7991   -1.7869 H   0  0  0  0  0  0  0  0  0  0  0  0
    5.9012   -2.1087   -2.1005 H   0  0  0  0  0  0  0  0  0  0  0  0
    6.6951   -1.1187    2.8512 H   0  0  0  0  0  0  0  0  0  0  0  0
    5.4730   -0.1508    2.0562 H   0  0  0  0  0  0  0  0  0  0  0  0
    5.1646   -2.6900    3.5388 H   0  0  0  0  0  0  0  0  0  0  0  0
    4.0402   -1.3903    3.3737 H   0  0  0  0  0  0  0  0  0  0  0  0
    3.5671   -1.0044    0.7272 H   0  0  0  0  0  0  0  0  0  0  0  0
    0.9882   -1.6546    1.3782 H   0  0  0  0  0  0  0  0  0  0  0  0
    1.9056   -1.6658    2.8492 H   0  0  0  0  0  0  0  0  0  0  0  0
    2.8360    0.6243    2.2422 H   0  0  0  0  0  0  0  0  0  0  0  0
    1.7480    0.6467    0.8727 H   0  0  0  0  0  0  0  0  0  0  0  0
   -0.5755    1.3458    1.1493 H   0  0  0  0  0  0  0  0  0  0  0  0
   -2.2982    2.2767    2.6913 H   0  0  0  0  0  0  0  0  0  0  0  0
   -0.0116    1.4436    6.0186 H   0  0  0  0  0  0  0  0  0  0  0  0
    1.8316    0.4734    4.6390 H   0  0  0  0  0  0  0  0  0  0  0  0
    3.0501   -4.4808    0.0384 H   0  0  0  0  0  0  0  0  0  0  0  0
    1.5027   -3.6996    3.2368 H   0  0  0  0  0  0  0  0  0  0  0  0
    0.8967   -6.0776    3.8343 H   0  0  0  0  0  0  0  0  0  0  0  0
    0.7483   -5.6584    2.1795 H   0  0  0  0  0  0  0  0  0  0  0  0
    0.9972   -8.7282    2.8402 H   0  0  0  0  0  0  0  0  0  0  0  0
    2.6314  -10.3749    1.9431 H   0  0  0  0  0  0  0  0  0  0  0  0
    4.6364  -10.7382    0.7749 H   0  0  0  0  0  0  0  0  0  0  0  0
    5.6576   -6.2558    3.5527 H   0  0  0  0  0  0  0  0  0  0  0  0
    5.7834   -4.5751    3.5284 H   0  0  0  0  0  0  0  0  0  0  0  0
    4.3838   -5.5744    6.7401 H   0  0  0  0  0  0  0  0  0  0  0  0
    5.8985   -5.1272    5.9831 H   0  0  0  0  0  0  0  0  0  0  0  0
    4.3381   -3.2803    7.2759 H   0  0  0  0  0  0  0  0  0  0  0  0
    5.1682   -2.8346    5.7984 H   0  0  0  0  0  0  0  0  0  0  0  0
    2.2663   -3.2526    6.1887 H   0  0  0  0  0  0  0  0  0  0  0  0
    3.0526   -2.3937    4.9140 H   0  0  0  0  0  0  0  0  0  0  0  0
    2.2436   -5.1704    5.2117 H   0  0  0  0  0  0  0  0  0  0  0  0
    4.5196   -5.5175   -0.0152 H   0  0  0  0  0  0  0  0  0  0  0  0
    3.8934   -6.3443    4.7837 H   0  0  0  0  0  0  0  0  0  0  0  0
    2.6503   -2.2306    0.1899 H   0  0  0  0  0  0  0  0  0  0  0  0
  1  2  1  0
  1 40  1  0
  1 41  1  0
  1 42  1  0
  3  2  1  6
  3  8  1  0
  3 38  1  0
  3  4  1  0
  4  5  2  0
  4  6  1  0
  6  7  1  0
  6 43  1  0
  6 44  1  0
  7  8  1  0
  7 45  1  0
  7 46  1  0
  8  9  1  6
  8 18  1  0
  9 10  1  0
  9 47  1  0
  9 74  1  0
 10 11  1  0
 10 48  1  0
 10 49  1  0
 11 12  1  0
 11 50  1  0
 11 51  1  0
 12 17  1  0
 12 13  2  0
 13 14  1  0
 13 52  1  0
 14 15  2  0
 14 53  1  0
 15 16  1  0
 16 17  2  0
 16 54  1  0
 17 55  1  0
 18 29  1  0
 18 19  1  6
 18 20  1  0
 19 56  1  0
 20 35  1  0
 20 21  1  0
 20 57  1  1
 21 22  1  0
 21 58  1  0
 21 59  1  0
 22 28  2  0
 22 23  1  0
 23 24  2  0
 23 60  1  0
 24 25  1  0
 24 61  1  0
 25 26  1  0
 25 27  2  0
 26 62  1  0
 27 37  1  0
 27 28  1  0
 28 29  1  0
 29 30  1  1
 29 36  1  0
 30 31  1  0
 30 63  1  0
 30 64  1  0
 31 35  1  0
 31 32  1  0
 31 73  1  1
 32 33  1  0
 32 65  1  0
 32 66  1  0
 33 34  1  0
 33 67  1  0
 33 68  1  0
 34 35  1  0
 34 69  1  0
 34 70  1  0
 35 71  1  1
 36 37  1  0
 36 38  1  0
 36 72  1  6
 38 39  2  0
M  CHG  2   9   1  31   1
M  END
>  <i_m_ct_stereo_status>  (207) 
1

>  <s_m_source_file>  (207) 
/var/tmp/pbs.5076255.sched01/tmp5gbx45fw/500pp51iot.sdf

>  <i_m_source_file_index>  (207) 
34

>  <i_lp_mmshare_version>  (207) 
48012

>  <i_f3d_flags>  (207) 
0

>  <s_epik_input>  (207) 
W2NIXTFbY0hdbltjSF1bY0hdYzFbQ0gyXVtDSDJdW05IXVtDQEBdMihbQ0BdMyhbQ0BdNDU2KVtPSF0pW0NAQF0oT1tDSDNdKShDKD1PKVtDSDJdW0NIMl0yKUMoPU8pW0NASF02T2M3YzRjKFtjSF1bY0hdYzdbT0hdKVtDSDJdW0NASF0zW0NASF04TihbQ0gyXTUpW0NIMl1bQ0gyXVtDSDJdOA==

>  <s_epik_cmdline>  (207) 
J2VwaWtfcHl0aG9uJywgJy1waHQnLCAnMi4wJywgJy1waCcsICc3LjAnLCAnLXRuJywgJzgnLCAnLW1hJywgJzIwMCcsICctaW1hZScsICc8aW5maWxlLm1hZT4nLCAnLW9tYWUnLCAnPG91dGZpbGUubWFlPic=

>  <r_lp_tautomer_probability>  (207) 
0.99995

>  <r_epik_Ionization_Penalty>  (207) 
1.17001

>  <r_epik_Ionization_Penalty_Charging>  (207) 
1.14212

>  <r_epik_Ionization_Penalty_Neutral>  (207) 
0.0278882

>  <r_epik_State_Penalty>  (207) 
1.282

>  <r_epik_Charging_Adjusted_Penalty>  (207) 
2.42412

>  <i_epik_Tot_Q>  (207) 
2

>  <i_epik_Tot_abs_Q>  (207) 
2

>  <s_lp_Force_Field>  (207) 
OPLS3e

>  <r_lp_Energy>  (207) 
117.449

>  <b_lp_Chiralities_Consistent>  (207) 
1

>  <s_lp_Variant>  (207) 
47:0-2

>  <s_i_glide_gridfile>  (207) 
pfpi4k_grid

>  <i_i_glide_lignum>  (207) 
34

>  <i_i_glide_rotatable_bonds>  (207) 
7

>  <r_i_docking_score>  (207) 
-4.33678

>  <r_i_glide_ligand_efficiency>  (207) 
-0.111199

>  <r_i_glide_ligand_efficiency_sa>  (207) 
-0.377101

>  <r_i_glide_ligand_efficiency_ln>  (207) 
-0.929928

>  <r_i_glide_gscore>  (207) 
-4.33678

>  <r_i_glide_lipo>  (207) 
-0.481272

>  <r_i_glide_hbond>  (207) 
-0.0867589

>  <r_i_glide_metal>  (207) 
-0

>  <r_i_glide_rewards>  (207) 
-0.296118

>  <r_i_glide_evdw>  (207) 
-29.7477

>  <r_i_glide_ecoul>  (207) 
-14.3785

>  <r_i_glide_erotb>  (207) 
0.217387

>  <r_i_glide_esite>  (207) 
-0.0458539

>  <r_i_glide_emodel>  (207) 
-56.365

>  <r_i_glide_energy>  (207) 
-44.1262

>  <r_i_glide_einternal>  (207) 
3.36101

>  <r_i_glide_intrahb_reward>  (207) 
-0

>  <i_i_glide_confnum>  (207) 
3

>  <i_i_glide_posenum>  (207) 
24

>  <r_i_glide_eff_state_penalty>  (207) 
0

>  <ligand_id>  (207) 
47

>  <original_smiles>  (207) 
COC12C(=O)CCC1(NCCc1ccncc1)C1(O)C3Cc4ccc(O)c5c4C1(CN1CCCC31)C(O5)C2=O

>  <smiles>  (207) 
[H]Oc1c([H])c([H])c2c3c1OC1([H])C(=O)C4(OC([H])([H])[H])C(=O)C([H])([H])C([H])([H])C4([N+]([H])([H])C([H])([H])C([H])([H])c4c([H])c([H])nc([H])c4[H])C4(O[H])C([H])(C2([H])[H])C2([H])C([H])([H])C([H])([H])C([H])([H])[N+]2([H])C([H])([H])C314

$$$$
47:1:1
     RDKit          3D

 74 81  0  0  1  0  0  0  0  0999 V2000
    0.2042   -5.7957    4.9047 C   0  0  0  0  0  0  0  0  0  0  0  0
    0.9963   -4.7787    4.2768 O   0  0  0  0  0  0  0  0  0  0  0  0
    2.0419   -4.1044    5.0054 C   0  0  1  0  0  0  0  0  0  0  0  0
    3.0990   -5.0736    5.5478 C   0  0  0  0  0  0  0  0  0  0  0  0
    2.8707   -6.1434    6.1087 O   0  0  0  0  0  0  0  0  0  0  0  0
    4.4972   -4.5612    5.2884 C   0  0  0  0  0  0  0  0  0  0  0  0
    4.2905   -3.2235    4.5611 C   0  0  0  0  0  0  0  0  0  0  0  0
    2.8628   -3.2043    3.9513 C   0  0  1  0  0  0  0  0  0  0  0  0
    2.9504   -4.0025    2.6705 N   0  0  0  0  0  0  0  0  0  0  0  0
    3.4861   -3.3765    1.4278 C   0  0  0  0  0  0  0  0  0  0  0  0
    3.3777   -4.3191    0.2171 C   0  0  0  0  0  0  0  0  0  0  0  0
    3.8084   -3.6490   -1.0808 C   0  0  0  0  0  0  0  0  0  0  0  0
    2.8614   -3.0505   -1.9366 C   0  0  0  0  0  0  0  0  0  0  0  0
    3.3022   -2.4787   -3.1445 C   0  0  0  0  0  0  0  0  0  0  0  0
    4.5946   -2.4738   -3.5255 N   0  0  0  0  0  0  0  0  0  0  0  0
    5.4957   -3.0576   -2.7124 C   0  0  0  0  0  0  0  0  0  0  0  0
    5.1597   -3.6457   -1.4783 C   0  0  0  0  0  0  0  0  0  0  0  0
    2.1554   -1.7692    3.7186 C   0  0  2  0  0  0  0  0  0  0  0  0
    1.0634   -2.1424    2.8839 O   0  0  0  0  0  0  0  0  0  0  0  0
    2.8058   -0.4970    3.0363 C   0  0  1  0  0  0  0  0  0  0  0  0
    1.6877    0.5435    2.6523 C   0  0  0  0  0  0  0  0  0  0  0  0
    0.6471    0.8640    3.7363 C   0  0  0  0  0  0  0  0  0  0  0  0
   -0.3119    1.8931    3.8001 C   0  0  0  0  0  0  0  0  0  0  0  0
   -1.2416    1.9189    4.8798 C   0  0  0  0  0  0  0  0  0  0  0  0
   -1.2663    0.8981    5.8694 C   0  0  0  0  0  0  0  0  0  0  0  0
   -2.1858    0.9386    6.8787 O   0  0  0  0  0  0  0  0  0  0  0  0
   -0.3368   -0.1594    5.8086 C   0  0  0  0  0  0  0  0  0  0  0  0
    0.5881   -0.0704    4.7751 C   0  0  0  0  0  0  0  0  0  0  0  0
    1.5676   -1.1604    5.0097 C   0  0  2  0  0  0  0  0  0  0  0  0
    2.6732   -0.5720    5.9608 C   0  0  0  0  0  0  0  0  0  0  0  0
    3.5026    0.4833    5.3147 N   0  0  1  0  0  0  0  0  0  0  0  0
    4.7825    0.7970    5.9918 C   0  0  0  0  0  0  0  0  0  0  0  0
    5.8851    0.0603    5.2209 C   0  0  0  0  0  0  0  0  0  0  0  0
    5.3316   -0.1213    3.7999 C   0  0  0  0  0  0  0  0  0  0  0  0
    3.8518    0.2752    3.8888 C   0  0  1  0  0  0  0  0  0  0  0  0
    0.6061   -2.1204    5.6958 C   0  0  2  0  0  0  0  0  0  0  0  0
   -0.1747   -1.2958    6.5834 O   0  0  0  0  0  0  0  0  0  0  0  0
    1.3860   -3.3178    6.1897 C   0  0  0  0  0  0  0  0  0  0  0  0
    1.4765   -3.6041    7.3845 O   0  0  0  0  0  0  0  0  0  0  0  0
   -0.7126   -5.9319    4.3315 H   0  0  0  0  0  0  0  0  0  0  0  0
   -0.0893   -5.5692    5.9299 H   0  0  0  0  0  0  0  0  0  0  0  0
    0.7298   -6.7489    4.8926 H   0  0  0  0  0  0  0  0  0  0  0  0
    5.0653   -4.4567    6.2137 H   0  0  0  0  0  0  0  0  0  0  0  0
    5.0149   -5.2749    4.6486 H   0  0  0  0  0  0  0  0  0  0  0  0
    4.4615   -2.4438    5.2869 H   0  0  0  0  0  0  0  0  0  0  0  0
    5.0647   -3.1179    3.8041 H   0  0  0  0  0  0  0  0  0  0  0  0
    3.4938   -4.8331    2.8640 H   0  0  0  0  0  0  0  0  0  0  0  0
    2.8951   -2.5089    1.1499 H   0  0  0  0  0  0  0  0  0  0  0  0
    4.5193   -3.0583    1.5769 H   0  0  0  0  0  0  0  0  0  0  0  0
    3.9769   -5.2179    0.3670 H   0  0  0  0  0  0  0  0  0  0  0  0
    2.3423   -4.6447    0.1010 H   0  0  0  0  0  0  0  0  0  0  0  0
    1.8097   -3.0249   -1.6967 H   0  0  0  0  0  0  0  0  0  0  0  0
    2.6055   -2.0131   -3.8242 H   0  0  0  0  0  0  0  0  0  0  0  0
    6.5165   -3.0588   -3.0595 H   0  0  0  0  0  0  0  0  0  0  0  0
    5.9211   -4.1243   -0.8811 H   0  0  0  0  0  0  0  0  0  0  0  0
    0.6140   -1.3565    2.5985 H   0  0  0  0  0  0  0  0  0  0  0  0
    3.3214   -0.7366    2.1133 H   0  0  0  0  0  0  0  0  0  0  0  0
    2.1193    1.4780    2.2972 H   0  0  0  0  0  0  0  0  0  0  0  0
    1.1392    0.1710    1.7857 H   0  0  0  0  0  0  0  0  0  0  0  0
   -0.3376    2.6559    3.0312 H   0  0  0  0  0  0  0  0  0  0  0  0
   -1.9480    2.7315    4.9256 H   0  0  0  0  0  0  0  0  0  0  0  0
   -2.6894    1.7372    6.8684 H   0  0  0  0  0  0  0  0  0  0  0  0
    2.1987   -0.0919    6.8165 H   0  0  0  0  0  0  0  0  0  0  0  0
    3.2839   -1.3335    6.4302 H   0  0  0  0  0  0  0  0  0  0  0  0
    4.9473    1.8670    5.8677 H   0  0  0  0  0  0  0  0  0  0  0  0
    4.7918    0.5846    7.0618 H   0  0  0  0  0  0  0  0  0  0  0  0
    6.8328    0.6060    5.2263 H   0  0  0  0  0  0  0  0  0  0  0  0
    6.0746   -0.9127    5.6759 H   0  0  0  0  0  0  0  0  0  0  0  0
    5.8534    0.5454    3.1121 H   0  0  0  0  0  0  0  0  0  0  0  0
    5.5043   -1.1199    3.4135 H   0  0  0  0  0  0  0  0  0  0  0  0
    3.8703    1.2950    3.5076 H   0  0  0  0  0  0  0  0  0  0  0  0
   -0.1168   -2.5286    4.9874 H   0  0  0  0  0  0  0  0  0  0  0  0
    2.9251    1.3164    5.3468 H   0  0  0  0  0  0  0  0  0  0  0  0
    1.9970   -4.2818    2.4807 H   0  0  0  0  0  0  0  0  0  0  0  0
  1  2  1  0
  1 40  1  0
  1 41  1  0
  1 42  1  0
  3  2  1  6
  3  8  1  0
  3 38  1  0
  3  4  1  0
  4  5  2  0
  4  6  1  0
  6  7  1  0
  6 43  1  0
  6 44  1  0
  7  8  1  0
  7 45  1  0
  7 46  1  0
  8  9  1  6
  8 18  1  0
  9 10  1  0
  9 47  1  0
  9 74  1  0
 10 11  1  0
 10 48  1  0
 10 49  1  0
 11 12  1  0
 11 50  1  0
 11 51  1  0
 12 17  1  0
 12 13  2  0
 13 14  1  0
 13 52  1  0
 14 15  2  0
 14 53  1  0
 15 16  1  0
 16 17  2  0
 16 54  1  0
 17 55  1  0
 18 29  1  0
 18 19  1  6
 18 20  1  0
 19 56  1  0
 20 35  1  0
 20 21  1  0
 20 57  1  6
 21 22  1  0
 21 58  1  0
 21 59  1  0
 22 28  2  0
 22 23  1  0
 23 24  2  0
 23 60  1  0
 24 25  1  0
 24 61  1  0
 25 26  1  0
 25 27  2  0
 26 62  1  0
 27 37  1  0
 27 28  1  0
 28 29  1  0
 29 30  1  1
 29 36  1  0
 30 31  1  0
 30 63  1  0
 30 64  1  0
 31 35  1  0
 31 32  1  0
 31 73  1  6
 32 33  1  0
 32 65  1  0
 32 66  1  0
 33 34  1  0
 33 67  1  0
 33 68  1  0
 34 35  1  0
 34 69  1  0
 34 70  1  0
 35 71  1  6
 36 37  1  0
 36 38  1  0
 36 72  1  6
 38 39  2  0
M  CHG  2   9   1  31   1
M  END
>  <i_m_ct_stereo_status>  (208) 
1

>  <s_m_source_file>  (208) 
/var/tmp/pbs.5076255.sched01/tmp5gbx45fw/500pp51iot.sdf

>  <i_m_source_file_index>  (208) 
34

>  <i_lp_mmshare_version>  (208) 
48012

>  <i_f3d_flags>  (208) 
0

>  <s_epik_input>  (208) 
W2NIXTFbY0hdbltjSF1bY0hdYzFbQ0gyXVtDSDJdW05IXVtDQEBdMihbQ0BdMyhbQ0BdNDU2KVtPSF0pW0NAQF0oT1tDSDNdKShDKD1PKVtDSDJdW0NIMl0yKUMoPU8pW0NASF02T2M3YzRjKFtjSF1bY0hdYzdbT0hdKVtDSDJdW0NASF0zW0NASF04TihbQ0gyXTUpW0NIMl1bQ0gyXVtDSDJdOA==

>  <s_epik_cmdline>  (208) 
J2VwaWtfcHl0aG9uJywgJy1waHQnLCAnMi4wJywgJy1waCcsICc3LjAnLCAnLXRuJywgJzgnLCAnLW1hJywgJzIwMCcsICctaW1hZScsICc8aW5maWxlLm1hZT4nLCAnLW9tYWUnLCAnPG91dGZpbGUubWFlPic=

>  <r_lp_tautomer_probability>  (208) 
0.99995

>  <r_epik_Ionization_Penalty>  (208) 
1.17001

>  <r_epik_Ionization_Penalty_Charging>  (208) 
1.14212

>  <r_epik_Ionization_Penalty_Neutral>  (208) 
0.0278882

>  <r_epik_State_Penalty>  (208) 
1.282

>  <r_epik_Charging_Adjusted_Penalty>  (208) 
2.42412

>  <i_epik_Tot_Q>  (208) 
2

>  <i_epik_Tot_abs_Q>  (208) 
2

>  <s_lp_Force_Field>  (208) 
OPLS3e

>  <r_lp_Energy>  (208) 
117.449

>  <b_lp_Chiralities_Consistent>  (208) 
1

>  <s_lp_Variant>  (208) 
47:0-2

>  <s_i_glide_gridfile>  (208) 
pfpi4k_grid

>  <i_i_glide_lignum>  (208) 
34

>  <i_i_glide_rotatable_bonds>  (208) 
7

>  <r_i_docking_score>  (208) 
-2.97334

>  <r_i_glide_ligand_efficiency>  (208) 
-0.0762396

>  <r_i_glide_ligand_efficiency_sa>  (208) 
-0.258545

>  <r_i_glide_ligand_efficiency_ln>  (208) 
-0.637569

>  <r_i_glide_gscore>  (208) 
-2.97334

>  <r_i_glide_lipo>  (208) 
-0.524999

>  <r_i_glide_hbond>  (208) 
0

>  <r_i_glide_metal>  (208) 
-0

>  <r_i_glide_rewards>  (208) 
0

>  <r_i_glide_evdw>  (208) 
-30.2436

>  <r_i_glide_ecoul>  (208) 
-7.68338

>  <r_i_glide_erotb>  (208) 
0.217387

>  <r_i_glide_esite>  (208) 
-0.00104685

>  <r_i_glide_emodel>  (208) 
-46.8756

>  <r_i_glide_energy>  (208) 
-37.927

>  <r_i_glide_einternal>  (208) 
0.631319

>  <r_i_glide_intrahb_reward>  (208) 
-0

>  <i_i_glide_confnum>  (208) 
3

>  <i_i_glide_posenum>  (208) 
14

>  <r_i_glide_eff_state_penalty>  (208) 
0

>  <ligand_id>  (208) 
47

>  <original_smiles>  (208) 
COC12C(=O)CCC1(NCCc1ccncc1)C1(O)C3Cc4ccc(O)c5c4C1(CN1CCCC31)C(O5)C2=O

>  <smiles>  (208) 
[H]Oc1c([H])c([H])c2c3c1OC1([H])C(=O)C4(OC([H])([H])[H])C(=O)C([H])([H])C([H])([H])C4([N+]([H])([H])C([H])([H])C([H])([H])c4c([H])c([H])nc([H])c4[H])C4(O[H])C([H])(C2([H])[H])C2([H])C([H])([H])C([H])([H])C([H])([H])[N+]2([H])C([H])([H])C314

$$$$
47:1:2
     RDKit          3D

 74 81  0  0  1  0  0  0  0  0999 V2000
    0.1791   -5.7904    4.8865 C   0  0  0  0  0  0  0  0  0  0  0  0
    0.9834   -4.7799    4.2639 O   0  0  0  0  0  0  0  0  0  0  0  0
    2.0246   -4.1102    5.0029 C   0  0  1  0  0  0  0  0  0  0  0  0
    3.0761   -5.0834    5.5463 C   0  0  0  0  0  0  0  0  0  0  0  0
    2.8407   -6.1567    6.0993 O   0  0  0  0  0  0  0  0  0  0  0  0
    4.4775   -4.5748    5.2963 C   0  0  0  0  0  0  0  0  0  0  0  0
    4.2786   -3.2328    4.5732 C   0  0  0  0  0  0  0  0  0  0  0  0
    2.8536   -3.2084    3.9559 C   0  0  1  0  0  0  0  0  0  0  0  0
    2.9479   -4.0022    2.6737 N   0  0  0  0  0  0  0  0  0  0  0  0
    3.4978   -3.3723    1.4377 C   0  0  0  0  0  0  0  0  0  0  0  0
    3.4172   -4.3189    0.2278 C   0  0  0  0  0  0  0  0  0  0  0  0
    3.8410   -3.6422   -1.0672 C   0  0  0  0  0  0  0  0  0  0  0  0
    2.8890   -3.0235   -1.9069 C   0  0  0  0  0  0  0  0  0  0  0  0
    3.3232   -2.4462   -3.1159 C   0  0  0  0  0  0  0  0  0  0  0  0
    4.6106   -2.4547   -3.5168 N   0  0  0  0  0  0  0  0  0  0  0  0
    5.5126   -3.0556   -2.7147 C   0  0  0  0  0  0  0  0  0  0  0  0
    5.1863   -3.6472   -1.4808 C   0  0  0  0  0  0  0  0  0  0  0  0
    2.1478   -1.7717    3.7276 C   0  0  2  0  0  0  0  0  0  0  0  0
    1.0390   -2.1369    2.9107 O   0  0  0  0  0  0  0  0  0  0  0  0
    2.8055   -0.4965    3.0557 C   0  0  1  0  0  0  0  0  0  0  0  0
    1.6924    0.5487    2.6745 C   0  0  0  0  0  0  0  0  0  0  0  0
    0.6525    0.8723    3.7574 C   0  0  0  0  0  0  0  0  0  0  0  0
   -0.3044    1.9025    3.8170 C   0  0  0  0  0  0  0  0  0  0  0  0
   -1.2411    1.9263    4.8903 C   0  0  0  0  0  0  0  0  0  0  0  0
   -1.2752    0.9007    5.8769 C   0  0  0  0  0  0  0  0  0  0  0  0
   -2.1984    0.9453    6.8807 O   0  0  0  0  0  0  0  0  0  0  0  0
   -0.3471   -0.1610    5.8158 C   0  0  0  0  0  0  0  0  0  0  0  0
    0.5853   -0.0681    4.7884 C   0  0  0  0  0  0  0  0  0  0  0  0
    1.5587   -1.1651    5.0201 C   0  0  2  0  0  0  0  0  0  0  0  0
    2.6610   -0.5850    5.9788 C   0  0  0  0  0  0  0  0  0  0  0  0
    3.4949    0.4726    5.3425 N   0  0  1  0  0  0  0  0  0  0  0  0
    4.7719    0.7783    6.0287 C   0  0  0  0  0  0  0  0  0  0  0  0
    5.8768    0.0437    5.2586 C   0  0  0  0  0  0  0  0  0  0  0  0
    5.3302   -0.1281    3.8338 C   0  0  0  0  0  0  0  0  0  0  0  0
    3.8503    0.2698    3.9177 C   0  0  1  0  0  0  0  0  0  0  0  0
    0.5902   -2.1243    5.6967 C   0  0  2  0  0  0  0  0  0  0  0  0
   -0.1917   -1.3020    6.5849 O   0  0  0  0  0  0  0  0  0  0  0  0
    1.3639   -3.3266    6.1866 C   0  0  0  0  0  0  0  0  0  0  0  0
    1.4447   -3.6211    7.3804 O   0  0  0  0  0  0  0  0  0  0  0  0
   -0.7346   -5.9215    4.3070 H   0  0  0  0  0  0  0  0  0  0  0  0
   -0.1216   -5.5617    5.9092 H   0  0  0  0  0  0  0  0  0  0  0  0
    0.6981   -6.7473    4.8798 H   0  0  0  0  0  0  0  0  0  0  0  0
    5.0410   -4.4764    6.2253 H   0  0  0  0  0  0  0  0  0  0  0  0
    4.9953   -5.2875    4.6555 H   0  0  0  0  0  0  0  0  0  0  0  0
    4.4469   -2.4578    5.3044 H   0  0  0  0  0  0  0  0  0  0  0  0
    5.0588   -3.1252    3.8225 H   0  0  0  0  0  0  0  0  0  0  0  0
    3.4927   -4.8325    2.8699 H   0  0  0  0  0  0  0  0  0  0  0  0
    2.9081   -2.5070    1.1498 H   0  0  0  0  0  0  0  0  0  0  0  0
    4.5256   -3.0419    1.6016 H   0  0  0  0  0  0  0  0  0  0  0  0
    4.0374   -5.2019    0.3862 H   0  0  0  0  0  0  0  0  0  0  0  0
    2.3914   -4.6696    0.1044 H   0  0  0  0  0  0  0  0  0  0  0  0
    1.8365   -2.9954   -1.6585 H   0  0  0  0  0  0  0  0  0  0  0  0
    2.6221   -1.9638   -3.7805 H   0  0  0  0  0  0  0  0  0  0  0  0
    6.5307   -3.0579   -3.0704 H   0  0  0  0  0  0  0  0  0  0  0  0
    5.9521   -4.1346   -0.8942 H   0  0  0  0  0  0  0  0  0  0  0  0
    1.2979   -2.1082    2.0002 H   0  0  0  0  0  0  0  0  0  0  0  0
    3.3264   -0.7305    2.1335 H   0  0  0  0  0  0  0  0  0  0  0  0
    2.1279    1.4827    2.3225 H   0  0  0  0  0  0  0  0  0  0  0  0
    1.1407    0.1757    1.8106 H   0  0  0  0  0  0  0  0  0  0  0  0
   -0.3274    2.6671    3.0522 H   0  0  0  0  0  0  0  0  0  0  0  0
   -1.9476    2.7380    4.9383 H   0  0  0  0  0  0  0  0  0  0  0  0
   -2.7068    1.7426    6.8609 H   0  0  0  0  0  0  0  0  0  0  0  0
    2.1822   -0.1081    6.8339 H   0  0  0  0  0  0  0  0  0  0  0  0
    3.2672   -1.3499    6.4476 H   0  0  0  0  0  0  0  0  0  0  0  0
    4.9409    1.8489    5.9115 H   0  0  0  0  0  0  0  0  0  0  0  0
    4.7756    0.5601    7.0973 H   0  0  0  0  0  0  0  0  0  0  0  0
    6.8256    0.5871    5.2729 H   0  0  0  0  0  0  0  0  0  0  0  0
    6.0618   -0.9338    5.7061 H   0  0  0  0  0  0  0  0  0  0  0  0
    5.8570    0.5422    3.1539 H   0  0  0  0  0  0  0  0  0  0  0  0
    5.5030   -1.1247    3.4424 H   0  0  0  0  0  0  0  0  0  0  0  0
    3.8737    1.2920    3.5418 H   0  0  0  0  0  0  0  0  0  0  0  0
   -0.1317   -2.5266    4.9839 H   0  0  0  0  0  0  0  0  0  0  0  0
    2.9184    1.3059    5.3760 H   0  0  0  0  0  0  0  0  0  0  0  0
    1.9993   -4.2976    2.4830 H   0  0  0  0  0  0  0  0  0  0  0  0
  1  2  1  0
  1 40  1  0
  1 41  1  0
  1 42  1  0
  3  2  1  6
  3  8  1  0
  3 38  1  0
  3  4  1  0
  4  5  2  0
  4  6  1  0
  6  7  1  0
  6 43  1  0
  6 44  1  0
  7  8  1  0
  7 45  1  0
  7 46  1  0
  8  9  1  6
  8 18  1  0
  9 10  1  0
  9 47  1  0
  9 74  1  0
 10 11  1  0
 10 48  1  0
 10 49  1  0
 11 12  1  0
 11 50  1  0
 11 51  1  0
 12 17  1  0
 12 13  2  0
 13 14  1  0
 13 52  1  0
 14 15  2  0
 14 53  1  0
 15 16  1  0
 16 17  2  0
 16 54  1  0
 17 55  1  0
 18 29  1  0
 18 19  1  6
 18 20  1  0
 19 56  1  0
 20 35  1  0
 20 21  1  0
 20 57  1  6
 21 22  1  0
 21 58  1  0
 21 59  1  0
 22 28  2  0
 22 23  1  0
 23 24  2  0
 23 60  1  0
 24 25  1  0
 24 61  1  0
 25 26  1  0
 25 27  2  0
 26 62  1  0
 27 37  1  0
 27 28  1  0
 28 29  1  0
 29 30  1  1
 29 36  1  0
 30 31  1  0
 30 63  1  0
 30 64  1  0
 31 35  1  0
 31 32  1  0
 31 73  1  6
 32 33  1  0
 32 65  1  0
 32 66  1  0
 33 34  1  0
 33 67  1  0
 33 68  1  0
 34 35  1  0
 34 69  1  0
 34 70  1  0
 35 71  1  6
 36 37  1  0
 36 38  1  0
 36 72  1  6
 38 39  2  0
M  CHG  2   9   1  31   1
M  END
>  <i_m_ct_stereo_status>  (209) 
1

>  <s_m_source_file>  (209) 
/var/tmp/pbs.5076255.sched01/tmp5gbx45fw/500pp51iot.sdf

>  <i_m_source_file_index>  (209) 
34

>  <i_lp_mmshare_version>  (209) 
48012

>  <i_f3d_flags>  (209) 
0

>  <s_epik_input>  (209) 
W2NIXTFbY0hdbltjSF1bY0hdYzFbQ0gyXVtDSDJdW05IXVtDQEBdMihbQ0BdMyhbQ0BdNDU2KVtPSF0pW0NAQF0oT1tDSDNdKShDKD1PKVtDSDJdW0NIMl0yKUMoPU8pW0NASF02T2M3YzRjKFtjSF1bY0hdYzdbT0hdKVtDSDJdW0NASF0zW0NASF04TihbQ0gyXTUpW0NIMl1bQ0gyXVtDSDJdOA==

>  <s_epik_cmdline>  (209) 
J2VwaWtfcHl0aG9uJywgJy1waHQnLCAnMi4wJywgJy1waCcsICc3LjAnLCAnLXRuJywgJzgnLCAnLW1hJywgJzIwMCcsICctaW1hZScsICc8aW5maWxlLm1hZT4nLCAnLW9tYWUnLCAnPG91dGZpbGUubWFlPic=

>  <r_lp_tautomer_probability>  (209) 
0.99995

>  <r_epik_Ionization_Penalty>  (209) 
1.17001

>  <r_epik_Ionization_Penalty_Charging>  (209) 
1.14212

>  <r_epik_Ionization_Penalty_Neutral>  (209) 
0.0278882

>  <r_epik_State_Penalty>  (209) 
1.282

>  <r_epik_Charging_Adjusted_Penalty>  (209) 
2.42412

>  <i_epik_Tot_Q>  (209) 
2

>  <i_epik_Tot_abs_Q>  (209) 
2

>  <s_lp_Force_Field>  (209) 
OPLS3e

>  <r_lp_Energy>  (209) 
117.449

>  <b_lp_Chiralities_Consistent>  (209) 
1

>  <s_lp_Variant>  (209) 
47:0-2

>  <s_i_glide_gridfile>  (209) 
pfpi4k_grid

>  <i_i_glide_lignum>  (209) 
34

>  <i_i_glide_rotatable_bonds>  (209) 
7

>  <r_i_docking_score>  (209) 
-2.96598

>  <r_i_glide_ligand_efficiency>  (209) 
-0.0760507

>  <r_i_glide_ligand_efficiency_sa>  (209) 
-0.257904

>  <r_i_glide_ligand_efficiency_ln>  (209) 
-0.63599

>  <r_i_glide_gscore>  (209) 
-2.96598

>  <r_i_glide_lipo>  (209) 
-0.514823

>  <r_i_glide_hbond>  (209) 
0

>  <r_i_glide_metal>  (209) 
-0

>  <r_i_glide_rewards>  (209) 
0

>  <r_i_glide_evdw>  (209) 
-30.1541

>  <r_i_glide_ecoul>  (209) 
-7.73186

>  <r_i_glide_erotb>  (209) 
0.217387

>  <r_i_glide_esite>  (209) 
-0.00105529

>  <r_i_glide_emodel>  (209) 
-46.7507

>  <r_i_glide_energy>  (209) 
-37.886

>  <r_i_glide_einternal>  (209) 
0.651514

>  <r_i_glide_intrahb_reward>  (209) 
-0

>  <i_i_glide_confnum>  (209) 
3

>  <i_i_glide_posenum>  (209) 
38

>  <r_i_glide_eff_state_penalty>  (209) 
0

>  <ligand_id>  (209) 
47

>  <original_smiles>  (209) 
COC12C(=O)CCC1(NCCc1ccncc1)C1(O)C3Cc4ccc(O)c5c4C1(CN1CCCC31)C(O5)C2=O

>  <smiles>  (209) 
[H]Oc1c([H])c([H])c2c3c1OC1([H])C(=O)C4(OC([H])([H])[H])C(=O)C([H])([H])C([H])([H])C4([N+]([H])([H])C([H])([H])C([H])([H])c4c([H])c([H])nc([H])c4[H])C4(O[H])C([H])(C2([H])[H])C2([H])C([H])([H])C([H])([H])C([H])([H])[N+]2([H])C([H])([H])C314

$$$$
47:2:0
     RDKit          3D

 74 81  0  0  1  0  0  0  0  0999 V2000
    4.7206   -5.2946   -0.3726 C   0  0  0  0  0  0  0  0  0  0  0  0
    4.3624   -5.1549    1.0072 O   0  0  0  0  0  0  0  0  0  0  0  0
    4.7579   -6.1615    1.9756 C   0  0  1  0  0  0  0  0  0  0  0  0
    6.2691   -6.4410    1.9522 C   0  0  0  0  0  0  0  0  0  0  0  0
    6.9473   -6.6208    0.9537 O   0  0  0  0  0  0  0  0  0  0  0  0
    6.8456   -6.4417    3.3509 C   0  0  0  0  0  0  0  0  0  0  0  0
    5.6399   -6.2250    4.2708 C   0  0  0  0  0  0  0  0  0  0  0  0
    4.5170   -5.5531    3.4368 C   0  0  1  0  0  0  0  0  0  0  0  0
    4.9380   -4.1315    3.3733 N   0  0  0  0  0  0  0  0  0  0  0  0
    4.7419   -3.2082    4.4983 C   0  0  0  0  0  0  0  0  0  0  0  0
    5.0306   -1.7560    4.0834 C   0  0  0  0  0  0  0  0  0  0  0  0
    4.1641   -1.2249    2.9566 C   0  0  0  0  0  0  0  0  0  0  0  0
    4.2325   -1.7976    1.6649 C   0  0  0  0  0  0  0  0  0  0  0  0
    3.4129   -1.3076    0.6393 C   0  0  0  0  0  0  0  0  0  0  0  0
    2.6048   -0.2635    0.8879 N   0  0  0  0  0  0  0  0  0  0  0  0
    2.5418    0.3646    2.0771 C   0  0  0  0  0  0  0  0  0  0  0  0
    3.3156   -0.1097    3.1638 C   0  0  0  0  0  0  0  0  0  0  0  0
    2.9795   -5.6937    3.9160 C   0  0  2  0  0  0  0  0  0  0  0  0
    2.3091   -4.6958    3.1398 O   0  0  0  0  0  0  0  0  0  0  0  0
    2.4440   -5.5335    5.3940 C   0  0  1  0  0  0  0  0  0  0  0  0
    0.8743   -5.4125    5.3838 C   0  0  0  0  0  0  0  0  0  0  0  0
    0.1158   -6.4550    4.5619 C   0  0  0  0  0  0  0  0  0  0  0  0
   -1.2596   -6.7703    4.5385 C   0  0  0  0  0  0  0  0  0  0  0  0
   -1.7299   -7.7070    3.5841 C   0  0  0  0  0  0  0  0  0  0  0  0
   -0.8667   -8.2782    2.6040 C   0  0  0  0  0  0  0  0  0  0  0  0
   -1.4035   -9.1100    1.6833 O   0  0  0  0  0  0  0  0  0  0  0  0
    0.5004   -7.9672    2.5930 C   0  0  0  0  0  0  0  0  0  0  0  0
    0.8994   -7.1145    3.6077 C   0  0  0  0  0  0  0  0  0  0  0  0
    2.3774   -7.0507    3.5249 C   0  0  2  0  0  0  0  0  0  0  0  0
    2.9197   -8.2181    4.4060 C   0  0  0  0  0  0  0  0  0  0  0  0
    2.6649   -8.0393    5.8627 N   0  0  1  0  0  0  0  0  0  0  0  0
    3.4914   -8.8771    6.7656 C   0  0  0  0  0  0  0  0  0  0  0  0
    4.6177   -7.9904    7.3000 C   0  0  0  0  0  0  0  0  0  0  0  0
    4.0824   -6.5619    7.2155 C   0  0  0  0  0  0  0  0  0  0  0  0
    2.8019   -6.6602    6.3836 C   0  0  1  0  0  0  0  0  0  0  0  0
    2.5047   -7.3077    2.0316 C   0  0  2  0  0  0  0  0  0  0  0  0
    1.5407   -8.3280    1.7399 O   0  0  0  0  0  0  0  0  0  0  0  0
    3.9669   -7.4700    1.6637 C   0  0  0  0  0  0  0  0  0  0  0  0
    4.4232   -8.4882    1.1551 O   0  0  0  0  0  0  0  0  0  0  0  0
    4.0939   -4.6439   -0.9793 H   0  0  0  0  0  0  0  0  0  0  0  0
    4.6095   -6.3097   -0.7575 H   0  0  0  0  0  0  0  0  0  0  0  0
    5.7469   -4.9687   -0.5332 H   0  0  0  0  0  0  0  0  0  0  0  0
    7.3906   -7.3633    3.5658 H   0  0  0  0  0  0  0  0  0  0  0  0
    7.5488   -5.6096    3.4162 H   0  0  0  0  0  0  0  0  0  0  0  0
    5.3738   -7.1805    4.6858 H   0  0  0  0  0  0  0  0  0  0  0  0
    5.9577   -5.6000    5.1026 H   0  0  0  0  0  0  0  0  0  0  0  0
    5.8970   -4.0866    3.0470 H   0  0  0  0  0  0  0  0  0  0  0  0
    3.6972   -3.1585    4.7933 H   0  0  0  0  0  0  0  0  0  0  0  0
    5.3400   -3.4977    5.3698 H   0  0  0  0  0  0  0  0  0  0  0  0
    4.9139   -1.1263    4.9699 H   0  0  0  0  0  0  0  0  0  0  0  0
    6.0436   -1.6430    3.7139 H   0  0  0  0  0  0  0  0  0  0  0  0
    4.8596   -2.6423    1.4179 H   0  0  0  0  0  0  0  0  0  0  0  0
    3.3431   -1.7601   -0.3433 H   0  0  0  0  0  0  0  0  0  0  0  0
    1.8502    1.1956    2.1349 H   0  0  0  0  0  0  0  0  0  0  0  0
    3.2555    0.3806    4.1283 H   0  0  0  0  0  0  0  0  0  0  0  0
    2.6767   -4.6861    2.2669 H   0  0  0  0  0  0  0  0  0  0  0  0
    2.7799   -4.6351    5.8991 H   0  0  0  0  0  0  0  0  0  0  0  0
    0.4849   -5.4060    6.3929 H   0  0  0  0  0  0  0  0  0  0  0  0
    0.6052   -4.4318    4.9937 H   0  0  0  0  0  0  0  0  0  0  0  0
   -1.9436   -6.2989    5.2457 H   0  0  0  0  0  0  0  0  0  0  0  0
   -2.7707   -7.9821    3.5877 H   0  0  0  0  0  0  0  0  0  0  0  0
   -0.7642   -9.4501    1.0323 H   0  0  0  0  0  0  0  0  0  0  0  0
    2.4218   -9.1380    4.1406 H   0  0  0  0  0  0  0  0  0  0  0  0
    3.9500   -8.4606    4.2111 H   0  0  0  0  0  0  0  0  0  0  0  0
    2.8624   -9.1380    7.6038 H   0  0  0  0  0  0  0  0  0  0  0  0
    3.8448   -9.8081    6.3264 H   0  0  0  0  0  0  0  0  0  0  0  0
    4.9211   -8.2676    8.3155 H   0  0  0  0  0  0  0  0  0  0  0  0
    5.5008   -8.0891    6.6775 H   0  0  0  0  0  0  0  0  0  0  0  0
    3.8461   -6.1871    8.2105 H   0  0  0  0  0  0  0  0  0  0  0  0
    4.8062   -5.8542    6.8336 H   0  0  0  0  0  0  0  0  0  0  0  0
    2.0501   -6.6316    7.1570 H   0  0  0  0  0  0  0  0  0  0  0  0
    2.1552   -6.4496    1.4612 H   0  0  0  0  0  0  0  0  0  0  0  0
    1.6941   -8.3159    5.9881 H   0  0  0  0  0  0  0  0  0  0  0  0
    1.9575   -0.0294    0.1332 H   0  0  0  0  0  0  0  0  0  0  0  0
  1  2  1  0
  1 40  1  0
  1 41  1  0
  1 42  1  0
  3  2  1  6
  3  8  1  0
  3 38  1  0
  3  4  1  0
  4  5  2  0
  4  6  1  0
  6  7  1  0
  6 43  1  0
  6 44  1  0
  7  8  1  0
  7 45  1  0
  7 46  1  0
  8  9  1  6
  8 18  1  0
  9 10  1  0
  9 47  1  0
 10 11  1  0
 10 48  1  0
 10 49  1  0
 11 12  1  0
 11 50  1  0
 11 51  1  0
 12 17  1  0
 12 13  2  0
 13 14  1  0
 13 52  1  0
 14 15  2  0
 14 53  1  0
 15 16  1  0
 15 74  1  0
 16 17  2  0
 16 54  1  0
 17 55  1  0
 18 29  1  0
 18 19  1  6
 18 20  1  0
 19 56  1  0
 20 35  1  0
 20 21  1  0
 20 57  1  1
 21 22  1  0
 21 58  1  0
 21 59  1  0
 22 28  2  0
 22 23  1  0
 23 24  2  0
 23 60  1  0
 24 25  1  0
 24 61  1  0
 25 26  1  0
 25 27  2  0
 26 62  1  0
 27 37  1  0
 27 28  1  0
 28 29  1  0
 29 30  1  1
 29 36  1  0
 30 31  1  0
 30 63  1  0
 30 64  1  0
 31 35  1  0
 31 32  1  0
 31 73  1  6
 32 33  1  0
 32 65  1  0
 32 66  1  0
 33 34  1  0
 33 67  1  0
 33 68  1  0
 34 35  1  0
 34 69  1  0
 34 70  1  0
 35 71  1  1
 36 37  1  0
 36 38  1  0
 36 72  1  6
 38 39  2  0
M  CHG  2  15   1  31   1
M  END
>  <i_m_ct_stereo_status>  (210) 
1

>  <s_m_source_file>  (210) 
/var/tmp/pbs.5076255.sched01/tmp5gbx45fw/500pp51iot.sdf

>  <i_m_source_file_index>  (210) 
35

>  <i_lp_mmshare_version>  (210) 
48012

>  <i_f3d_flags>  (210) 
0

>  <s_epik_input>  (210) 
W2NIXTFbY0hdbltjSF1bY0hdYzFbQ0gyXVtDSDJdW05IXVtDQEBdMihbQ0BdMyhbQ0BdNDU2KVtPSF0pW0NAQF0oT1tDSDNdKShDKD1PKVtDSDJdW0NIMl0yKUMoPU8pW0NASF02T2M3YzRjKFtjSF1bY0hdYzdbT0hdKVtDSDJdW0NASF0zW0NASF04TihbQ0gyXTUpW0NIMl1bQ0gyXVtDSDJdOA==

>  <s_epik_cmdline>  (210) 
J2VwaWtfcHl0aG9uJywgJy1waHQnLCAnMi4wJywgJy1waCcsICc3LjAnLCAnLXRuJywgJzgnLCAnLW1hJywgJzIwMCcsICctaW1hZScsICc8aW5maWxlLm1hZT4nLCAnLW9tYWUnLCAnPG91dGZpbGUubWFlPic=

>  <r_epik_Ionization_Penalty>  (210) 
1.19147

>  <r_epik_Ionization_Penalty_Charging>  (210) 
1.14602

>  <r_epik_Ionization_Penalty_Neutral>  (210) 
0.0454558

>  <r_epik_State_Penalty>  (210) 
1.2883

>  <r_epik_Charging_Adjusted_Penalty>  (210) 
2.43432

>  <i_epik_Tot_Q>  (210) 
2

>  <i_epik_Tot_abs_Q>  (210) 
2

>  <s_lp_Force_Field>  (210) 
OPLS3e

>  <r_lp_Energy>  (210) 
119.006

>  <b_lp_Chiralities_Consistent>  (210) 
1

>  <s_lp_Variant>  (210) 
47:0-3

>  <s_i_glide_gridfile>  (210) 
pfpi4k_grid

>  <i_i_glide_lignum>  (210) 
35

>  <i_i_glide_rotatable_bonds>  (210) 
7

>  <r_i_docking_score>  (210) 
-3.19666

>  <r_i_glide_ligand_efficiency>  (210) 
-0.0819657

>  <r_i_glide_ligand_efficiency_sa>  (210) 
-0.277963

>  <r_i_glide_ligand_efficiency_ln>  (210) 
-0.685455

>  <r_i_glide_gscore>  (210) 
-3.19666

>  <r_i_glide_lipo>  (210) 
-0.12526

>  <r_i_glide_hbond>  (210) 
-0.1381

>  <r_i_glide_metal>  (210) 
-0

>  <r_i_glide_rewards>  (210) 
-0.137919

>  <r_i_glide_evdw>  (210) 
-24.1544

>  <r_i_glide_ecoul>  (210) 
-11.592

>  <r_i_glide_erotb>  (210) 
0.217387

>  <r_i_glide_esite>  (210) 
-0.0662527

>  <r_i_glide_emodel>  (210) 
-41.2995

>  <r_i_glide_energy>  (210) 
-35.7464

>  <r_i_glide_einternal>  (210) 
2.93146

>  <r_i_glide_intrahb_reward>  (210) 
-0

>  <i_i_glide_confnum>  (210) 
2

>  <i_i_glide_posenum>  (210) 
21

>  <r_i_glide_eff_state_penalty>  (210) 
0

>  <ligand_id>  (210) 
47

>  <original_smiles>  (210) 
COC12C(=O)CCC1(NCCc1ccncc1)C1(O)C3Cc4ccc(O)c5c4C1(CN1CCCC31)C(O5)C2=O

>  <smiles>  (210) 
[H]Oc1c([H])c([H])c2c3c1OC1([H])C(=O)C4(OC([H])([H])[H])C(=O)C([H])([H])C([H])([H])C4(N([H])C([H])([H])C([H])([H])c4c([H])c([H])[n+]([H])c([H])c4[H])C4(O[H])C([H])(C2([H])[H])C2([H])C([H])([H])C([H])([H])C([H])([H])[N+]2([H])C([H])([H])C314

$$$$
47:2:1
     RDKit          3D

 74 81  0  0  1  0  0  0  0  0999 V2000
    1.5031   -1.3521    4.1512 C   0  0  0  0  0  0  0  0  0  0  0  0
    2.1202   -2.5632    3.7120 O   0  0  0  0  0  0  0  0  0  0  0  0
    3.5348   -2.7883    3.8837 C   0  0  1  0  0  0  0  0  0  0  0  0
    3.9587   -2.7270    5.3600 C   0  0  0  0  0  0  0  0  0  0  0  0
    3.6248   -1.8629    6.1638 O   0  0  0  0  0  0  0  0  0  0  0  0
    4.8589   -3.8928    5.7168 C   0  0  0  0  0  0  0  0  0  0  0  0
    5.0454   -4.6544    4.3994 C   0  0  0  0  0  0  0  0  0  0  0  0
    3.8474   -4.3088    3.4651 C   0  0  1  0  0  0  0  0  0  0  0  0
    2.7231   -5.1469    3.9778 N   0  0  0  0  0  0  0  0  0  0  0  0
    2.7133   -6.5943    3.7491 C   0  0  0  0  0  0  0  0  0  0  0  0
    1.5275   -7.2394    4.4724 C   0  0  0  0  0  0  0  0  0  0  0  0
    1.4373   -8.7337    4.2225 C   0  0  0  0  0  0  0  0  0  0  0  0
    1.9967   -9.6536    5.1364 C   0  0  0  0  0  0  0  0  0  0  0  0
    1.8825  -11.0367    4.8803 C   0  0  0  0  0  0  0  0  0  0  0  0
    1.2433  -11.4642    3.7718 N   0  0  0  0  0  0  0  0  0  0  0  0
    0.6880  -10.6190    2.8813 C   0  0  0  0  0  0  0  0  0  0  0  0
    0.7745   -9.2264    3.0765 C   0  0  0  0  0  0  0  0  0  0  0  0
    4.0429   -4.4792    1.8663 C   0  0  2  0  0  0  0  0  0  0  0  0
    2.7041   -4.4215    1.3721 O   0  0  0  0  0  0  0  0  0  0  0  0
    4.7106   -5.7111    1.1419 C   0  0  1  0  0  0  0  0  0  0  0  0
    4.4173   -5.6274   -0.3970 C   0  0  0  0  0  0  0  0  0  0  0  0
    4.6562   -4.2727   -1.0881 C   0  0  0  0  0  0  0  0  0  0  0  0
    4.7117   -3.9393   -2.4603 C   0  0  0  0  0  0  0  0  0  0  0  0
    4.8201   -2.5850   -2.8562 C   0  0  0  0  0  0  0  0  0  0  0  0
    4.8285   -1.5409   -1.9021 C   0  0  0  0  0  0  0  0  0  0  0  0
    4.8986   -0.2593   -2.3183 O   0  0  0  0  0  0  0  0  0  0  0  0
    4.7530   -1.8398   -0.5268 C   0  0  0  0  0  0  0  0  0  0  0  0
    4.7122   -3.1901   -0.2227 C   0  0  0  0  0  0  0  0  0  0  0  0
    4.8132   -3.2959    1.2480 C   0  0  2  0  0  0  0  0  0  0  0  0
    6.3477   -3.3443    1.5467 C   0  0  0  0  0  0  0  0  0  0  0  0
    7.0262   -4.6056    1.1199 N   0  0  1  0  0  0  0  0  0  0  0  0
    8.3488   -4.8974    1.7332 C   0  0  0  0  0  0  0  0  0  0  0  0
    8.1116   -5.9411    2.8341 C   0  0  0  0  0  0  0  0  0  0  0  0
    6.8457   -6.6896    2.4105 C   0  0  0  0  0  0  0  0  0  0  0  0
    6.2483   -5.8563    1.2701 C   0  0  1  0  0  0  0  0  0  0  0  0
    4.1640   -1.9625    1.5713 C   0  0  2  0  0  0  0  0  0  0  0  0
    4.7003   -1.0430    0.6002 O   0  0  0  0  0  0  0  0  0  0  0  0
    4.2906   -1.7019    3.0551 C   0  0  0  0  0  0  0  0  0  0  0  0
    4.9170   -0.7466    3.5086 O   0  0  0  0  0  0  0  0  0  0  0  0
    0.5352   -1.2578    3.6587 H   0  0  0  0  0  0  0  0  0  0  0  0
    2.0715   -0.4506    3.9141 H   0  0  0  0  0  0  0  0  0  0  0  0
    1.3195   -1.3812    5.2247 H   0  0  0  0  0  0  0  0  0  0  0  0
    5.8023   -3.5669    6.1551 H   0  0  0  0  0  0  0  0  0  0  0  0
    4.3421   -4.5106    6.4503 H   0  0  0  0  0  0  0  0  0  0  0  0
    6.0062   -4.3801    4.0033 H   0  0  0  0  0  0  0  0  0  0  0  0
    5.1192   -5.7077    4.6390 H   0  0  0  0  0  0  0  0  0  0  0  0
    2.5759   -4.9452    4.9611 H   0  0  0  0  0  0  0  0  0  0  0  0
    2.6063   -6.8052    2.6886 H   0  0  0  0  0  0  0  0  0  0  0  0
    3.6350   -7.0660    4.0866 H   0  0  0  0  0  0  0  0  0  0  0  0
    1.6027   -7.0570    5.5454 H   0  0  0  0  0  0  0  0  0  0  0  0
    0.5994   -6.7694    4.1384 H   0  0  0  0  0  0  0  0  0  0  0  0
    2.4969   -9.3147    6.0328 H   0  0  0  0  0  0  0  0  0  0  0  0
    2.2679  -11.8073    5.5383 H   0  0  0  0  0  0  0  0  0  0  0  0
    0.2003  -11.0690    2.0261 H   0  0  0  0  0  0  0  0  0  0  0  0
    0.3372   -8.5550    2.3535 H   0  0  0  0  0  0  0  0  0  0  0  0
    2.7356   -4.3263    0.4315 H   0  0  0  0  0  0  0  0  0  0  0  0
    4.2888   -6.6544    1.4806 H   0  0  0  0  0  0  0  0  0  0  0  0
    4.9351   -6.4047   -0.9460 H   0  0  0  0  0  0  0  0  0  0  0  0
    3.3670   -5.8871   -0.5110 H   0  0  0  0  0  0  0  0  0  0  0  0
    4.6456   -4.7147   -3.2144 H   0  0  0  0  0  0  0  0  0  0  0  0
    4.8776   -2.3559   -3.9056 H   0  0  0  0  0  0  0  0  0  0  0  0
    4.9084    0.3744   -1.6108 H   0  0  0  0  0  0  0  0  0  0  0  0
    6.8657   -2.5362    1.0356 H   0  0  0  0  0  0  0  0  0  0  0  0
    6.5348   -3.1131    2.5691 H   0  0  0  0  0  0  0  0  0  0  0  0
    8.9571   -5.3624    0.9603 H   0  0  0  0  0  0  0  0  0  0  0  0
    8.9020   -4.0231    2.0737 H   0  0  0  0  0  0  0  0  0  0  0  0
    8.9708   -6.6089    2.9589 H   0  0  0  0  0  0  0  0  0  0  0  0
    7.9511   -5.4556    3.7916 H   0  0  0  0  0  0  0  0  0  0  0  0
    7.1056   -7.6857    2.0465 H   0  0  0  0  0  0  0  0  0  0  0  0
    6.1606   -6.8543    3.2327 H   0  0  0  0  0  0  0  0  0  0  0  0
    6.5850   -6.4110    0.4023 H   0  0  0  0  0  0  0  0  0  0  0  0
    3.0969   -1.9996    1.3694 H   0  0  0  0  0  0  0  0  0  0  0  0
    7.1749   -4.4708    0.1246 H   0  0  0  0  0  0  0  0  0  0  0  0
    1.1922  -12.4725    3.6026 H   0  0  0  0  0  0  0  0  0  0  0  0
  1  2  1  0
  1 40  1  0
  1 41  1  0
  1 42  1  0
  3  2  1  1
  3  8  1  0
  3 38  1  0
  3  4  1  0
  4  5  2  0
  4  6  1  0
  6  7  1  0
  6 43  1  0
  6 44  1  0
  7  8  1  0
  7 45  1  0
  7 46  1  0
  8  9  1  1
  8 18  1  0
  9 10  1  0
  9 47  1  0
 10 11  1  0
 10 48  1  0
 10 49  1  0
 11 12  1  0
 11 50  1  0
 11 51  1  0
 12 17  1  0
 12 13  2  0
 13 14  1  0
 13 52  1  0
 14 15  2  0
 14 53  1  0
 15 16  1  0
 15 74  1  0
 16 17  2  0
 16 54  1  0
 17 55  1  0
 18 29  1  0
 18 19  1  6
 18 20  1  0
 19 56  1  0
 20 35  1  0
 20 21  1  0
 20 57  1  1
 21 22  1  0
 21 58  1  0
 21 59  1  0
 22 28  2  0
 22 23  1  0
 23 24  2  0
 23 60  1  0
 24 25  1  0
 24 61  1  0
 25 26  1  0
 25 27  2  0
 26 62  1  0
 27 37  1  0
 27 28  1  0
 28 29  1  0
 29 30  1  6
 29 36  1  0
 30 31  1  0
 30 63  1  0
 30 64  1  0
 31 35  1  0
 31 32  1  0
 31 73  1  6
 32 33  1  0
 32 65  1  0
 32 66  1  0
 33 34  1  0
 33 67  1  0
 33 68  1  0
 34 35  1  0
 34 69  1  0
 34 70  1  0
 35 71  1  6
 36 37  1  0
 36 38  1  0
 36 72  1  6
 38 39  2  0
M  CHG  2  15   1  31   1
M  END
>  <i_m_ct_stereo_status>  (211) 
1

>  <s_m_source_file>  (211) 
/var/tmp/pbs.5076255.sched01/tmp5gbx45fw/500pp51iot.sdf

>  <i_m_source_file_index>  (211) 
35

>  <i_lp_mmshare_version>  (211) 
48012

>  <i_f3d_flags>  (211) 
0

>  <s_epik_input>  (211) 
W2NIXTFbY0hdbltjSF1bY0hdYzFbQ0gyXVtDSDJdW05IXVtDQEBdMihbQ0BdMyhbQ0BdNDU2KVtPSF0pW0NAQF0oT1tDSDNdKShDKD1PKVtDSDJdW0NIMl0yKUMoPU8pW0NASF02T2M3YzRjKFtjSF1bY0hdYzdbT0hdKVtDSDJdW0NASF0zW0NASF04TihbQ0gyXTUpW0NIMl1bQ0gyXVtDSDJdOA==

>  <s_epik_cmdline>  (211) 
J2VwaWtfcHl0aG9uJywgJy1waHQnLCAnMi4wJywgJy1waCcsICc3LjAnLCAnLXRuJywgJzgnLCAnLW1hJywgJzIwMCcsICctaW1hZScsICc8aW5maWxlLm1hZT4nLCAnLW9tYWUnLCAnPG91dGZpbGUubWFlPic=

>  <r_epik_Ionization_Penalty>  (211) 
1.19147

>  <r_epik_Ionization_Penalty_Charging>  (211) 
1.14602

>  <r_epik_Ionization_Penalty_Neutral>  (211) 
0.0454558

>  <r_epik_State_Penalty>  (211) 
1.2883

>  <r_epik_Charging_Adjusted_Penalty>  (211) 
2.43432

>  <i_epik_Tot_Q>  (211) 
2

>  <i_epik_Tot_abs_Q>  (211) 
2

>  <s_lp_Force_Field>  (211) 
OPLS3e

>  <r_lp_Energy>  (211) 
119.006

>  <b_lp_Chiralities_Consistent>  (211) 
1

>  <s_lp_Variant>  (211) 
47:0-3

>  <s_i_glide_gridfile>  (211) 
pfpi4k_grid

>  <i_i_glide_lignum>  (211) 
35

>  <i_i_glide_rotatable_bonds>  (211) 
7

>  <r_i_docking_score>  (211) 
-2.84787

>  <r_i_glide_ligand_efficiency>  (211) 
-0.0730224

>  <r_i_glide_ligand_efficiency_sa>  (211) 
-0.247634

>  <r_i_glide_ligand_efficiency_ln>  (211) 
-0.610665

>  <r_i_glide_gscore>  (211) 
-2.84787

>  <r_i_glide_lipo>  (211) 
-0.583657

>  <r_i_glide_hbond>  (211) 
0

>  <r_i_glide_metal>  (211) 
-0

>  <r_i_glide_rewards>  (211) 
-0.0214179

>  <r_i_glide_evdw>  (211) 
-23.3184

>  <r_i_glide_ecoul>  (211) 
-8.62843

>  <r_i_glide_erotb>  (211) 
0.217387

>  <r_i_glide_esite>  (211) 
0

>  <r_i_glide_emodel>  (211) 
-39.035

>  <r_i_glide_energy>  (211) 
-31.9468

>  <r_i_glide_einternal>  (211) 
0.124313

>  <r_i_glide_intrahb_reward>  (211) 
-0

>  <i_i_glide_confnum>  (211) 
1

>  <i_i_glide_posenum>  (211) 
2

>  <r_i_glide_eff_state_penalty>  (211) 
0

>  <ligand_id>  (211) 
47

>  <original_smiles>  (211) 
COC12C(=O)CCC1(NCCc1ccncc1)C1(O)C3Cc4ccc(O)c5c4C1(CN1CCCC31)C(O5)C2=O

>  <smiles>  (211) 
[H]Oc1c([H])c([H])c2c3c1OC1([H])C(=O)C4(OC([H])([H])[H])C(=O)C([H])([H])C([H])([H])C4(N([H])C([H])([H])C([H])([H])c4c([H])c([H])[n+]([H])c([H])c4[H])C4(O[H])C([H])(C2([H])[H])C2([H])C([H])([H])C([H])([H])C([H])([H])[N+]2([H])C([H])([H])C314

$$$$
47:2:2
     RDKit          3D

 74 81  0  0  1  0  0  0  0  0999 V2000
    1.3544   -4.1630    4.1171 C   0  0  0  0  0  0  0  0  0  0  0  0
    2.0149   -2.8986    4.0459 O   0  0  0  0  0  0  0  0  0  0  0  0
    2.7590   -2.3808    5.1686 C   0  0  1  0  0  0  0  0  0  0  0  0
    3.8472   -3.3494    5.6522 C   0  0  0  0  0  0  0  0  0  0  0  0
    3.6988   -4.5556    5.8518 O   0  0  0  0  0  0  0  0  0  0  0  0
    5.1648   -2.6373    5.8660 C   0  0  0  0  0  0  0  0  0  0  0  0
    4.8584   -1.1632    5.5650 C   0  0  0  0  0  0  0  0  0  0  0  0
    3.5930   -1.1041    4.6590 C   0  0  1  0  0  0  0  0  0  0  0  0
    4.1177   -1.4394    3.3065 N   0  0  0  0  0  0  0  0  0  0  0  0
    4.8446   -0.4342    2.5296 C   0  0  0  0  0  0  0  0  0  0  0  0
    5.7057   -1.1030    1.4477 C   0  0  0  0  0  0  0  0  0  0  0  0
    4.9018   -1.9362    0.4651 C   0  0  0  0  0  0  0  0  0  0  0  0
    4.2128   -1.3225   -0.6043 C   0  0  0  0  0  0  0  0  0  0  0  0
    3.4531   -2.1183   -1.4855 C   0  0  0  0  0  0  0  0  0  0  0  0
    3.4059   -3.4569   -1.3045 N   0  0  0  0  0  0  0  0  0  0  0  0
    4.0533   -4.0845   -0.2997 C   0  0  0  0  0  0  0  0  0  0  0  0
    4.8211   -3.3374    0.6152 C   0  0  0  0  0  0  0  0  0  0  0  0
    2.7105    0.2526    4.6475 C   0  0  2  0  0  0  0  0  0  0  0  0
    1.8882    0.0746    3.4936 O   0  0  0  0  0  0  0  0  0  0  0  0
    3.2688    1.7262    4.5479 C   0  0  1  0  0  0  0  0  0  0  0  0
    2.0948    2.7299    4.2303 C   0  0  0  0  0  0  0  0  0  0  0  0
    0.8195    2.5807    5.0761 C   0  0  0  0  0  0  0  0  0  0  0  0
   -0.2925    3.4378    5.2035 C   0  0  0  0  0  0  0  0  0  0  0  0
   -1.4155    3.0181    5.9727 C   0  0  0  0  0  0  0  0  0  0  0  0
   -1.4730    1.7278    6.5715 C   0  0  0  0  0  0  0  0  0  0  0  0
   -2.5766    1.3447    7.2790 O   0  0  0  0  0  0  0  0  0  0  0  0
   -0.3848    0.8420    6.4319 C   0  0  0  0  0  0  0  0  0  0  0  0
    0.7044    1.3562    5.7398 C   0  0  0  0  0  0  0  0  0  0  0  0
    1.7827    0.3463    5.8713 C   0  0  2  0  0  0  0  0  0  0  0  0
    2.5571    0.6931    7.1922 C   0  0  0  0  0  0  0  0  0  0  0  0
    3.3171    1.9743    7.1175 N   0  0  1  0  0  0  0  0  0  0  0  0
    4.3616    2.1654    8.1542 C   0  0  0  0  0  0  0  0  0  0  0  0
    5.7069    1.8464    7.4925 C   0  0  0  0  0  0  0  0  0  0  0  0
    5.4885    2.1124    5.9982 C   0  0  0  0  0  0  0  0  0  0  0  0
    3.9750    2.2822    5.8236 C   0  0  1  0  0  0  0  0  0  0  0  0
    0.8878   -0.8751    5.9893 C   0  0  2  0  0  0  0  0  0  0  0  0
   -0.1932   -0.4626    6.8473 O   0  0  0  0  0  0  0  0  0  0  0  0
    1.7406   -2.0826    6.3130 C   0  0  0  0  0  0  0  0  0  0  0  0
    1.6061   -2.7333    7.3508 O   0  0  0  0  0  0  0  0  0  0  0  0
    0.6198   -4.2144    3.3134 H   0  0  0  0  0  0  0  0  0  0  0  0
    0.8246   -4.3344    5.0546 H   0  0  0  0  0  0  0  0  0  0  0  0
    2.0642   -4.9734    3.9547 H   0  0  0  0  0  0  0  0  0  0  0  0
    5.5580   -2.7920    6.8707 H   0  0  0  0  0  0  0  0  0  0  0  0
    5.8874   -3.0353    5.1545 H   0  0  0  0  0  0  0  0  0  0  0  0
    4.7518   -0.6652    6.5123 H   0  0  0  0  0  0  0  0  0  0  0  0
    5.7365   -0.7285    5.0987 H   0  0  0  0  0  0  0  0  0  0  0  0
    4.6512   -2.2996    3.3593 H   0  0  0  0  0  0  0  0  0  0  0  0
    4.1373    0.2497    2.0600 H   0  0  0  0  0  0  0  0  0  0  0  0
    5.4904    0.1683    3.1662 H   0  0  0  0  0  0  0  0  0  0  0  0
    6.2571   -0.3414    0.8965 H   0  0  0  0  0  0  0  0  0  0  0  0
    6.4570   -1.7334    1.9265 H   0  0  0  0  0  0  0  0  0  0  0  0
    4.2424   -0.2515   -0.7333 H   0  0  0  0  0  0  0  0  0  0  0  0
    2.8739   -1.7272   -2.3111 H   0  0  0  0  0  0  0  0  0  0  0  0
    3.9383   -5.1589   -0.2571 H   0  0  0  0  0  0  0  0  0  0  0  0
    5.3324   -3.8357    1.4254 H   0  0  0  0  0  0  0  0  0  0  0  0
    1.3606    0.8483    3.3637 H   0  0  0  0  0  0  0  0  0  0  0  0
    3.9746    1.8102    3.7269 H   0  0  0  0  0  0  0  0  0  0  0  0
    2.4291    3.7648    4.2809 H   0  0  0  0  0  0  0  0  0  0  0  0
    1.8025    2.6141    3.1849 H   0  0  0  0  0  0  0  0  0  0  0  0
   -0.2872    4.4046    4.7137 H   0  0  0  0  0  0  0  0  0  0  0  0
   -2.2451    3.6955    6.0849 H   0  0  0  0  0  0  0  0  0  0  0  0
   -3.1948    2.0506    7.3913 H   0  0  0  0  0  0  0  0  0  0  0  0
    1.8474    0.8217    8.0072 H   0  0  0  0  0  0  0  0  0  0  0  0
    3.1742   -0.1151    7.5592 H   0  0  0  0  0  0  0  0  0  0  0  0
    4.3594    3.2251    8.4084 H   0  0  0  0  0  0  0  0  0  0  0  0
    4.1919    1.6101    9.0775 H   0  0  0  0  0  0  0  0  0  0  0  0
    6.5269    2.4416    7.9029 H   0  0  0  0  0  0  0  0  0  0  0  0
    5.9665    0.8004    7.6488 H   0  0  0  0  0  0  0  0  0  0  0  0
    5.9951    3.0362    5.7176 H   0  0  0  0  0  0  0  0  0  0  0  0
    5.9178    1.3406    5.3714 H   0  0  0  0  0  0  0  0  0  0  0  0
    3.8831    3.3663    5.7832 H   0  0  0  0  0  0  0  0  0  0  0  0
    0.4164   -1.1043    5.0330 H   0  0  0  0  0  0  0  0  0  0  0  0
    2.6113    2.6910    7.2608 H   0  0  0  0  0  0  0  0  0  0  0  0
    2.8648   -4.0345   -1.9521 H   0  0  0  0  0  0  0  0  0  0  0  0
  1  2  1  0
  1 40  1  0
  1 41  1  0
  1 42  1  0
  3  2  1  6
  3  8  1  0
  3 38  1  0
  3  4  1  0
  4  5  2  0
  4  6  1  0
  6  7  1  0
  6 43  1  0
  6 44  1  0
  7  8  1  0
  7 45  1  0
  7 46  1  0
  8  9  1  6
  8 18  1  0
  9 10  1  0
  9 47  1  0
 10 11  1  0
 10 48  1  0
 10 49  1  0
 11 12  1  0
 11 50  1  0
 11 51  1  0
 12 17  1  0
 12 13  2  0
 13 14  1  0
 13 52  1  0
 14 15  2  0
 14 53  1  0
 15 16  1  0
 15 74  1  0
 16 17  2  0
 16 54  1  0
 17 55  1  0
 18 29  1  0
 18 19  1  6
 18 20  1  0
 19 56  1  0
 20 35  1  0
 20 21  1  0
 20 57  1  6
 21 22  1  0
 21 58  1  0
 21 59  1  0
 22 28  2  0
 22 23  1  0
 23 24  2  0
 23 60  1  0
 24 25  1  0
 24 61  1  0
 25 26  1  0
 25 27  2  0
 26 62  1  0
 27 37  1  0
 27 28  1  0
 28 29  1  0
 29 30  1  1
 29 36  1  0
 30 31  1  0
 30 63  1  0
 30 64  1  0
 31 35  1  0
 31 32  1  0
 31 73  1  1
 32 33  1  0
 32 65  1  0
 32 66  1  0
 33 34  1  0
 33 67  1  0
 33 68  1  0
 34 35  1  0
 34 69  1  0
 34 70  1  0
 35 71  1  6
 36 37  1  0
 36 38  1  0
 36 72  1  6
 38 39  2  0
M  CHG  2  15   1  31   1
M  END
>  <i_m_ct_stereo_status>  (212) 
1

>  <s_m_source_file>  (212) 
/var/tmp/pbs.5076255.sched01/tmp5gbx45fw/500pp51iot.sdf

>  <i_m_source_file_index>  (212) 
35

>  <i_lp_mmshare_version>  (212) 
48012

>  <i_f3d_flags>  (212) 
0

>  <s_epik_input>  (212) 
W2NIXTFbY0hdbltjSF1bY0hdYzFbQ0gyXVtDSDJdW05IXVtDQEBdMihbQ0BdMyhbQ0BdNDU2KVtPSF0pW0NAQF0oT1tDSDNdKShDKD1PKVtDSDJdW0NIMl0yKUMoPU8pW0NASF02T2M3YzRjKFtjSF1bY0hdYzdbT0hdKVtDSDJdW0NASF0zW0NASF04TihbQ0gyXTUpW0NIMl1bQ0gyXVtDSDJdOA==

>  <s_epik_cmdline>  (212) 
J2VwaWtfcHl0aG9uJywgJy1waHQnLCAnMi4wJywgJy1waCcsICc3LjAnLCAnLXRuJywgJzgnLCAnLW1hJywgJzIwMCcsICctaW1hZScsICc8aW5maWxlLm1hZT4nLCAnLW9tYWUnLCAnPG91dGZpbGUubWFlPic=

>  <r_epik_Ionization_Penalty>  (212) 
1.19147

>  <r_epik_Ionization_Penalty_Charging>  (212) 
1.14602

>  <r_epik_Ionization_Penalty_Neutral>  (212) 
0.0454558

>  <r_epik_State_Penalty>  (212) 
1.2883

>  <r_epik_Charging_Adjusted_Penalty>  (212) 
2.43432

>  <i_epik_Tot_Q>  (212) 
2

>  <i_epik_Tot_abs_Q>  (212) 
2

>  <s_lp_Force_Field>  (212) 
OPLS3e

>  <r_lp_Energy>  (212) 
119.006

>  <b_lp_Chiralities_Consistent>  (212) 
1

>  <s_lp_Variant>  (212) 
47:0-3

>  <s_i_glide_gridfile>  (212) 
pfpi4k_grid

>  <i_i_glide_lignum>  (212) 
35

>  <i_i_glide_rotatable_bonds>  (212) 
7

>  <r_i_docking_score>  (212) 
-2.39107

>  <r_i_glide_ligand_efficiency>  (212) 
-0.0613096

>  <r_i_glide_ligand_efficiency_sa>  (212) 
-0.207914

>  <r_i_glide_ligand_efficiency_ln>  (212) 
-0.512714

>  <r_i_glide_gscore>  (212) 
-2.39107

>  <r_i_glide_lipo>  (212) 
-0.375745

>  <r_i_glide_hbond>  (212) 
0

>  <r_i_glide_metal>  (212) 
-0

>  <r_i_glide_rewards>  (212) 
0

>  <r_i_glide_evdw>  (212) 
-23.0798

>  <r_i_glide_ecoul>  (212) 
-7.18966

>  <r_i_glide_erotb>  (212) 
0.217387

>  <r_i_glide_esite>  (212) 
-0.000275173

>  <r_i_glide_emodel>  (212) 
-34.4944

>  <r_i_glide_energy>  (212) 
-30.2695

>  <r_i_glide_einternal>  (212) 
3.77164

>  <r_i_glide_intrahb_reward>  (212) 
-0

>  <i_i_glide_confnum>  (212) 
1

>  <i_i_glide_posenum>  (212) 
4

>  <r_i_glide_eff_state_penalty>  (212) 
0

>  <ligand_id>  (212) 
47

>  <original_smiles>  (212) 
COC12C(=O)CCC1(NCCc1ccncc1)C1(O)C3Cc4ccc(O)c5c4C1(CN1CCCC31)C(O5)C2=O

>  <smiles>  (212) 
[H]Oc1c([H])c([H])c2c3c1OC1([H])C(=O)C4(OC([H])([H])[H])C(=O)C([H])([H])C([H])([H])C4(N([H])C([H])([H])C([H])([H])c4c([H])c([H])[n+]([H])c([H])c4[H])C4(O[H])C([H])(C2([H])[H])C2([H])C([H])([H])C([H])([H])C([H])([H])[N+]2([H])C([H])([H])C314

$$$$
47:3:0
     RDKit          3D

 72 79  0  0  1  0  0  0  0  0999 V2000
    2.1205   -5.8053    0.9407 C   0  0  0  0  0  0  0  0  0  0  0  0
    2.4905   -4.4818    1.3257 O   0  0  0  0  0  0  0  0  0  0  0  0
    3.2798   -4.2373    2.5075 C   0  0  1  0  0  0  0  0  0  0  0  0
    4.5557   -5.0954    2.5629 C   0  0  0  0  0  0  0  0  0  0  0  0
    4.6233   -6.3002    2.3375 O   0  0  0  0  0  0  0  0  0  0  0  0
    5.7577   -4.2643    2.9468 C   0  0  0  0  0  0  0  0  0  0  0  0
    5.2003   -2.8542    3.1714 C   0  0  0  0  0  0  0  0  0  0  0  0
    3.8430   -2.7358    2.4142 C   0  0  1  0  0  0  0  0  0  0  0  0
    4.2375   -2.5059    0.9995 N   0  0  0  0  0  0  0  0  0  0  0  0
    4.7116   -1.1875    0.5863 C   0  0  0  0  0  0  0  0  0  0  0  0
    5.6729   -1.3023   -0.5978 C   0  0  0  0  0  0  0  0  0  0  0  0
    5.0094   -1.7530   -1.8850 C   0  0  0  0  0  0  0  0  0  0  0  0
    5.1146   -3.0898   -2.3146 C   0  0  0  0  0  0  0  0  0  0  0  0
    4.4894   -3.4549   -3.5256 C   0  0  0  0  0  0  0  0  0  0  0  0
    3.8146   -2.5832   -4.2992 N   0  0  0  0  0  0  0  0  0  0  0  0
    3.6996   -1.3080   -3.8739 C   0  0  0  0  0  0  0  0  0  0  0  0
    4.2888   -0.8416   -2.6831 C   0  0  0  0  0  0  0  0  0  0  0  0
    2.7754   -1.6301    2.9124 C   0  0  2  0  0  0  0  0  0  0  0  0
    1.8360   -1.5810    1.8448 O   0  0  0  0  0  0  0  0  0  0  0  0
    3.0777   -0.1241    3.2738 C   0  0  1  0  0  0  0  0  0  0  0  0
    1.7339    0.6912    3.3782 C   0  0  0  0  0  0  0  0  0  0  0  0
    0.6162    0.0550    4.2191 C   0  0  0  0  0  0  0  0  0  0  0  0
   -0.5848    0.6103    4.6981 C   0  0  0  0  0  0  0  0  0  0  0  0
   -1.5204   -0.2330    5.3525 C   0  0  0  0  0  0  0  0  0  0  0  0
   -1.2923   -1.6338    5.4821 C   0  0  0  0  0  0  0  0  0  0  0  0
   -2.2193   -2.4255    6.0806 O   0  0  0  0  0  0  0  0  0  0  0  0
   -0.1179   -2.2154    4.9838 C   0  0  0  0  0  0  0  0  0  0  0  0
    0.7747   -1.3158    4.4385 C   0  0  0  0  0  0  0  0  0  0  0  0
    1.9981   -2.1054    4.1478 C   0  0  2  0  0  0  0  0  0  0  0  0
    2.8580   -2.0576    5.4597 C   0  0  0  0  0  0  0  0  0  0  0  0
    3.3857   -0.6995    5.7705 N   0  0  1  0  0  0  0  0  0  0  0  0
    4.4985   -0.6460    6.7469 C   0  0  0  0  0  0  0  0  0  0  0  0
    5.7888   -0.4850    5.9365 C   0  0  0  0  0  0  0  0  0  0  0  0
    5.3641    0.1782    4.6264 C   0  0  0  0  0  0  0  0  0  0  0  0
    3.8324    0.1162    4.6166 C   0  0  1  0  0  0  0  0  0  0  0  0
    1.3229   -3.4425    3.9031 C   0  0  2  0  0  0  0  0  0  0  0  0
    0.3143   -3.5241    4.9230 O   0  0  0  0  0  0  0  0  0  0  0  0
    2.3762   -4.5202    3.7480 C   0  0  0  0  0  0  0  0  0  0  0  0
    2.4763   -5.4776    4.5155 O   0  0  0  0  0  0  0  0  0  0  0  0
    1.3050   -5.7440    0.2194 H   0  0  0  0  0  0  0  0  0  0  0  0
    1.7892   -6.4327    1.7708 H   0  0  0  0  0  0  0  0  0  0  0  0
    2.9529   -6.2864    0.4290 H   0  0  0  0  0  0  0  0  0  0  0  0
    6.2520   -4.6725    3.8276 H   0  0  0  0  0  0  0  0  0  0  0  0
    6.4631   -4.2770    2.1161 H   0  0  0  0  0  0  0  0  0  0  0  0
    5.1323   -2.7122    4.2346 H   0  0  0  0  0  0  0  0  0  0  0  0
    5.9413   -2.1450    2.8223 H   0  0  0  0  0  0  0  0  0  0  0  0
    4.9120   -3.2121    0.7211 H   0  0  0  0  0  0  0  0  0  0  0  0
    3.8675   -0.5561    0.3076 H   0  0  0  0  0  0  0  0  0  0  0  0
    5.2341   -0.6790    1.3936 H   0  0  0  0  0  0  0  0  0  0  0  0
    6.1345   -0.3305   -0.7531 H   0  0  0  0  0  0  0  0  0  0  0  0
    6.4837   -1.9898   -0.3484 H   0  0  0  0  0  0  0  0  0  0  0  0
    5.6477   -3.8292   -1.7380 H   0  0  0  0  0  0  0  0  0  0  0  0
    4.5503   -4.4710   -3.8818 H   0  0  0  0  0  0  0  0  0  0  0  0
    3.1454   -0.6389   -4.5133 H   0  0  0  0  0  0  0  0  0  0  0  0
    4.1920    0.1933   -2.3964 H   0  0  0  0  0  0  0  0  0  0  0  0
    2.2341   -1.1853    1.0822 H   0  0  0  0  0  0  0  0  0  0  0  0
    3.6504    0.3624    2.4885 H   0  0  0  0  0  0  0  0  0  0  0  0
    1.8979    1.7010    3.7492 H   0  0  0  0  0  0  0  0  0  0  0  0
    1.3264    0.8441    2.3769 H   0  0  0  0  0  0  0  0  0  0  0  0
   -0.7977    1.6720    4.5575 H   0  0  0  0  0  0  0  0  0  0  0  0
   -2.4244    0.1927    5.7392 H   0  0  0  0  0  0  0  0  0  0  0  0
    2.2364   -2.3310    6.3122 H   0  0  0  0  0  0  0  0  0  0  0  0
    3.6271   -2.8178    5.5075 H   0  0  0  0  0  0  0  0  0  0  0  0
    4.3611    0.2614    7.3342 H   0  0  0  0  0  0  0  0  0  0  0  0
    4.5318   -1.4818    7.4508 H   0  0  0  0  0  0  0  0  0  0  0  0
    6.5541    0.0863    6.4653 H   0  0  0  0  0  0  0  0  0  0  0  0
    6.2021   -1.4669    5.7352 H   0  0  0  0  0  0  0  0  0  0  0  0
    5.6894    1.2158    4.6143 H   0  0  0  0  0  0  0  0  0  0  0  0
    5.8239   -0.2736    3.7586 H   0  0  0  0  0  0  0  0  0  0  0  0
    3.5690    1.1197    4.9461 H   0  0  0  0  0  0  0  0  0  0  0  0
    0.7663   -3.4380    2.9687 H   0  0  0  0  0  0  0  0  0  0  0  0
    2.5905   -0.2181    6.1828 H   0  0  0  0  0  0  0  0  0  0  0  0
  1  2  1  0
  1 40  1  0
  1 41  1  0
  1 42  1  0
  3  2  1  6
  3  8  1  0
  3 38  1  0
  3  4  1  0
  4  5  2  0
  4  6  1  0
  6  7  1  0
  6 43  1  0
  6 44  1  0
  7  8  1  0
  7 45  1  0
  7 46  1  0
  8  9  1  6
  8 18  1  0
  9 10  1  0
  9 47  1  0
 10 11  1  0
 10 48  1  0
 10 49  1  0
 11 12  1  0
 11 50  1  0
 11 51  1  0
 12 17  1  0
 12 13  2  0
 13 14  1  0
 13 52  1  0
 14 15  2  0
 14 53  1  0
 15 16  1  0
 16 17  2  0
 16 54  1  0
 17 55  1  0
 18 29  1  0
 18 19  1  6
 18 20  1  0
 19 56  1  0
 20 35  1  0
 20 21  1  0
 20 57  1  6
 21 22  1  0
 21 58  1  0
 21 59  1  0
 22 28  2  0
 22 23  1  0
 23 24  2  0
 23 60  1  0
 24 25  1  0
 24 61  1  0
 25 26  1  0
 25 27  2  0
 27 37  1  0
 27 28  1  0
 28 29  1  0
 29 30  1  1
 29 36  1  0
 30 31  1  0
 30 62  1  0
 30 63  1  0
 31 35  1  0
 31 32  1  0
 31 72  1  1
 32 33  1  0
 32 64  1  0
 32 65  1  0
 33 34  1  0
 33 66  1  0
 33 67  1  0
 34 35  1  0
 34 68  1  0
 34 69  1  0
 35 70  1  1
 36 37  1  0
 36 38  1  0
 36 71  1  6
 38 39  2  0
M  CHG  2  26  -1  31   1
M  END
>  <i_m_ct_stereo_status>  (213) 
1

>  <s_m_source_file>  (213) 
/var/tmp/pbs.5076255.sched01/tmp5gbx45fw/500pp51iot.sdf

>  <i_m_source_file_index>  (213) 
36

>  <i_lp_mmshare_version>  (213) 
48012

>  <i_f3d_flags>  (213) 
0

>  <s_epik_input>  (213) 
W2NIXTFbY0hdbltjSF1bY0hdYzFbQ0gyXVtDSDJdW05IXVtDQEBdMihbQ0BdMyhbQ0BdNDU2KVtPSF0pW0NAQF0oT1tDSDNdKShDKD1PKVtDSDJdW0NIMl0yKUMoPU8pW0NASF02T2M3YzRjKFtjSF1bY0hdYzdbT0hdKVtDSDJdW0NASF0zW0NASF04TihbQ0gyXTUpW0NIMl1bQ0gyXVtDSDJdOA==

>  <s_epik_cmdline>  (213) 
J2VwaWtfcHl0aG9uJywgJy1waHQnLCAnMi4wJywgJy1waCcsICc3LjAnLCAnLXRuJywgJzgnLCAnLW1hJywgJzIwMCcsICctaW1hZScsICc8aW5maWxlLm1hZT4nLCAnLW9tYWUnLCAnPG91dGZpbGUubWFlPic=

>  <r_lp_tautomer_probability>  (213) 
0.99995

>  <r_epik_Ionization_Penalty>  (213) 
2.40506

>  <r_epik_Ionization_Penalty_Charging>  (213) 
2.2106

>  <r_epik_Ionization_Penalty_Neutral>  (213) 
0.194459

>  <r_epik_State_Penalty>  (213) 
2.50782

>  <r_epik_Charging_Adjusted_Penalty>  (213) 
4.71843

>  <i_epik_Tot_Q>  (213) 
0

>  <i_epik_Tot_abs_Q>  (213) 
2

>  <s_lp_Force_Field>  (213) 
OPLS3e

>  <r_lp_Energy>  (213) 
108.219

>  <b_lp_Chiralities_Consistent>  (213) 
1

>  <s_lp_Variant>  (213) 
47:0-4

>  <s_i_glide_gridfile>  (213) 
pfpi4k_grid

>  <i_i_glide_lignum>  (213) 
36

>  <i_i_glide_rotatable_bonds>  (213) 
6

>  <r_i_docking_score>  (213) 
-3.09102

>  <r_i_glide_ligand_efficiency>  (213) 
-0.0792568

>  <r_i_glide_ligand_efficiency_sa>  (213) 
-0.268777

>  <r_i_glide_ligand_efficiency_ln>  (213) 
-0.662802

>  <r_i_glide_gscore>  (213) 
-3.09102

>  <r_i_glide_lipo>  (213) 
-0.752629

>  <r_i_glide_hbond>  (213) 
-0.320195

>  <r_i_glide_metal>  (213) 
-0

>  <r_i_glide_rewards>  (213) 
-0.00385856

>  <r_i_glide_evdw>  (213) 
-32.3485

>  <r_i_glide_ecoul>  (213) 
-4.10544

>  <r_i_glide_erotb>  (213) 
0.218908

>  <r_i_glide_esite>  (213) 
0

>  <r_i_glide_emodel>  (213) 
-44.0382

>  <r_i_glide_energy>  (213) 
-36.4539

>  <r_i_glide_einternal>  (213) 
4.69953

>  <r_i_glide_intrahb_reward>  (213) 
-0

>  <i_i_glide_confnum>  (213) 
1

>  <i_i_glide_posenum>  (213) 
9

>  <r_i_glide_eff_state_penalty>  (213) 
0

>  <ligand_id>  (213) 
47

>  <original_smiles>  (213) 
COC12C(=O)CCC1(NCCc1ccncc1)C1(O)C3Cc4ccc(O)c5c4C1(CN1CCCC31)C(O5)C2=O

>  <smiles>  (213) 
[H]OC12C3([H])C([H])([H])c4c([H])c([H])c([O-])c5c4C1(C([H])(O5)C(=O)C1(OC([H])([H])[H])C(=O)C([H])([H])C([H])([H])C12N([H])C([H])([H])C([H])([H])c1c([H])c([H])nc([H])c1[H])C([H])([H])[N+]1([H])C([H])([H])C([H])([H])C([H])([H])C31[H]

$$$$
47:3:1
     RDKit          3D

 72 79  0  0  1  0  0  0  0  0999 V2000
    1.2308    0.0447    9.8920 C   0  0  0  0  0  0  0  0  0  0  0  0
    0.9704   -0.4374    8.5703 O   0  0  0  0  0  0  0  0  0  0  0  0
    1.9686   -0.3348    7.5317 C   0  0  1  0  0  0  0  0  0  0  0  0
    3.2735   -1.0534    7.9014 C   0  0  0  0  0  0  0  0  0  0  0  0
    3.8573   -0.9707    8.9794 O   0  0  0  0  0  0  0  0  0  0  0  0
    3.7789   -1.8980    6.7511 C   0  0  0  0  0  0  0  0  0  0  0  0
    2.7698   -1.6587    5.6200 C   0  0  0  0  0  0  0  0  0  0  0  0
    1.4392   -1.1509    6.2533 C   0  0  1  0  0  0  0  0  0  0  0  0
    0.8014   -2.3875    6.7618 N   0  0  0  0  0  0  0  0  0  0  0  0
    0.1407   -3.3308    5.8554 C   0  0  0  0  0  0  0  0  0  0  0  0
   -0.1835   -4.6500    6.5743 C   0  0  0  0  0  0  0  0  0  0  0  0
   -0.7530   -4.4628    7.9711 C   0  0  0  0  0  0  0  0  0  0  0  0
    0.1127   -4.3005    9.0722 C   0  0  0  0  0  0  0  0  0  0  0  0
   -0.4415   -4.1017   10.3509 C   0  0  0  0  0  0  0  0  0  0  0  0
   -1.7688   -4.0723   10.5721 N   0  0  0  0  0  0  0  0  0  0  0  0
   -2.5915   -4.2596    9.5194 C   0  0  0  0  0  0  0  0  0  0  0  0
   -2.1409   -4.4329    8.1969 C   0  0  0  0  0  0  0  0  0  0  0  0
    0.4114   -0.2935    5.3496 C   0  0  2  0  0  0  0  0  0  0  0  0
   -0.7974   -0.3057    6.1176 O   0  0  0  0  0  0  0  0  0  0  0  0
   -0.0350   -0.6345    3.8782 C   0  0  1  0  0  0  0  0  0  0  0  0
   -1.2736    0.2498    3.4844 C   0  0  0  0  0  0  0  0  0  0  0  0
   -1.1747    1.7508    3.7776 C   0  0  0  0  0  0  0  0  0  0  0  0
   -1.9766    2.8127    3.3309 C   0  0  0  0  0  0  0  0  0  0  0  0
   -1.7321    4.1164    3.8430 C   0  0  0  0  0  0  0  0  0  0  0  0
   -0.7445    4.3678    4.8440 C   0  0  0  0  0  0  0  0  0  0  0  0
   -0.5728    5.6230    5.3433 O   0  0  0  0  0  0  0  0  0  0  0  0
    0.0508    3.3025    5.3183 C   0  0  0  0  0  0  0  0  0  0  0  0
   -0.1921    2.0843    4.7103 C   0  0  0  0  0  0  0  0  0  0  0  0
    0.8611    1.1699    5.2121 C   0  0  2  0  0  0  0  0  0  0  0  0
    2.0803    1.3338    4.2344 C   0  0  0  0  0  0  0  0  0  0  0  0
    1.8090    0.8276    2.8601 N   0  0  1  0  0  0  0  0  0  0  0  0
    2.9988    0.5859    2.0225 C   0  0  0  0  0  0  0  0  0  0  0  0
    3.2977   -0.9196    2.0620 C   0  0  0  0  0  0  0  0  0  0  0  0
    1.9486   -1.5715    2.3621 C   0  0  0  0  0  0  0  0  0  0  0  0
    1.0201   -0.4159    2.7582 C   0  0  1  0  0  0  0  0  0  0  0  0
    1.0633    1.8257    6.5671 C   0  0  2  0  0  0  0  0  0  0  0  0
    1.0327    3.2365    6.2929 O   0  0  0  0  0  0  0  0  0  0  0  0
    2.2392    1.1781    7.2647 C   0  0  0  0  0  0  0  0  0  0  0  0
    3.2592    1.7947    7.5774 O   0  0  0  0  0  0  0  0  0  0  0  0
    0.2819    0.1571   10.4193 H   0  0  0  0  0  0  0  0  0  0  0  0
    1.7335    1.0123    9.9239 H   0  0  0  0  0  0  0  0  0  0  0  0
    1.8231   -0.6769   10.4536 H   0  0  0  0  0  0  0  0  0  0  0  0
    4.7987   -1.6374    6.4701 H   0  0  0  0  0  0  0  0  0  0  0  0
    3.7679   -2.9410    7.0669 H   0  0  0  0  0  0  0  0  0  0  0  0
    3.2247   -0.9761    4.9254 H   0  0  0  0  0  0  0  0  0  0  0  0
    2.6552   -2.5946    5.0851 H   0  0  0  0  0  0  0  0  0  0  0  0
    1.4471   -2.8749    7.3751 H   0  0  0  0  0  0  0  0  0  0  0  0
   -0.7900   -2.8936    5.5000 H   0  0  0  0  0  0  0  0  0  0  0  0
    0.7493   -3.5523    4.9778 H   0  0  0  0  0  0  0  0  0  0  0  0
   -0.8951   -5.2163    5.9752 H   0  0  0  0  0  0  0  0  0  0  0  0
    0.7119   -5.2666    6.6455 H   0  0  0  0  0  0  0  0  0  0  0  0
    1.1840   -4.2936    8.9458 H   0  0  0  0  0  0  0  0  0  0  0  0
    0.1963   -3.9564   11.2096 H   0  0  0  0  0  0  0  0  0  0  0  0
   -3.6472   -4.2554    9.7407 H   0  0  0  0  0  0  0  0  0  0  0  0
   -2.8541   -4.5636    7.3944 H   0  0  0  0  0  0  0  0  0  0  0  0
   -1.4102    0.2794    5.6940 H   0  0  0  0  0  0  0  0  0  0  0  0
   -0.3562   -1.6706    3.7940 H   0  0  0  0  0  0  0  0  0  0  0  0
   -1.5267    0.1423    2.4340 H   0  0  0  0  0  0  0  0  0  0  0  0
   -2.1468   -0.1249    4.0242 H   0  0  0  0  0  0  0  0  0  0  0  0
   -2.7657    2.6435    2.6061 H   0  0  0  0  0  0  0  0  0  0  0  0
   -2.3158    4.9255    3.4570 H   0  0  0  0  0  0  0  0  0  0  0  0
    2.3125    2.3922    4.1203 H   0  0  0  0  0  0  0  0  0  0  0  0
    3.0109    0.9571    4.6396 H   0  0  0  0  0  0  0  0  0  0  0  0
    2.7388    0.8486    0.9978 H   0  0  0  0  0  0  0  0  0  0  0  0
    3.8357    1.2013    2.3216 H   0  0  0  0  0  0  0  0  0  0  0  0
    3.7396   -1.2784    1.1282 H   0  0  0  0  0  0  0  0  0  0  0  0
    4.0086   -1.1462    2.8537 H   0  0  0  0  0  0  0  0  0  0  0  0
    1.5674   -2.0558    1.4632 H   0  0  0  0  0  0  0  0  0  0  0  0
    2.0178   -2.3551    3.1063 H   0  0  0  0  0  0  0  0  0  0  0  0
    0.4747   -0.2491    1.8320 H   0  0  0  0  0  0  0  0  0  0  0  0
    0.2058    1.6451    7.2127 H   0  0  0  0  0  0  0  0  0  0  0  0
    1.2747    1.5692    2.4202 H   0  0  0  0  0  0  0  0  0  0  0  0
  1  2  1  0
  1 40  1  0
  1 41  1  0
  1 42  1  0
  3  2  1  1
  3  8  1  0
  3 38  1  0
  3  4  1  0
  4  5  2  0
  4  6  1  0
  6  7  1  0
  6 43  1  0
  6 44  1  0
  7  8  1  0
  7 45  1  0
  7 46  1  0
  8  9  1  1
  8 18  1  0
  9 10  1  0
  9 47  1  0
 10 11  1  0
 10 48  1  0
 10 49  1  0
 11 12  1  0
 11 50  1  0
 11 51  1  0
 12 17  1  0
 12 13  2  0
 13 14  1  0
 13 52  1  0
 14 15  2  0
 14 53  1  0
 15 16  1  0
 16 17  2  0
 16 54  1  0
 17 55  1  0
 18 29  1  0
 18 19  1  1
 18 20  1  0
 19 56  1  0
 20 35  1  0
 20 21  1  0
 20 57  1  1
 21 22  1  0
 21 58  1  0
 21 59  1  0
 22 28  2  0
 22 23  1  0
 23 24  2  0
 23 60  1  0
 24 25  1  0
 24 61  1  0
 25 26  1  0
 25 27  2  0
 27 37  1  0
 27 28  1  0
 28 29  1  0
 29 30  1  6
 29 36  1  0
 30 31  1  0
 30 62  1  0
 30 63  1  0
 31 35  1  0
 31 32  1  0
 31 72  1  6
 32 33  1  0
 32 64  1  0
 32 65  1  0
 33 34  1  0
 33 66  1  0
 33 67  1  0
 34 35  1  0
 34 68  1  0
 34 69  1  0
 35 70  1  6
 36 37  1  0
 36 38  1  0
 36 71  1  1
 38 39  2  0
M  CHG  2  26  -1  31   1
M  END
>  <i_m_ct_stereo_status>  (214) 
1

>  <s_m_source_file>  (214) 
/var/tmp/pbs.5076255.sched01/tmp5gbx45fw/500pp51iot.sdf

>  <i_m_source_file_index>  (214) 
36

>  <i_lp_mmshare_version>  (214) 
48012

>  <i_f3d_flags>  (214) 
0

>  <s_epik_input>  (214) 
W2NIXTFbY0hdbltjSF1bY0hdYzFbQ0gyXVtDSDJdW05IXVtDQEBdMihbQ0BdMyhbQ0BdNDU2KVtPSF0pW0NAQF0oT1tDSDNdKShDKD1PKVtDSDJdW0NIMl0yKUMoPU8pW0NASF02T2M3YzRjKFtjSF1bY0hdYzdbT0hdKVtDSDJdW0NASF0zW0NASF04TihbQ0gyXTUpW0NIMl1bQ0gyXVtDSDJdOA==

>  <s_epik_cmdline>  (214) 
J2VwaWtfcHl0aG9uJywgJy1waHQnLCAnMi4wJywgJy1waCcsICc3LjAnLCAnLXRuJywgJzgnLCAnLW1hJywgJzIwMCcsICctaW1hZScsICc8aW5maWxlLm1hZT4nLCAnLW9tYWUnLCAnPG91dGZpbGUubWFlPic=

>  <r_lp_tautomer_probability>  (214) 
0.99995

>  <r_epik_Ionization_Penalty>  (214) 
2.40506

>  <r_epik_Ionization_Penalty_Charging>  (214) 
2.2106

>  <r_epik_Ionization_Penalty_Neutral>  (214) 
0.194459

>  <r_epik_State_Penalty>  (214) 
2.50782

>  <r_epik_Charging_Adjusted_Penalty>  (214) 
4.71843

>  <i_epik_Tot_Q>  (214) 
0

>  <i_epik_Tot_abs_Q>  (214) 
2

>  <s_lp_Force_Field>  (214) 
OPLS3e

>  <r_lp_Energy>  (214) 
108.219

>  <b_lp_Chiralities_Consistent>  (214) 
1

>  <s_lp_Variant>  (214) 
47:0-4

>  <s_i_glide_gridfile>  (214) 
pfpi4k_grid

>  <i_i_glide_lignum>  (214) 
36

>  <i_i_glide_rotatable_bonds>  (214) 
6

>  <r_i_docking_score>  (214) 
-2.49852

>  <r_i_glide_ligand_efficiency>  (214) 
-0.0640646

>  <r_i_glide_ligand_efficiency_sa>  (214) 
-0.217256

>  <r_i_glide_ligand_efficiency_ln>  (214) 
-0.535753

>  <r_i_glide_gscore>  (214) 
-2.49852

>  <r_i_glide_lipo>  (214) 
-0.100936

>  <r_i_glide_hbond>  (214) 
0

>  <r_i_glide_metal>  (214) 
-0

>  <r_i_glide_rewards>  (214) 
-0.3

>  <r_i_glide_evdw>  (214) 
-21.7263

>  <r_i_glide_ecoul>  (214) 
-8.11635

>  <r_i_glide_erotb>  (214) 
0.218908

>  <r_i_glide_esite>  (214) 
-0.0127198

>  <r_i_glide_emodel>  (214) 
-35.4475

>  <r_i_glide_energy>  (214) 
-29.8427

>  <r_i_glide_einternal>  (214) 
4.45525

>  <r_i_glide_intrahb_reward>  (214) 
-0

>  <i_i_glide_confnum>  (214) 
1

>  <i_i_glide_posenum>  (214) 
4

>  <r_i_glide_eff_state_penalty>  (214) 
0

>  <ligand_id>  (214) 
47

>  <original_smiles>  (214) 
COC12C(=O)CCC1(NCCc1ccncc1)C1(O)C3Cc4ccc(O)c5c4C1(CN1CCCC31)C(O5)C2=O

>  <smiles>  (214) 
[H]OC12C3([H])C([H])([H])c4c([H])c([H])c([O-])c5c4C1(C([H])(O5)C(=O)C1(OC([H])([H])[H])C(=O)C([H])([H])C([H])([H])C12N([H])C([H])([H])C([H])([H])c1c([H])c([H])nc([H])c1[H])C([H])([H])[N+]1([H])C([H])([H])C([H])([H])C([H])([H])C31[H]

$$$$
47:3:2
     RDKit          3D

 72 79  0  0  1  0  0  0  0  0999 V2000
   -0.6595   -4.4901    7.3601 C   0  0  0  0  0  0  0  0  0  0  0  0
    0.1219   -3.8501    6.3464 O   0  0  0  0  0  0  0  0  0  0  0  0
    1.2356   -2.9918    6.6836 C   0  0  1  0  0  0  0  0  0  0  0  0
    2.2629   -3.6921    7.5850 C   0  0  0  0  0  0  0  0  0  0  0  0
    2.0048   -4.3665    8.5811 O   0  0  0  0  0  0  0  0  0  0  0  0
    3.6751   -3.4420    7.0992 C   0  0  0  0  0  0  0  0  0  0  0  0
    3.5141   -2.5147    5.8834 C   0  0  0  0  0  0  0  0  0  0  0  0
    2.0641   -2.6782    5.3406 C   0  0  1  0  0  0  0  0  0  0  0  0
    2.1305   -3.9388    4.5685 N   0  0  0  0  0  0  0  0  0  0  0  0
    2.7600   -4.0073    3.2471 C   0  0  0  0  0  0  0  0  0  0  0  0
    2.8568   -5.4668    2.7749 C   0  0  0  0  0  0  0  0  0  0  0  0
    1.5163   -6.1838    2.6641 C   0  0  0  0  0  0  0  0  0  0  0  0
    0.7273   -6.4509    3.8064 C   0  0  0  0  0  0  0  0  0  0  0  0
   -0.5087   -7.0942    3.6580 C   0  0  0  0  0  0  0  0  0  0  0  0
   -0.9838   -7.4863    2.4609 N   0  0  0  0  0  0  0  0  0  0  0  0
   -0.1960   -7.2994    1.3795 C   0  0  0  0  0  0  0  0  0  0  0  0
    1.0393   -6.6271    1.4153 C   0  0  0  0  0  0  0  0  0  0  0  0
    1.4042   -1.4926    4.4677 C   0  0  2  0  0  0  0  0  0  0  0  0
    0.2565   -2.1288    3.9101 O   0  0  0  0  0  0  0  0  0  0  0  0
    2.0898   -0.7125    3.2784 C   0  0  1  0  0  0  0  0  0  0  0  0
    1.0174    0.1253    2.4814 C   0  0  0  0  0  0  0  0  0  0  0  0
    0.0507    0.9616    3.3257 C   0  0  0  0  0  0  0  0  0  0  0  0
   -0.8382    1.9864    2.9429 C   0  0  0  0  0  0  0  0  0  0  0  0
   -1.7090    2.5523    3.9145 C   0  0  0  0  0  0  0  0  0  0  0  0
   -1.7449    2.0861    5.2576 C   0  0  0  0  0  0  0  0  0  0  0  0
   -2.5680    2.6648    6.1771 O   0  0  0  0  0  0  0  0  0  0  0  0
   -0.9032    1.0219    5.6485 C   0  0  0  0  0  0  0  0  0  0  0  0
   -0.0265    0.5865    4.6681 C   0  0  0  0  0  0  0  0  0  0  0  0
    0.8999   -0.3469    5.3546 C   0  0  2  0  0  0  0  0  0  0  0  0
    2.0699    0.5259    5.9304 C   0  0  0  0  0  0  0  0  0  0  0  0
    2.9302    1.1270    4.8721 N   0  0  1  0  0  0  0  0  0  0  0  0
    4.2519    1.6185    5.3266 C   0  0  0  0  0  0  0  0  0  0  0  0
    5.2813    0.5452    4.9395 C   0  0  0  0  0  0  0  0  0  0  0  0
    4.6643   -0.1946    3.7457 C   0  0  0  0  0  0  0  0  0  0  0  0
    3.2094    0.2885    3.6807 C   0  0  1  0  0  0  0  0  0  0  0  0
   -0.0768   -0.8415    6.4114 C   0  0  2  0  0  0  0  0  0  0  0  0
   -0.7826    0.3343    6.8462 O   0  0  0  0  0  0  0  0  0  0  0  0
    0.6567   -1.7292    7.3920 C   0  0  0  0  0  0  0  0  0  0  0  0
    0.7248   -1.4812    8.5951 O   0  0  0  0  0  0  0  0  0  0  0  0
   -1.6008   -4.8261    6.9237 H   0  0  0  0  0  0  0  0  0  0  0  0
   -0.9039   -3.8430    8.2030 H   0  0  0  0  0  0  0  0  0  0  0  0
   -0.1538   -5.3794    7.7350 H   0  0  0  0  0  0  0  0  0  0  0  0
    4.3059   -3.0075    7.8744 H   0  0  0  0  0  0  0  0  0  0  0  0
    4.1073   -4.3989    6.8023 H   0  0  0  0  0  0  0  0  0  0  0  0
    3.7680   -1.5175    6.1978 H   0  0  0  0  0  0  0  0  0  0  0  0
    4.2727   -2.7970    5.1593 H   0  0  0  0  0  0  0  0  0  0  0  0
    2.4588   -4.6901    5.1655 H   0  0  0  0  0  0  0  0  0  0  0  0
    2.1673   -3.4562    2.5201 H   0  0  0  0  0  0  0  0  0  0  0  0
    3.7601   -3.5714    3.2538 H   0  0  0  0  0  0  0  0  0  0  0  0
    3.3547   -5.4796    1.8051 H   0  0  0  0  0  0  0  0  0  0  0  0
    3.4940   -6.0383    3.4488 H   0  0  0  0  0  0  0  0  0  0  0  0
    1.0300   -6.1579    4.7984 H   0  0  0  0  0  0  0  0  0  0  0  0
   -1.1328   -7.2661    4.5221 H   0  0  0  0  0  0  0  0  0  0  0  0
   -0.5897   -7.6653    0.4457 H   0  0  0  0  0  0  0  0  0  0  0  0
    1.6072   -6.4816    0.5064 H   0  0  0  0  0  0  0  0  0  0  0  0
   -0.1669   -1.5241    3.3178 H   0  0  0  0  0  0  0  0  0  0  0  0
    2.5353   -1.3995    2.5602 H   0  0  0  0  0  0  0  0  0  0  0  0
    1.4860    0.7677    1.7397 H   0  0  0  0  0  0  0  0  0  0  0  0
    0.4142   -0.5553    1.8818 H   0  0  0  0  0  0  0  0  0  0  0  0
   -0.8403    2.3425    1.9235 H   0  0  0  0  0  0  0  0  0  0  0  0
   -2.3604    3.3568    3.6153 H   0  0  0  0  0  0  0  0  0  0  0  0
    1.6550    1.3639    6.4889 H   0  0  0  0  0  0  0  0  0  0  0  0
    2.6510    0.0188    6.6872 H   0  0  0  0  0  0  0  0  0  0  0  0
    4.4611    2.5155    4.7460 H   0  0  0  0  0  0  0  0  0  0  0  0
    4.2933    1.8962    6.3805 H   0  0  0  0  0  0  0  0  0  0  0  0
    6.2633    0.9587    4.6993 H   0  0  0  0  0  0  0  0  0  0  0  0
    5.4344   -0.1449    5.7698 H   0  0  0  0  0  0  0  0  0  0  0  0
    5.1852    0.0773    2.8253 H   0  0  0  0  0  0  0  0  0  0  0  0
    4.7685   -1.2715    3.8293 H   0  0  0  0  0  0  0  0  0  0  0  0
    3.2614    1.0343    2.8893 H   0  0  0  0  0  0  0  0  0  0  0  0
   -0.8419   -1.4787    5.9656 H   0  0  0  0  0  0  0  0  0  0  0  0
    2.3958    1.9220    4.5433 H   0  0  0  0  0  0  0  0  0  0  0  0
  1  2  1  0
  1 40  1  0
  1 41  1  0
  1 42  1  0
  3  2  1  6
  3  8  1  0
  3 38  1  0
  3  4  1  0
  4  5  2  0
  4  6  1  0
  6  7  1  0
  6 43  1  0
  6 44  1  0
  7  8  1  0
  7 45  1  0
  7 46  1  0
  8  9  1  6
  8 18  1  0
  9 10  1  0
  9 47  1  0
 10 11  1  0
 10 48  1  0
 10 49  1  0
 11 12  1  0
 11 50  1  0
 11 51  1  0
 12 17  1  0
 12 13  2  0
 13 14  1  0
 13 52  1  0
 14 15  2  0
 14 53  1  0
 15 16  1  0
 16 17  2  0
 16 54  1  0
 17 55  1  0
 18 29  1  0
 18 19  1  6
 18 20  1  0
 19 56  1  0
 20 35  1  0
 20 21  1  0
 20 57  1  6
 21 22  1  0
 21 58  1  0
 21 59  1  0
 22 28  2  0
 22 23  1  0
 23 24  2  0
 23 60  1  0
 24 25  1  0
 24 61  1  0
 25 26  1  0
 25 27  2  0
 27 37  1  0
 27 28  1  0
 28 29  1  0
 29 30  1  1
 29 36  1  0
 30 31  1  0
 30 62  1  0
 30 63  1  0
 31 35  1  0
 31 32  1  0
 31 72  1  6
 32 33  1  0
 32 64  1  0
 32 65  1  0
 33 34  1  0
 33 66  1  0
 33 67  1  0
 34 35  1  0
 34 68  1  0
 34 69  1  0
 35 70  1  6
 36 37  1  0
 36 38  1  0
 36 71  1  6
 38 39  2  0
M  CHG  2  26  -1  31   1
M  END
>  <i_m_ct_stereo_status>  (215) 
1

>  <s_m_source_file>  (215) 
/var/tmp/pbs.5076255.sched01/tmp5gbx45fw/500pp51iot.sdf

>  <i_m_source_file_index>  (215) 
36

>  <i_lp_mmshare_version>  (215) 
48012

>  <i_f3d_flags>  (215) 
0

>  <s_epik_input>  (215) 
W2NIXTFbY0hdbltjSF1bY0hdYzFbQ0gyXVtDSDJdW05IXVtDQEBdMihbQ0BdMyhbQ0BdNDU2KVtPSF0pW0NAQF0oT1tDSDNdKShDKD1PKVtDSDJdW0NIMl0yKUMoPU8pW0NASF02T2M3YzRjKFtjSF1bY0hdYzdbT0hdKVtDSDJdW0NASF0zW0NASF04TihbQ0gyXTUpW0NIMl1bQ0gyXVtDSDJdOA==

>  <s_epik_cmdline>  (215) 
J2VwaWtfcHl0aG9uJywgJy1waHQnLCAnMi4wJywgJy1waCcsICc3LjAnLCAnLXRuJywgJzgnLCAnLW1hJywgJzIwMCcsICctaW1hZScsICc8aW5maWxlLm1hZT4nLCAnLW9tYWUnLCAnPG91dGZpbGUubWFlPic=

>  <r_lp_tautomer_probability>  (215) 
0.99995

>  <r_epik_Ionization_Penalty>  (215) 
2.40506

>  <r_epik_Ionization_Penalty_Charging>  (215) 
2.2106

>  <r_epik_Ionization_Penalty_Neutral>  (215) 
0.194459

>  <r_epik_State_Penalty>  (215) 
2.50782

>  <r_epik_Charging_Adjusted_Penalty>  (215) 
4.71843

>  <i_epik_Tot_Q>  (215) 
0

>  <i_epik_Tot_abs_Q>  (215) 
2

>  <s_lp_Force_Field>  (215) 
OPLS3e

>  <r_lp_Energy>  (215) 
108.219

>  <b_lp_Chiralities_Consistent>  (215) 
1

>  <s_lp_Variant>  (215) 
47:0-4

>  <s_i_glide_gridfile>  (215) 
pfpi4k_grid

>  <i_i_glide_lignum>  (215) 
36

>  <i_i_glide_rotatable_bonds>  (215) 
6

>  <r_i_docking_score>  (215) 
-2.13294

>  <r_i_glide_ligand_efficiency>  (215) 
-0.0546909

>  <r_i_glide_ligand_efficiency_sa>  (215) 
-0.185468

>  <r_i_glide_ligand_efficiency_ln>  (215) 
-0.457364

>  <r_i_glide_gscore>  (215) 
-2.13294

>  <r_i_glide_lipo>  (215) 
-0.155793

>  <r_i_glide_hbond>  (215) 
-0.0896891

>  <r_i_glide_metal>  (215) 
-0

>  <r_i_glide_rewards>  (215) 
0

>  <r_i_glide_evdw>  (215) 
-28.3128

>  <r_i_glide_ecoul>  (215) 
-4.42015

>  <r_i_glide_erotb>  (215) 
0.218908

>  <r_i_glide_esite>  (215) 
-0.0277073

>  <r_i_glide_emodel>  (215) 
-37.9101

>  <r_i_glide_energy>  (215) 
-32.7329

>  <r_i_glide_einternal>  (215) 
2.74274

>  <r_i_glide_intrahb_reward>  (215) 
-0

>  <i_i_glide_confnum>  (215) 
2

>  <i_i_glide_posenum>  (215) 
2

>  <r_i_glide_eff_state_penalty>  (215) 
0

>  <ligand_id>  (215) 
47

>  <original_smiles>  (215) 
COC12C(=O)CCC1(NCCc1ccncc1)C1(O)C3Cc4ccc(O)c5c4C1(CN1CCCC31)C(O5)C2=O

>  <smiles>  (215) 
[H]OC12C3([H])C([H])([H])c4c([H])c([H])c([O-])c5c4C1(C([H])(O5)C(=O)C1(OC([H])([H])[H])C(=O)C([H])([H])C([H])([H])C12N([H])C([H])([H])C([H])([H])c1c([H])c([H])nc([H])c1[H])C([H])([H])[N+]1([H])C([H])([H])C([H])([H])C([H])([H])C31[H]

$$$$
48:0:0
     RDKit          3D

 67 72  0  0  1  0  0  0  0  0999 V2000
    3.1062   -0.9590   -2.9880 C   0  0  0  0  0  0  0  0  0  0  0  0
    3.2659   -2.4571   -2.6025 C   0  0  0  0  0  0  0  0  0  0  0  0
    1.9880   -3.1107   -3.1592 C   0  0  0  0  0  0  0  0  0  0  0  0
    4.4636   -3.0744   -3.3568 C   0  0  0  0  0  0  0  0  0  0  0  0
    5.7610   -3.0916   -2.5543 C   0  0  0  0  0  0  0  0  0  0  0  0
    5.8942   -1.9444   -1.5496 C   0  0  2  0  0  0  0  0  0  0  0  0
    7.0352   -2.1830   -0.7476 O   0  0  0  0  0  0  0  0  0  0  0  0
    6.7524   -1.7012    0.5486 C   0  0  0  0  0  0  0  0  0  0  0  0
    5.2652   -2.0147    0.8255 C   0  0  2  0  0  0  0  0  0  0  0  0
    4.7993   -0.9746    1.9354 C   0  0  0  0  0  0  0  0  0  0  0  0
    3.3285   -0.9173    2.3751 C   0  0  0  0  0  0  0  0  0  0  0  0
    2.4933    0.1516    1.6870 C   0  0  0  0  0  0  0  0  0  0  0  0
    1.1034   -0.1548    1.6809 O   0  0  0  0  0  0  0  0  0  0  0  0
    2.7712   -1.7188    3.3184 C   0  0  0  0  0  0  0  0  0  0  0  0
    3.4390   -2.8246    4.0992 C   0  0  1  0  0  0  0  0  0  0  0  0
    3.1585   -2.6810    5.4717 O   0  0  0  0  0  0  0  0  0  0  0  0
    3.0146   -4.2389    3.6459 C   0  0  2  0  0  0  0  0  0  0  0  0
    3.9755   -5.3703    3.3706 C   0  0  2  0  0  0  0  0  0  0  0  0
    3.7117   -6.6724    4.1132 C   0  0  0  0  0  0  0  0  0  0  0  0
    5.4549   -5.2696    3.1522 C   0  0  0  0  0  0  0  0  0  0  0  0
    5.8960   -4.0020    2.4171 C   0  0  0  0  0  0  0  0  0  0  0  0
    5.0916   -3.5294    1.1885 C   0  0  1  0  0  0  0  0  0  0  0  0
    3.5906   -3.9053    1.1116 C   0  0  1  0  0  0  0  0  0  0  0  0
    3.3219   -4.0429   -0.4116 C   0  0  1  0  0  0  0  0  0  0  0  0
    2.0521   -4.5695   -0.6989 O   0  0  0  0  0  0  0  0  0  0  0  0
    3.4386   -2.5962   -1.0428 C   0  0  1  0  0  0  0  0  0  0  0  0
    4.6991   -1.7820   -0.5912 C   0  0  2  0  0  0  0  0  0  0  0  0
    3.0973   -4.8732    2.2345 C   0  0  2  0  0  0  0  0  0  0  0  0
    1.8921   -5.7252    1.8646 C   0  0  0  0  0  0  0  0  0  0  0  0
    2.8394   -0.8272   -4.0404 H   0  0  0  0  0  0  0  0  0  0  0  0
    4.0054   -0.3720   -2.8338 H   0  0  0  0  0  0  0  0  0  0  0  0
    2.3134   -0.4807   -2.4052 H   0  0  0  0  0  0  0  0  0  0  0  0
    2.0771   -4.1943   -3.1789 H   0  0  0  0  0  0  0  0  0  0  0  0
    1.7827   -2.8281   -4.1999 H   0  0  0  0  0  0  0  0  0  0  0  0
    1.1055   -2.8784   -2.5533 H   0  0  0  0  0  0  0  0  0  0  0  0
    4.2442   -4.0918   -3.6942 H   0  0  0  0  0  0  0  0  0  0  0  0
    4.6155   -2.4903   -4.2527 H   0  0  0  0  0  0  0  0  0  0  0  0
    5.8322   -4.0246   -2.0139 H   0  0  0  0  0  0  0  0  0  0  0  0
    6.6111   -3.0927   -3.2338 H   0  0  0  0  0  0  0  0  0  0  0  0
    6.0354   -1.0052   -2.0701 H   0  0  0  0  0  0  0  0  0  0  0  0
    7.4493   -2.1264    1.2687 H   0  0  0  0  0  0  0  0  0  0  0  0
    6.9257   -0.6258    0.5188 H   0  0  0  0  0  0  0  0  0  0  0  0
    5.4058   -1.0863    2.8294 H   0  0  0  0  0  0  0  0  0  0  0  0
    5.0492    0.0350    1.6039 H   0  0  0  0  0  0  0  0  0  0  0  0
    2.6371    1.1136    2.1731 H   0  0  0  0  0  0  0  0  0  0  0  0
    2.7784    0.2477    0.6451 H   0  0  0  0  0  0  0  0  0  0  0  0
    0.8987   -0.4370    0.7773 H   0  0  0  0  0  0  0  0  0  0  0  0
    1.7306   -1.5874    3.5636 H   0  0  0  0  0  0  0  0  0  0  0  0
    4.4899   -2.6841    4.0833 H   0  0  0  0  0  0  0  0  0  0  0  0
    2.2251   -2.7703    5.6081 H   0  0  0  0  0  0  0  0  0  0  0  0
    2.1051   -4.5235    4.1588 H   0  0  0  0  0  0  0  0  0  0  0  0
    3.9731   -7.5292    3.4869 H   0  0  0  0  0  0  0  0  0  0  0  0
    2.6679   -6.7597    4.4015 H   0  0  0  0  0  0  0  0  0  0  0  0
    4.2933   -6.7175    5.0384 H   0  0  0  0  0  0  0  0  0  0  0  0
    5.9730   -5.3202    4.1120 H   0  0  0  0  0  0  0  0  0  0  0  0
    5.7811   -6.1503    2.5873 H   0  0  0  0  0  0  0  0  0  0  0  0
    6.0347   -3.1615    3.0844 H   0  0  0  0  0  0  0  0  0  0  0  0
    6.9065   -4.2131    2.0807 H   0  0  0  0  0  0  0  0  0  0  0  0
    5.6112   -4.0902    0.3977 H   0  0  0  0  0  0  0  0  0  0  0  0
    2.9515   -3.0598    1.3020 H   0  0  0  0  0  0  0  0  0  0  0  0
    4.0432   -4.7345   -0.8621 H   0  0  0  0  0  0  0  0  0  0  0  0
    2.1910   -5.0932   -1.4828 H   0  0  0  0  0  0  0  0  0  0  0  0
    2.6231   -2.0506   -0.5917 H   0  0  0  0  0  0  0  0  0  0  0  0
    4.4466   -0.7234   -0.6346 H   0  0  0  0  0  0  0  0  0  0  0  0
    2.1529   -6.4629    1.1076 H   0  0  0  0  0  0  0  0  0  0  0  0
    1.0844   -5.0908    1.5311 H   0  0  0  0  0  0  0  0  0  0  0  0
    1.4871   -6.2504    2.7250 H   0  0  0  0  0  0  0  0  0  0  0  0
  1  2  1  0
  1 30  1  0
  1 31  1  0
  1 32  1  0
  2 26  1  0
  2  3  1  0
  2  4  1  0
  3 33  1  0
  3 34  1  0
  3 35  1  0
  4  5  1  0
  4 36  1  0
  4 37  1  0
  5  6  1  0
  5 38  1  0
  5 39  1  0
  6 27  1  0
  6  7  1  0
  6 40  1  6
  7  8  1  0
  9  8  1  6
  8 41  1  0
  8 42  1  0
  9 22  1  0
  9 27  1  0
  9 10  1  0
 10 11  1  0
 10 43  1  0
 10 44  1  0
 11 12  1  0
 11 14  2  3
 12 13  1  0
 12 45  1  0
 12 46  1  0
 13 47  1  0
 14 15  1  0
 14 48  1  0
 15 16  1  0
 15 17  1  0
 15 49  1  1
 16 50  1  0
 17 28  1  0
 17 18  1  0
 17 51  1  1
 18 28  1  0
 18 19  1  1
 18 20  1  0
 19 52  1  0
 19 53  1  0
 19 54  1  0
 20 21  1  0
 20 55  1  0
 20 56  1  0
 21 22  1  0
 21 57  1  0
 21 58  1  0
 22 23  1  0
 22 59  1  6
 23 24  1  0
 23 28  1  0
 23 60  1  1
 24 25  1  0
 24 26  1  0
 24 61  1  6
 25 62  1  0
 26 27  1  0
 26 63  1  1
 27 64  1  1
 28 29  1  6
 29 65  1  0
 29 66  1  0
 29 67  1  0
M  END
>  <i_m_ct_stereo_status>  (216) 
1

>  <s_m_source_file>  (216) 
/var/tmp/pbs.5076255.sched01/tmp5gbx45fw/500pp51iot.sdf

>  <i_m_source_file_index>  (216) 
37

>  <i_lp_mmshare_version>  (216) 
48012

>  <i_f3d_flags>  (216) 
0

>  <s_epik_input>  (216) 
W0NIM11DMShbQ0gzXSlbQ0gyXVtDSDJdW0NASF0oT1tDSDJdMilbQ0BIXTNbQ0BASF0xW0NASF0oW09IXSlbQ0BIXShbQ0BIXTRbQ0BAXTIzNSlbQ0BdNihbQ0gzXSlbQ0BASF0oW0NAXTYoW0NIM10pW0NIMl1bQ0gyXTQpW0NASF0oW09IXSkvW0NIXT1DKFxbQ0gyXTUpW0NIMl1bT0hd

>  <s_epik_cmdline>  (216) 
J2VwaWtfcHl0aG9uJywgJy1waHQnLCAnMi4wJywgJy1waCcsICc3LjAnLCAnLXRuJywgJzgnLCAnLW1hJywgJzIwMCcsICctaW1hZScsICc8aW5maWxlLm1hZT4nLCAnLW9tYWUnLCAnPG91dGZpbGUubWFlPic=

>  <r_lp_tautomer_probability>  (216) 
1

>  <r_epik_Ionization_Penalty>  (216) 
1.78589e-06

>  <r_epik_Ionization_Penalty_Charging>  (216) 
0

>  <r_epik_Ionization_Penalty_Neutral>  (216) 
1.78589e-06

>  <r_epik_State_Penalty>  (216) 
-0

>  <r_epik_Charging_Adjusted_Penalty>  (216) 
0

>  <i_epik_Tot_Q>  (216) 
0

>  <i_epik_Tot_abs_Q>  (216) 
0

>  <s_lp_Force_Field>  (216) 
OPLS3e

>  <r_lp_Energy>  (216) 
91.008

>  <b_lp_Chiralities_Consistent>  (216) 
1

>  <s_lp_Variant>  (216) 
48:0-1

>  <s_i_glide_gridfile>  (216) 
pfpi4k_grid

>  <i_i_glide_lignum>  (216) 
37

>  <i_i_glide_rotatable_bonds>  (216) 
4

>  <r_i_docking_score>  (216) 
-4.45435

>  <r_i_glide_ligand_efficiency>  (216) 
-0.153598

>  <r_i_glide_ligand_efficiency_sa>  (216) 
-0.471903

>  <r_i_glide_ligand_efficiency_ln>  (216) 
-1.01993

>  <r_i_glide_gscore>  (216) 
-4.45435

>  <r_i_glide_lipo>  (216) 
-0.772331

>  <r_i_glide_hbond>  (216) 
-0.608

>  <r_i_glide_metal>  (216) 
-0

>  <r_i_glide_rewards>  (216) 
-0.664317

>  <r_i_glide_evdw>  (216) 
-19.9393

>  <r_i_glide_ecoul>  (216) 
-10.2256

>  <r_i_glide_erotb>  (216) 
0.121097

>  <r_i_glide_esite>  (216) 
0

>  <r_i_glide_emodel>  (216) 
-36.5224

>  <r_i_glide_energy>  (216) 
-30.1649

>  <r_i_glide_einternal>  (216) 
3.91739

>  <r_i_glide_intrahb_reward>  (216) 
-0

>  <i_i_glide_confnum>  (216) 
3

>  <i_i_glide_posenum>  (216) 
7

>  <r_i_glide_eff_state_penalty>  (216) 
0

>  <ligand_id>  (216) 
48

>  <original_smiles>  (216) 
CC1(C)CCC2OCC34CC(CO)=CC(O)C5C6(C)CCC3C(C(O)C1C24)C56C

>  <smiles>  (216) 
[H]OC([H])([H])C1=C([H])C([H])(O[H])C2([H])C3(C([H])([H])[H])C([H])([H])C([H])([H])C4([H])C([H])(C([H])(O[H])C5([H])C6([H])C([H])(OC([H])([H])C46C1([H])[H])C([H])([H])C([H])([H])C5(C([H])([H])[H])C([H])([H])[H])C23C([H])([H])[H]

$$$$
48:0:1
     RDKit          3D

 67 72  0  0  1  0  0  0  0  0999 V2000
    3.0901   -0.9099   -2.9283 C   0  0  0  0  0  0  0  0  0  0  0  0
    3.2412   -2.4179   -2.5766 C   0  0  0  0  0  0  0  0  0  0  0  0
    1.9597   -3.0623   -3.1377 C   0  0  0  0  0  0  0  0  0  0  0  0
    4.4426   -3.0185   -3.3538 C   0  0  0  0  0  0  0  0  0  0  0  0
    5.7535   -3.0621   -2.5552 C   0  0  0  0  0  0  0  0  0  0  0  0
    5.8898   -1.9389   -1.5226 C   0  0  2  0  0  0  0  0  0  0  0  0
    7.0345   -2.1976   -0.7326 O   0  0  0  0  0  0  0  0  0  0  0  0
    6.7637   -1.7417    0.5740 C   0  0  0  0  0  0  0  0  0  0  0  0
    5.2781   -2.0587    0.8595 C   0  0  2  0  0  0  0  0  0  0  0  0
    4.8181   -1.0440    1.9901 C   0  0  0  0  0  0  0  0  0  0  0  0
    3.3459   -0.9885    2.4279 C   0  0  0  0  0  0  0  0  0  0  0  0
    2.5005    0.0971    1.7682 C   0  0  0  0  0  0  0  0  0  0  0  0
    1.1382   -0.2586    1.6801 O   0  0  0  0  0  0  0  0  0  0  0  0
    2.7967   -1.8041    3.3654 C   0  0  0  0  0  0  0  0  0  0  0  0
    3.4674   -2.9416    4.1084 C   0  0  1  0  0  0  0  0  0  0  0  0
    3.1715   -2.8145    5.4788 O   0  0  0  0  0  0  0  0  0  0  0  0
    3.0233   -4.3415    3.6390 C   0  0  2  0  0  0  0  0  0  0  0  0
    3.9784   -5.4711    3.3351 C   0  0  2  0  0  0  0  0  0  0  0  0
    3.7080   -6.7901    4.0475 C   0  0  0  0  0  0  0  0  0  0  0  0
    5.4696   -5.3592    3.1111 C   0  0  0  0  0  0  0  0  0  0  0  0
    5.9299   -4.0815    2.3999 C   0  0  0  0  0  0  0  0  0  0  0  0
    5.1035   -3.5728    1.1990 C   0  0  1  0  0  0  0  0  0  0  0  0
    3.5957   -3.9538    1.1169 C   0  0  1  0  0  0  0  0  0  0  0  0
    3.3162   -4.0537   -0.4113 C   0  0  1  0  0  0  0  0  0  0  0  0
    2.0438   -4.5773   -0.7008 O   0  0  0  0  0  0  0  0  0  0  0  0
    3.4264   -2.5936   -1.0177 C   0  0  1  0  0  0  0  0  0  0  0  0
    4.6993   -1.7983   -0.5496 C   0  0  2  0  0  0  0  0  0  0  0  0
    3.0937   -4.9440    2.2169 C   0  0  2  0  0  0  0  0  0  0  0  0
    1.8768   -5.7854    1.8310 C   0  0  0  0  0  0  0  0  0  0  0  0
    2.8235   -0.7556   -3.9742 H   0  0  0  0  0  0  0  0  0  0  0  0
    3.9939   -0.3305   -2.7606 H   0  0  0  0  0  0  0  0  0  0  0  0
    2.2963   -0.4448   -2.3467 H   0  0  0  0  0  0  0  0  0  0  0  0
    2.0512   -4.1428   -3.1764 H   0  0  0  0  0  0  0  0  0  0  0  0
    1.7486   -2.7593   -4.1667 H   0  0  0  0  0  0  0  0  0  0  0  0
    1.0871   -2.8418   -2.5190 H   0  0  0  0  0  0  0  0  0  0  0  0
    4.2207   -4.0354   -3.6987 H   0  0  0  0  0  0  0  0  0  0  0  0
    4.5992   -2.4239   -4.2454 H   0  0  0  0  0  0  0  0  0  0  0  0
    5.8110   -4.0115   -2.0352 H   0  0  0  0  0  0  0  0  0  0  0  0
    6.6097   -3.0585   -3.2289 H   0  0  0  0  0  0  0  0  0  0  0  0
    6.0331   -0.9880   -2.0265 H   0  0  0  0  0  0  0  0  0  0  0  0
    7.4558   -2.1980    1.2707 H   0  0  0  0  0  0  0  0  0  0  0  0
    6.9451   -0.6671    0.5767 H   0  0  0  0  0  0  0  0  0  0  0  0
    5.4273   -1.1867    2.8801 H   0  0  0  0  0  0  0  0  0  0  0  0
    5.0723   -0.0270    1.6873 H   0  0  0  0  0  0  0  0  0  0  0  0
    2.5936    1.0241    2.3392 H   0  0  0  0  0  0  0  0  0  0  0  0
    2.8475    0.2973    0.7578 H   0  0  0  0  0  0  0  0  0  0  0  0
    0.9786   -0.5278    0.7609 H   0  0  0  0  0  0  0  0  0  0  0  0
    1.7554   -1.6752    3.6132 H   0  0  0  0  0  0  0  0  0  0  0  0
    4.5279   -2.8220    4.0520 H   0  0  0  0  0  0  0  0  0  0  0  0
    3.7338   -3.4173    5.9660 H   0  0  0  0  0  0  0  0  0  0  0  0
    2.1104   -4.6227    4.1548 H   0  0  0  0  0  0  0  0  0  0  0  0
    3.9647   -7.6320    3.4014 H   0  0  0  0  0  0  0  0  0  0  0  0
    2.6616   -6.8832    4.3348 H   0  0  0  0  0  0  0  0  0  0  0  0
    4.2880   -6.8625    4.9695 H   0  0  0  0  0  0  0  0  0  0  0  0
    5.9863   -5.4476    4.0695 H   0  0  0  0  0  0  0  0  0  0  0  0
    5.7754   -6.2340    2.5271 H   0  0  0  0  0  0  0  0  0  0  0  0
    6.1810   -3.2755    3.0852 H   0  0  0  0  0  0  0  0  0  0  0  0
    6.9125   -4.3289    2.0182 H   0  0  0  0  0  0  0  0  0  0  0  0
    5.6025   -4.1188    0.3867 H   0  0  0  0  0  0  0  0  0  0  0  0
    2.9565   -3.1123    1.3214 H   0  0  0  0  0  0  0  0  0  0  0  0
    4.0237   -4.7370   -0.8841 H   0  0  0  0  0  0  0  0  0  0  0  0
    2.1586   -5.0669   -1.5079 H   0  0  0  0  0  0  0  0  0  0  0  0
    2.6099   -2.0508   -0.5460 H   0  0  0  0  0  0  0  0  0  0  0  0
    4.4459   -0.7388   -0.5749 H   0  0  0  0  0  0  0  0  0  0  0  0
    2.1295   -6.5088    1.0581 H   0  0  0  0  0  0  0  0  0  0  0  0
    1.0667   -5.1454    1.5116 H   0  0  0  0  0  0  0  0  0  0  0  0
    1.4675   -6.3259    2.6808 H   0  0  0  0  0  0  0  0  0  0  0  0
  1  2  1  0
  1 30  1  0
  1 31  1  0
  1 32  1  0
  2 26  1  0
  2  3  1  0
  2  4  1  0
  3 33  1  0
  3 34  1  0
  3 35  1  0
  4  5  1  0
  4 36  1  0
  4 37  1  0
  5  6  1  0
  5 38  1  0
  5 39  1  0
  6 27  1  0
  6  7  1  0
  6 40  1  6
  7  8  1  0
  9  8  1  6
  8 41  1  0
  8 42  1  0
  9 22  1  0
  9 27  1  0
  9 10  1  0
 10 11  1  0
 10 43  1  0
 10 44  1  0
 11 12  1  0
 11 14  2  3
 12 13  1  0
 12 45  1  0
 12 46  1  0
 13 47  1  0
 14 15  1  0
 14 48  1  0
 15 16  1  0
 15 17  1  0
 15 49  1  1
 16 50  1  0
 17 28  1  0
 17 18  1  0
 17 51  1  1
 18 28  1  0
 18 19  1  1
 18 20  1  0
 19 52  1  0
 19 53  1  0
 19 54  1  0
 20 21  1  0
 20 55  1  0
 20 56  1  0
 21 22  1  0
 21 57  1  0
 21 58  1  0
 22 23  1  0
 22 59  1  6
 23 24  1  0
 23 28  1  0
 23 60  1  1
 24 25  1  0
 24 26  1  0
 24 61  1  6
 25 62  1  0
 26 27  1  0
 26 63  1  1
 27 64  1  1
 28 29  1  6
 29 65  1  0
 29 66  1  0
 29 67  1  0
M  END
>  <i_m_ct_stereo_status>  (217) 
1

>  <s_m_source_file>  (217) 
/var/tmp/pbs.5076255.sched01/tmp5gbx45fw/500pp51iot.sdf

>  <i_m_source_file_index>  (217) 
37

>  <i_lp_mmshare_version>  (217) 
48012

>  <i_f3d_flags>  (217) 
0

>  <s_epik_input>  (217) 
W0NIM11DMShbQ0gzXSlbQ0gyXVtDSDJdW0NASF0oT1tDSDJdMilbQ0BIXTNbQ0BASF0xW0NASF0oW09IXSlbQ0BIXShbQ0BIXTRbQ0BAXTIzNSlbQ0BdNihbQ0gzXSlbQ0BASF0oW0NAXTYoW0NIM10pW0NIMl1bQ0gyXTQpW0NASF0oW09IXSkvW0NIXT1DKFxbQ0gyXTUpW0NIMl1bT0hd

>  <s_epik_cmdline>  (217) 
J2VwaWtfcHl0aG9uJywgJy1waHQnLCAnMi4wJywgJy1waCcsICc3LjAnLCAnLXRuJywgJzgnLCAnLW1hJywgJzIwMCcsICctaW1hZScsICc8aW5maWxlLm1hZT4nLCAnLW9tYWUnLCAnPG91dGZpbGUubWFlPic=

>  <r_lp_tautomer_probability>  (217) 
1

>  <r_epik_Ionization_Penalty>  (217) 
1.78589e-06

>  <r_epik_Ionization_Penalty_Charging>  (217) 
0

>  <r_epik_Ionization_Penalty_Neutral>  (217) 
1.78589e-06

>  <r_epik_State_Penalty>  (217) 
-0

>  <r_epik_Charging_Adjusted_Penalty>  (217) 
0

>  <i_epik_Tot_Q>  (217) 
0

>  <i_epik_Tot_abs_Q>  (217) 
0

>  <s_lp_Force_Field>  (217) 
OPLS3e

>  <r_lp_Energy>  (217) 
91.008

>  <b_lp_Chiralities_Consistent>  (217) 
1

>  <s_lp_Variant>  (217) 
48:0-1

>  <s_i_glide_gridfile>  (217) 
pfpi4k_grid

>  <i_i_glide_lignum>  (217) 
37

>  <i_i_glide_rotatable_bonds>  (217) 
4

>  <r_i_docking_score>  (217) 
-4.39649

>  <r_i_glide_ligand_efficiency>  (217) 
-0.151603

>  <r_i_glide_ligand_efficiency_sa>  (217) 
-0.465773

>  <r_i_glide_ligand_efficiency_ln>  (217) 
-1.00668

>  <r_i_glide_gscore>  (217) 
-4.39649

>  <r_i_glide_lipo>  (217) 
-0.74403

>  <r_i_glide_hbond>  (217) 
-0.608

>  <r_i_glide_metal>  (217) 
-0

>  <r_i_glide_rewards>  (217) 
-0.664317

>  <r_i_glide_evdw>  (217) 
-19.3496

>  <r_i_glide_ecoul>  (217) 
-10.2251

>  <r_i_glide_erotb>  (217) 
0.121097

>  <r_i_glide_esite>  (217) 
0

>  <r_i_glide_emodel>  (217) 
-35.6467

>  <r_i_glide_energy>  (217) 
-29.5747

>  <r_i_glide_einternal>  (217) 
4.32081

>  <r_i_glide_intrahb_reward>  (217) 
-0

>  <i_i_glide_confnum>  (217) 
6

>  <i_i_glide_posenum>  (217) 
29

>  <r_i_glide_eff_state_penalty>  (217) 
0

>  <ligand_id>  (217) 
48

>  <original_smiles>  (217) 
CC1(C)CCC2OCC34CC(CO)=CC(O)C5C6(C)CCC3C(C(O)C1C24)C56C

>  <smiles>  (217) 
[H]OC([H])([H])C1=C([H])C([H])(O[H])C2([H])C3(C([H])([H])[H])C([H])([H])C([H])([H])C4([H])C([H])(C([H])(O[H])C5([H])C6([H])C([H])(OC([H])([H])C46C1([H])[H])C([H])([H])C([H])([H])C5(C([H])([H])[H])C([H])([H])[H])C23C([H])([H])[H]

$$$$
48:0:2
     RDKit          3D

 67 72  0  0  1  0  0  0  0  0999 V2000
    3.1339   -0.9306   -2.9263 C   0  0  0  0  0  0  0  0  0  0  0  0
    3.2615   -2.4391   -2.5739 C   0  0  0  0  0  0  0  0  0  0  0  0
    1.9718   -3.0700   -3.1406 C   0  0  0  0  0  0  0  0  0  0  0  0
    4.4575   -3.0523   -3.3435 C   0  0  0  0  0  0  0  0  0  0  0  0
    5.7583   -3.1223   -2.5402 C   0  0  0  0  0  0  0  0  0  0  0  0
    5.9126   -1.9950   -1.5179 C   0  0  2  0  0  0  0  0  0  0  0  0
    7.0519   -2.2631   -0.7292 O   0  0  0  0  0  0  0  0  0  0  0  0
    6.7856   -1.8115    0.5783 C   0  0  0  0  0  0  0  0  0  0  0  0
    5.2967   -2.1103    0.8632 C   0  0  2  0  0  0  0  0  0  0  0  0
    4.8532   -1.0957    1.9969 C   0  0  0  0  0  0  0  0  0  0  0  0
    3.3802   -1.0036    2.4173 C   0  0  0  0  0  0  0  0  0  0  0  0
    2.5705    0.0818    1.7276 C   0  0  0  0  0  0  0  0  0  0  0  0
    2.8326    1.3393    2.3129 O   0  0  0  0  0  0  0  0  0  0  0  0
    2.7915   -1.8027    3.3362 C   0  0  0  0  0  0  0  0  0  0  0  0
    3.4371   -2.9501    4.1049 C   0  0  1  0  0  0  0  0  0  0  0  0
    3.1655   -2.8172    5.4850 O   0  0  0  0  0  0  0  0  0  0  0  0
    2.9885   -4.3550    3.6405 C   0  0  2  0  0  0  0  0  0  0  0  0
    3.9393   -5.4995    3.3470 C   0  0  2  0  0  0  0  0  0  0  0  0
    3.6498   -6.8207    4.0569 C   0  0  0  0  0  0  0  0  0  0  0  0
    5.4306   -5.4129    3.1197 C   0  0  0  0  0  0  0  0  0  0  0  0
    5.9201   -4.1412    2.4112 C   0  0  0  0  0  0  0  0  0  0  0  0
    5.1006   -3.6237    1.2070 C   0  0  1  0  0  0  0  0  0  0  0  0
    3.5880   -3.9853    1.1187 C   0  0  1  0  0  0  0  0  0  0  0  0
    3.2983   -4.0685   -0.4122 C   0  0  1  0  0  0  0  0  0  0  0  0
    2.0115   -4.5515   -0.7128 O   0  0  0  0  0  0  0  0  0  0  0  0
    3.4390   -2.6121   -1.0148 C   0  0  1  0  0  0  0  0  0  0  0  0
    4.7223   -1.8358   -0.5475 C   0  0  2  0  0  0  0  0  0  0  0  0
    3.0684   -4.9658    2.2199 C   0  0  2  0  0  0  0  0  0  0  0  0
    1.8566   -5.7891    1.8242 C   0  0  0  0  0  0  0  0  0  0  0  0
    2.8782   -0.7741   -3.9751 H   0  0  0  0  0  0  0  0  0  0  0  0
    4.0459   -0.3639   -2.7537 H   0  0  0  0  0  0  0  0  0  0  0  0
    2.3467   -0.4546   -2.3395 H   0  0  0  0  0  0  0  0  0  0  0  0
    2.0457   -4.1551   -3.1786 H   0  0  0  0  0  0  0  0  0  0  0  0
    1.7701   -2.7591   -4.1681 H   0  0  0  0  0  0  0  0  0  0  0  0
    1.1013   -2.8270   -2.5284 H   0  0  0  0  0  0  0  0  0  0  0  0
    4.2259   -4.0610   -3.6875 H   0  0  0  0  0  0  0  0  0  0  0  0
    4.6167   -2.4709   -4.2487 H   0  0  0  0  0  0  0  0  0  0  0  0
    5.8057   -4.0744   -2.0188 H   0  0  0  0  0  0  0  0  0  0  0  0
    6.6046   -3.1268   -3.2217 H   0  0  0  0  0  0  0  0  0  0  0  0
    6.0752   -1.0458   -2.0211 H   0  0  0  0  0  0  0  0  0  0  0  0
    7.4791   -2.2875    1.2736 H   0  0  0  0  0  0  0  0  0  0  0  0
    6.9899   -0.7403    0.6006 H   0  0  0  0  0  0  0  0  0  0  0  0
    5.4522   -1.2461    2.8946 H   0  0  0  0  0  0  0  0  0  0  0  0
    5.1319   -0.0888    1.6899 H   0  0  0  0  0  0  0  0  0  0  0  0
    2.7690    0.1058    0.6571 H   0  0  0  0  0  0  0  0  0  0  0  0
    1.5039   -0.1204    1.8335 H   0  0  0  0  0  0  0  0  0  0  0  0
    3.7063    1.6345    2.0908 H   0  0  0  0  0  0  0  0  0  0  0  0
    1.7457   -1.6428    3.5528 H   0  0  0  0  0  0  0  0  0  0  0  0
    4.5024   -2.8440    4.0787 H   0  0  0  0  0  0  0  0  0  0  0  0
    2.2308   -2.8346    5.6221 H   0  0  0  0  0  0  0  0  0  0  0  0
    2.0755   -4.6371    4.1568 H   0  0  0  0  0  0  0  0  0  0  0  0
    3.8950   -7.6658    3.4111 H   0  0  0  0  0  0  0  0  0  0  0  0
    2.6044   -6.8996    4.3433 H   0  0  0  0  0  0  0  0  0  0  0  0
    4.2303   -6.9009    4.9785 H   0  0  0  0  0  0  0  0  0  0  0  0
    5.9489   -5.5027    4.0752 H   0  0  0  0  0  0  0  0  0  0  0  0
    5.7319   -6.2878    2.5365 H   0  0  0  0  0  0  0  0  0  0  0  0
    6.1085   -3.3390    3.1075 H   0  0  0  0  0  0  0  0  0  0  0  0
    6.9203   -4.3771    2.0488 H   0  0  0  0  0  0  0  0  0  0  0  0
    5.5862   -4.1747    0.3973 H   0  0  0  0  0  0  0  0  0  0  0  0
    2.9659   -3.1367    1.3298 H   0  0  0  0  0  0  0  0  0  0  0  0
    3.9946   -4.7633   -0.8809 H   0  0  0  0  0  0  0  0  0  0  0  0
    2.1095   -5.0096   -1.5433 H   0  0  0  0  0  0  0  0  0  0  0  0
    2.6139   -2.0645   -0.5582 H   0  0  0  0  0  0  0  0  0  0  0  0
    4.4855   -0.7726   -0.5646 H   0  0  0  0  0  0  0  0  0  0  0  0
    2.1025   -6.5205    1.0550 H   0  0  0  0  0  0  0  0  0  0  0  0
    1.0738   -5.1264    1.4944 H   0  0  0  0  0  0  0  0  0  0  0  0
    1.4265   -6.3229    2.6689 H   0  0  0  0  0  0  0  0  0  0  0  0
  1  2  1  0
  1 30  1  0
  1 31  1  0
  1 32  1  0
  2 26  1  0
  2  3  1  0
  2  4  1  0
  3 33  1  0
  3 34  1  0
  3 35  1  0
  4  5  1  0
  4 36  1  0
  4 37  1  0
  5  6  1  0
  5 38  1  0
  5 39  1  0
  6 27  1  0
  6  7  1  0
  6 40  1  6
  7  8  1  0
  9  8  1  6
  8 41  1  0
  8 42  1  0
  9 22  1  0
  9 27  1  0
  9 10  1  0
 10 11  1  0
 10 43  1  0
 10 44  1  0
 11 12  1  0
 11 14  2  3
 12 13  1  0
 12 45  1  0
 12 46  1  0
 13 47  1  0
 14 15  1  0
 14 48  1  0
 15 16  1  0
 15 17  1  0
 15 49  1  1
 16 50  1  0
 17 28  1  0
 17 18  1  0
 17 51  1  1
 18 28  1  0
 18 19  1  1
 18 20  1  0
 19 52  1  0
 19 53  1  0
 19 54  1  0
 20 21  1  0
 20 55  1  0
 20 56  1  0
 21 22  1  0
 21 57  1  0
 21 58  1  0
 22 23  1  0
 22 59  1  6
 23 24  1  0
 23 28  1  0
 23 60  1  1
 24 25  1  0
 24 26  1  0
 24 61  1  6
 25 62  1  0
 26 27  1  0
 26 63  1  1
 27 64  1  1
 28 29  1  6
 29 65  1  0
 29 66  1  0
 29 67  1  0
M  END
>  <i_m_ct_stereo_status>  (218) 
1

>  <s_m_source_file>  (218) 
/var/tmp/pbs.5076255.sched01/tmp5gbx45fw/500pp51iot.sdf

>  <i_m_source_file_index>  (218) 
37

>  <i_lp_mmshare_version>  (218) 
48012

>  <i_f3d_flags>  (218) 
0

>  <s_epik_input>  (218) 
W0NIM11DMShbQ0gzXSlbQ0gyXVtDSDJdW0NASF0oT1tDSDJdMilbQ0BIXTNbQ0BASF0xW0NASF0oW09IXSlbQ0BIXShbQ0BIXTRbQ0BAXTIzNSlbQ0BdNihbQ0gzXSlbQ0BASF0oW0NAXTYoW0NIM10pW0NIMl1bQ0gyXTQpW0NASF0oW09IXSkvW0NIXT1DKFxbQ0gyXTUpW0NIMl1bT0hd

>  <s_epik_cmdline>  (218) 
J2VwaWtfcHl0aG9uJywgJy1waHQnLCAnMi4wJywgJy1waCcsICc3LjAnLCAnLXRuJywgJzgnLCAnLW1hJywgJzIwMCcsICctaW1hZScsICc8aW5maWxlLm1hZT4nLCAnLW9tYWUnLCAnPG91dGZpbGUubWFlPic=

>  <r_lp_tautomer_probability>  (218) 
1

>  <r_epik_Ionization_Penalty>  (218) 
1.78589e-06

>  <r_epik_Ionization_Penalty_Charging>  (218) 
0

>  <r_epik_Ionization_Penalty_Neutral>  (218) 
1.78589e-06

>  <r_epik_State_Penalty>  (218) 
-0

>  <r_epik_Charging_Adjusted_Penalty>  (218) 
0

>  <i_epik_Tot_Q>  (218) 
0

>  <i_epik_Tot_abs_Q>  (218) 
0

>  <s_lp_Force_Field>  (218) 
OPLS3e

>  <r_lp_Energy>  (218) 
91.008

>  <b_lp_Chiralities_Consistent>  (218) 
1

>  <s_lp_Variant>  (218) 
48:0-1

>  <s_i_glide_gridfile>  (218) 
pfpi4k_grid

>  <i_i_glide_lignum>  (218) 
37

>  <i_i_glide_rotatable_bonds>  (218) 
4

>  <r_i_docking_score>  (218) 
-4.3953

>  <r_i_glide_ligand_efficiency>  (218) 
-0.151562

>  <r_i_glide_ligand_efficiency_sa>  (218) 
-0.465647

>  <r_i_glide_ligand_efficiency_ln>  (218) 
-1.00641

>  <r_i_glide_gscore>  (218) 
-4.3953

>  <r_i_glide_lipo>  (218) 
-0.770321

>  <r_i_glide_hbond>  (218) 
-0.757277

>  <r_i_glide_metal>  (218) 
-0

>  <r_i_glide_rewards>  (218) 
-0.664317

>  <r_i_glide_evdw>  (218) 
-21.194

>  <r_i_glide_ecoul>  (218) 
-8.43189

>  <r_i_glide_erotb>  (218) 
0.121097

>  <r_i_glide_esite>  (218) 
0

>  <r_i_glide_emodel>  (218) 
-37.3209

>  <r_i_glide_energy>  (218) 
-29.6259

>  <r_i_glide_einternal>  (218) 
1.44887

>  <r_i_glide_intrahb_reward>  (218) 
-0

>  <i_i_glide_confnum>  (218) 
1

>  <i_i_glide_posenum>  (218) 
13

>  <r_i_glide_eff_state_penalty>  (218) 
0

>  <ligand_id>  (218) 
48

>  <original_smiles>  (218) 
CC1(C)CCC2OCC34CC(CO)=CC(O)C5C6(C)CCC3C(C(O)C1C24)C56C

>  <smiles>  (218) 
[H]OC([H])([H])C1=C([H])C([H])(O[H])C2([H])C3(C([H])([H])[H])C([H])([H])C([H])([H])C4([H])C([H])(C([H])(O[H])C5([H])C6([H])C([H])(OC([H])([H])C46C1([H])[H])C([H])([H])C([H])([H])C5(C([H])([H])[H])C([H])([H])[H])C23C([H])([H])[H]

$$$$
48:1:0
     RDKit          3D

 67 72  0  0  1  0  0  0  0  0999 V2000
    3.1273   -1.0004   -2.8845 C   0  0  0  0  0  0  0  0  0  0  0  0
    3.2441   -2.5165   -2.5496 C   0  0  0  0  0  0  0  0  0  0  0  0
    1.9561   -3.1222   -3.1396 C   0  0  0  0  0  0  0  0  0  0  0  0
    4.4477   -3.1262   -3.3193 C   0  0  0  0  0  0  0  0  0  0  0  0
    5.7439   -3.2275   -2.5010 C   0  0  0  0  0  0  0  0  0  0  0  0
    5.8878   -2.1172   -1.4574 C   0  0  2  0  0  0  0  0  0  0  0  0
    7.0134   -2.4042   -0.6573 O   0  0  0  0  0  0  0  0  0  0  0  0
    6.7295   -1.9753    0.6574 C   0  0  0  0  0  0  0  0  0  0  0  0
    5.2376   -2.2654    0.9251 C   0  0  2  0  0  0  0  0  0  0  0  0
    4.7942   -1.2270    2.0432 C   0  0  0  0  0  0  0  0  0  0  0  0
    3.4264   -1.5270    2.6781 C   0  0  0  0  0  0  0  0  0  0  0  0
    2.1812   -0.9152    2.0275 C   0  0  0  0  0  0  0  0  0  0  0  0
    2.4266   -0.0370    0.9521 O   0  0  0  0  0  0  0  0  0  0  0  0
    3.4246   -2.5038    3.5985 C   0  0  0  0  0  0  0  0  0  0  0  0
    2.3360   -3.5081    4.0009 C   0  0  1  0  0  0  0  0  0  0  0  0
    1.0343   -3.0547    3.6842 O   0  0  0  0  0  0  0  0  0  0  0  0
    2.5140   -4.9425    3.4146 C   0  0  2  0  0  0  0  0  0  0  0  0
    3.7994   -5.7370    3.3494 C   0  0  2  0  0  0  0  0  0  0  0  0
    3.7558   -7.1296    3.9796 C   0  0  0  0  0  0  0  0  0  0  0  0
    5.2013   -5.1993    3.5793 C   0  0  0  0  0  0  0  0  0  0  0  0
    5.8007   -4.2326    2.5407 C   0  0  0  0  0  0  0  0  0  0  0  0
    5.0191   -3.7871    1.2766 C   0  0  1  0  0  0  0  0  0  0  0  0
    3.5322   -4.2284    1.0910 C   0  0  1  0  0  0  0  0  0  0  0  0
    3.2381   -4.2041   -0.4364 C   0  0  1  0  0  0  0  0  0  0  0  0
    1.9011   -4.5855   -0.6933 O   0  0  0  0  0  0  0  0  0  0  0  0
    3.4122   -2.7377   -0.9898 C   0  0  1  0  0  0  0  0  0  0  0  0
    4.6950   -1.9805   -0.4933 C   0  0  2  0  0  0  0  0  0  0  0  0
    3.0699   -5.3827    2.0389 C   0  0  2  0  0  0  0  0  0  0  0  0
    2.3608   -6.5334    1.3298 C   0  0  0  0  0  0  0  0  0  0  0  0
    2.9044   -0.8324   -3.9409 H   0  0  0  0  0  0  0  0  0  0  0  0
    4.0313   -0.4374   -2.6769 H   0  0  0  0  0  0  0  0  0  0  0  0
    2.3179   -0.5293   -2.3288 H   0  0  0  0  0  0  0  0  0  0  0  0
    2.0076   -4.2038   -3.1757 H   0  0  0  0  0  0  0  0  0  0  0  0
    1.7829   -2.8071   -4.1709 H   0  0  0  0  0  0  0  0  0  0  0  0
    1.0778   -2.8615   -2.5508 H   0  0  0  0  0  0  0  0  0  0  0  0
    4.1997   -4.1272   -3.6959 H   0  0  0  0  0  0  0  0  0  0  0  0
    4.6152   -2.5190   -4.2020 H   0  0  0  0  0  0  0  0  0  0  0  0
    5.7586   -4.1786   -1.9882 H   0  0  0  0  0  0  0  0  0  0  0  0
    6.6074   -3.2331   -3.1554 H   0  0  0  0  0  0  0  0  0  0  0  0
    6.0597   -1.1539   -1.9323 H   0  0  0  0  0  0  0  0  0  0  0  0
    7.4120   -2.4724    1.3469 H   0  0  0  0  0  0  0  0  0  0  0  0
    6.9220   -0.9034    0.7045 H   0  0  0  0  0  0  0  0  0  0  0  0
    5.5230   -1.2395    2.8580 H   0  0  0  0  0  0  0  0  0  0  0  0
    4.8568   -0.2001    1.6912 H   0  0  0  0  0  0  0  0  0  0  0  0
    1.5126   -1.6783    1.6274 H   0  0  0  0  0  0  0  0  0  0  0  0
    1.6282   -0.3536    2.7805 H   0  0  0  0  0  0  0  0  0  0  0  0
    1.8821   -0.3364    0.2174 H   0  0  0  0  0  0  0  0  0  0  0  0
    4.3613   -2.7850    4.0241 H   0  0  0  0  0  0  0  0  0  0  0  0
    2.3706   -3.6041    5.0802 H   0  0  0  0  0  0  0  0  0  0  0  0
    0.9741   -2.9601    2.7557 H   0  0  0  0  0  0  0  0  0  0  0  0
    1.6751   -5.5449    3.7484 H   0  0  0  0  0  0  0  0  0  0  0  0
    4.3554   -7.8271    3.3964 H   0  0  0  0  0  0  0  0  0  0  0  0
    2.7442   -7.5125    4.0412 H   0  0  0  0  0  0  0  0  0  0  0  0
    4.1464   -7.1021    4.9951 H   0  0  0  0  0  0  0  0  0  0  0  0
    5.2207   -4.7501    4.5694 H   0  0  0  0  0  0  0  0  0  0  0  0
    5.8906   -6.0462    3.6642 H   0  0  0  0  0  0  0  0  0  0  0  0
    6.1662   -3.3503    3.0580 H   0  0  0  0  0  0  0  0  0  0  0  0
    6.7159   -4.7000    2.1865 H   0  0  0  0  0  0  0  0  0  0  0  0
    5.5472   -4.3461    0.4973 H   0  0  0  0  0  0  0  0  0  0  0  0
    2.8351   -3.4608    1.3792 H   0  0  0  0  0  0  0  0  0  0  0  0
    3.9046   -4.9089   -0.9406 H   0  0  0  0  0  0  0  0  0  0  0  0
    1.9188   -4.9597   -1.5635 H   0  0  0  0  0  0  0  0  0  0  0  0
    2.5941   -2.2038   -0.5234 H   0  0  0  0  0  0  0  0  0  0  0  0
    4.4644   -0.9136   -0.5115 H   0  0  0  0  0  0  0  0  0  0  0  0
    2.9531   -6.8620    0.4795 H   0  0  0  0  0  0  0  0  0  0  0  0
    1.3601   -6.2430    1.0188 H   0  0  0  0  0  0  0  0  0  0  0  0
    2.2250   -7.3995    1.9669 H   0  0  0  0  0  0  0  0  0  0  0  0
  1  2  1  0
  1 30  1  0
  1 31  1  0
  1 32  1  0
  2 26  1  0
  2  3  1  0
  2  4  1  0
  3 33  1  0
  3 34  1  0
  3 35  1  0
  4  5  1  0
  4 36  1  0
  4 37  1  0
  5  6  1  0
  5 38  1  0
  5 39  1  0
  6 27  1  0
  6  7  1  0
  6 40  1  6
  7  8  1  0
  9  8  1  6
  8 41  1  0
  8 42  1  0
  9 22  1  0
  9 27  1  0
  9 10  1  0
 10 11  1  0
 10 43  1  0
 10 44  1  0
 11 12  1  0
 11 14  2  3
 12 13  1  0
 12 45  1  0
 12 46  1  0
 13 47  1  0
 14 15  1  0
 14 48  1  0
 15 16  1  0
 15 17  1  0
 15 49  1  1
 16 50  1  0
 17 28  1  0
 17 18  1  0
 17 51  1  1
 18 28  1  0
 18 19  1  1
 18 20  1  0
 19 52  1  0
 19 53  1  0
 19 54  1  0
 20 21  1  0
 20 55  1  0
 20 56  1  0
 21 22  1  0
 21 57  1  0
 21 58  1  0
 22 23  1  0
 22 59  1  6
 23 24  1  0
 23 28  1  0
 23 60  1  1
 24 25  1  0
 24 26  1  0
 24 61  1  6
 25 62  1  0
 26 27  1  0
 26 63  1  1
 27 64  1  1
 28 29  1  6
 29 65  1  0
 29 66  1  0
 29 67  1  0
M  END
>  <i_m_ct_stereo_status>  (219) 
1

>  <s_m_source_file>  (219) 
/var/tmp/pbs.5076255.sched01/tmp5gbx45fw/500pp51iot.sdf

>  <i_m_source_file_index>  (219) 
38

>  <i_lp_mmshare_version>  (219) 
48012

>  <i_f3d_flags>  (219) 
0

>  <s_epik_input>  (219) 
W0NIM11DMShbQ0gzXSlbQ0gyXVtDSDJdW0NASF0oT1tDSDJdMilbQ0BIXTNbQ0BASF0xW0NASF0oW09IXSlbQ0BIXShbQ0BIXTRbQ0BAXTIzNSlbQ0BdNihbQ0gzXSlbQ0BASF0oW0NAXTYoW0NIM10pW0NIMl1bQ0gyXTQpW0NASF0oW09IXSkvW0NIXT1DKFxbQ0gyXTUpW0NIMl1bT0hd

>  <s_epik_cmdline>  (219) 
J2VwaWtfcHl0aG9uJywgJy1waHQnLCAnMi4wJywgJy1waCcsICc3LjAnLCAnLXRuJywgJzgnLCAnLW1hJywgJzIwMCcsICctaW1hZScsICc8aW5maWxlLm1hZT4nLCAnLW9tYWUnLCAnPG91dGZpbGUubWFlPic=

>  <r_lp_tautomer_probability>  (219) 
1

>  <r_epik_Ionization_Penalty>  (219) 
1.78589e-06

>  <r_epik_Ionization_Penalty_Charging>  (219) 
0

>  <r_epik_Ionization_Penalty_Neutral>  (219) 
1.78589e-06

>  <r_epik_State_Penalty>  (219) 
-0

>  <r_epik_Charging_Adjusted_Penalty>  (219) 
0

>  <i_epik_Tot_Q>  (219) 
0

>  <i_epik_Tot_abs_Q>  (219) 
0

>  <s_lp_Force_Field>  (219) 
OPLS3e

>  <r_lp_Energy>  (219) 
109.534

>  <b_lp_Chiralities_Consistent>  (219) 
1

>  <s_lp_Variant>  (219) 
48:0-2

>  <s_i_glide_gridfile>  (219) 
pfpi4k_grid

>  <i_i_glide_lignum>  (219) 
38

>  <i_i_glide_rotatable_bonds>  (219) 
4

>  <r_i_docking_score>  (219) 
-4.42251

>  <r_i_glide_ligand_efficiency>  (219) 
-0.1525

>  <r_i_glide_ligand_efficiency_sa>  (219) 
-0.468529

>  <r_i_glide_ligand_efficiency_ln>  (219) 
-1.01264

>  <r_i_glide_gscore>  (219) 
-4.42251

>  <r_i_glide_lipo>  (219) 
-0.798376

>  <r_i_glide_hbond>  (219) 
-0.497654

>  <r_i_glide_metal>  (219) 
-0

>  <r_i_glide_rewards>  (219) 
-0.664317

>  <r_i_glide_evdw>  (219) 
-18.9468

>  <r_i_glide_ecoul>  (219) 
-10.9061

>  <r_i_glide_erotb>  (219) 
0.121097

>  <r_i_glide_esite>  (219) 
0

>  <r_i_glide_emodel>  (219) 
-35.508

>  <r_i_glide_energy>  (219) 
-29.8529

>  <r_i_glide_einternal>  (219) 
5.44852

>  <r_i_glide_intrahb_reward>  (219) 
-0

>  <i_i_glide_confnum>  (219) 
3

>  <i_i_glide_posenum>  (219) 
38

>  <r_i_glide_eff_state_penalty>  (219) 
0

>  <ligand_id>  (219) 
48

>  <original_smiles>  (219) 
CC1(C)CCC2OCC34CC(CO)=CC(O)C5C6(C)CCC3C(C(O)C1C24)C56C

>  <smiles>  (219) 
[H]OC([H])([H])C1=C([H])C([H])(O[H])C2([H])C3(C([H])([H])[H])C([H])([H])C([H])([H])C4([H])C([H])(C([H])(O[H])C5([H])C6([H])C([H])(OC([H])([H])C46C1([H])[H])C([H])([H])C([H])([H])C5(C([H])([H])[H])C([H])([H])[H])C23C([H])([H])[H]

$$$$
48:1:1
     RDKit          3D

 67 72  0  0  1  0  0  0  0  0999 V2000
    3.1978   -0.9588   -3.2283 C   0  0  0  0  0  0  0  0  0  0  0  0
    3.2748   -2.4436   -2.7611 C   0  0  0  0  0  0  0  0  0  0  0  0
    1.9628   -3.0584   -3.2842 C   0  0  0  0  0  0  0  0  0  0  0  0
    4.4354   -3.1720   -3.4732 C   0  0  0  0  0  0  0  0  0  0  0  0
    5.7328   -3.2266   -2.6581 C   0  0  0  0  0  0  0  0  0  0  0  0
    5.9237   -2.0353   -1.7151 C   0  0  2  0  0  0  0  0  0  0  0  0
    7.0442   -2.2726   -0.8870 O   0  0  0  0  0  0  0  0  0  0  0  0
    6.7755   -1.7177    0.3867 C   0  0  0  0  0  0  0  0  0  0  0  0
    5.2694   -1.9244    0.6672 C   0  0  2  0  0  0  0  0  0  0  0  0
    4.8363   -0.7689    1.6751 C   0  0  0  0  0  0  0  0  0  0  0  0
    3.4909   -0.9887    2.3465 C   0  0  0  0  0  0  0  0  0  0  0  0
    2.3037   -0.3756    1.6024 C   0  0  0  0  0  0  0  0  0  0  0  0
    1.9841    0.8803    2.1362 O   0  0  0  0  0  0  0  0  0  0  0  0
    3.4577   -1.8889    3.3550 C   0  0  0  0  0  0  0  0  0  0  0  0
    2.3589   -2.8039    3.8641 C   0  0  1  0  0  0  0  0  0  0  0  0
    1.0525   -2.3813    3.5583 O   0  0  0  0  0  0  0  0  0  0  0  0
    2.4857   -4.2850    3.4011 C   0  0  2  0  0  0  0  0  0  0  0  0
    3.7465   -5.1182    3.3972 C   0  0  2  0  0  0  0  0  0  0  0  0
    3.6559   -6.4378    4.1610 C   0  0  0  0  0  0  0  0  0  0  0  0
    5.1566   -4.6145    3.5798 C   0  0  0  0  0  0  0  0  0  0  0  0
    5.7787   -3.7539    2.4574 C   0  0  0  0  0  0  0  0  0  0  0  0
    5.0053   -3.4028    1.1521 C   0  0  1  0  0  0  0  0  0  0  0  0
    3.5073   -3.8147    1.0117 C   0  0  1  0  0  0  0  0  0  0  0  0
    3.2230   -3.9249   -0.5129 C   0  0  1  0  0  0  0  0  0  0  0  0
    1.8762   -4.2689   -0.7191 O   0  0  0  0  0  0  0  0  0  0  0  0
    3.4351   -2.5167   -1.1955 C   0  0  1  0  0  0  0  0  0  0  0  0
    4.7349   -1.7604   -0.7750 C   0  0  2  0  0  0  0  0  0  0  0  0
    3.0230   -4.8660    2.0593 C   0  0  2  0  0  0  0  0  0  0  0  0
    2.2685   -6.0536    1.4595 C   0  0  0  0  0  0  0  0  0  0  0  0
    2.9478   -0.8694   -4.2872 H   0  0  0  0  0  0  0  0  0  0  0  0
    4.1274   -0.4158   -3.0953 H   0  0  0  0  0  0  0  0  0  0  0  0
    2.4309   -0.4018   -2.6851 H   0  0  0  0  0  0  0  0  0  0  0  0
    1.9768   -4.1382   -3.2207 H   0  0  0  0  0  0  0  0  0  0  0  0
    1.7852   -2.8382   -4.3354 H   0  0  0  0  0  0  0  0  0  0  0  0
    1.0935   -2.7135   -2.7240 H   0  0  0  0  0  0  0  0  0  0  0  0
    4.1551   -4.1868   -3.7560 H   0  0  0  0  0  0  0  0  0  0  0  0
    4.6140   -2.6501   -4.4047 H   0  0  0  0  0  0  0  0  0  0  0  0
    5.7257   -4.1315   -2.0615 H   0  0  0  0  0  0  0  0  0  0  0  0
    6.5937   -3.3332   -3.3137 H   0  0  0  0  0  0  0  0  0  0  0  0
    6.1123   -1.1347   -2.2894 H   0  0  0  0  0  0  0  0  0  0  0  0
    7.4407   -2.1486    1.1395 H   0  0  0  0  0  0  0  0  0  0  0  0
    7.0046   -0.6520    0.3231 H   0  0  0  0  0  0  0  0  0  0  0  0
    5.5908   -0.6737    2.4581 H   0  0  0  0  0  0  0  0  0  0  0  0
    4.8402    0.2004    1.1778 H   0  0  0  0  0  0  0  0  0  0  0  0
    2.5836   -0.2053    0.5713 H   0  0  0  0  0  0  0  0  0  0  0  0
    1.4150   -0.9879    1.5560 H   0  0  0  0  0  0  0  0  0  0  0  0
    1.2646    1.2539    1.6266 H   0  0  0  0  0  0  0  0  0  0  0  0
    4.4062   -2.1379    3.7917 H   0  0  0  0  0  0  0  0  0  0  0  0
    2.4144   -2.8027    4.9542 H   0  0  0  0  0  0  0  0  0  0  0  0
    1.0070   -2.2681    2.6201 H   0  0  0  0  0  0  0  0  0  0  0  0
    1.6332   -4.8290    3.7850 H   0  0  0  0  0  0  0  0  0  0  0  0
    4.2270   -7.2133    3.6476 H   0  0  0  0  0  0  0  0  0  0  0  0
    2.6306   -6.7783    4.2612 H   0  0  0  0  0  0  0  0  0  0  0  0
    4.0493   -6.3286    5.1733 H   0  0  0  0  0  0  0  0  0  0  0  0
    5.2016   -4.0619    4.5191 H   0  0  0  0  0  0  0  0  0  0  0  0
    5.8271   -5.4621    3.7427 H   0  0  0  0  0  0  0  0  0  0  0  0
    6.1895   -2.8434    2.8850 H   0  0  0  0  0  0  0  0  0  0  0  0
    6.6760   -4.2836    2.1310 H   0  0  0  0  0  0  0  0  0  0  0  0
    5.5185   -4.0466    0.4295 H   0  0  0  0  0  0  0  0  0  0  0  0
    2.8326   -2.9978    1.2227 H   0  0  0  0  0  0  0  0  0  0  0  0
    3.8519   -4.6928   -0.9597 H   0  0  0  0  0  0  0  0  0  0  0  0
    1.8408   -4.6519   -1.5732 H   0  0  0  0  0  0  0  0  0  0  0  0
    2.6562   -1.9113   -0.7954 H   0  0  0  0  0  0  0  0  0  0  0  0
    4.5312   -0.6938   -0.8871 H   0  0  0  0  0  0  0  0  0  0  0  0
    2.8238   -6.4862    0.6296 H   0  0  0  0  0  0  0  0  0  0  0  0
    1.2739   -5.7588    1.1366 H   0  0  0  0  0  0  0  0  0  0  0  0
    2.1054   -6.8444    2.1842 H   0  0  0  0  0  0  0  0  0  0  0  0
  1  2  1  0
  1 30  1  0
  1 31  1  0
  1 32  1  0
  2 26  1  0
  2  3  1  0
  2  4  1  0
  3 33  1  0
  3 34  1  0
  3 35  1  0
  4  5  1  0
  4 36  1  0
  4 37  1  0
  5  6  1  0
  5 38  1  0
  5 39  1  0
  6 27  1  0
  6  7  1  0
  6 40  1  6
  7  8  1  0
  9  8  1  6
  8 41  1  0
  8 42  1  0
  9 22  1  0
  9 27  1  0
  9 10  1  0
 10 11  1  0
 10 43  1  0
 10 44  1  0
 11 12  1  0
 11 14  2  3
 12 13  1  0
 12 45  1  0
 12 46  1  0
 13 47  1  0
 14 15  1  0
 14 48  1  0
 15 16  1  0
 15 17  1  0
 15 49  1  1
 16 50  1  0
 17 28  1  0
 17 18  1  0
 17 51  1  1
 18 28  1  0
 18 19  1  1
 18 20  1  0
 19 52  1  0
 19 53  1  0
 19 54  1  0
 20 21  1  0
 20 55  1  0
 20 56  1  0
 21 22  1  0
 21 57  1  0
 21 58  1  0
 22 23  1  0
 22 59  1  6
 23 24  1  0
 23 28  1  0
 23 60  1  1
 24 25  1  0
 24 26  1  0
 24 61  1  6
 25 62  1  0
 26 27  1  0
 26 63  1  1
 27 64  1  1
 28 29  1  6
 29 65  1  0
 29 66  1  0
 29 67  1  0
M  END
>  <i_m_ct_stereo_status>  (220) 
1

>  <s_m_source_file>  (220) 
/var/tmp/pbs.5076255.sched01/tmp5gbx45fw/500pp51iot.sdf

>  <i_m_source_file_index>  (220) 
38

>  <i_lp_mmshare_version>  (220) 
48012

>  <i_f3d_flags>  (220) 
0

>  <s_epik_input>  (220) 
W0NIM11DMShbQ0gzXSlbQ0gyXVtDSDJdW0NASF0oT1tDSDJdMilbQ0BIXTNbQ0BASF0xW0NASF0oW09IXSlbQ0BIXShbQ0BIXTRbQ0BAXTIzNSlbQ0BdNihbQ0gzXSlbQ0BASF0oW0NAXTYoW0NIM10pW0NIMl1bQ0gyXTQpW0NASF0oW09IXSkvW0NIXT1DKFxbQ0gyXTUpW0NIMl1bT0hd

>  <s_epik_cmdline>  (220) 
J2VwaWtfcHl0aG9uJywgJy1waHQnLCAnMi4wJywgJy1waCcsICc3LjAnLCAnLXRuJywgJzgnLCAnLW1hJywgJzIwMCcsICctaW1hZScsICc8aW5maWxlLm1hZT4nLCAnLW9tYWUnLCAnPG91dGZpbGUubWFlPic=

>  <r_lp_tautomer_probability>  (220) 
1

>  <r_epik_Ionization_Penalty>  (220) 
1.78589e-06

>  <r_epik_Ionization_Penalty_Charging>  (220) 
0

>  <r_epik_Ionization_Penalty_Neutral>  (220) 
1.78589e-06

>  <r_epik_State_Penalty>  (220) 
-0

>  <r_epik_Charging_Adjusted_Penalty>  (220) 
0

>  <i_epik_Tot_Q>  (220) 
0

>  <i_epik_Tot_abs_Q>  (220) 
0

>  <s_lp_Force_Field>  (220) 
OPLS3e

>  <r_lp_Energy>  (220) 
109.534

>  <b_lp_Chiralities_Consistent>  (220) 
1

>  <s_lp_Variant>  (220) 
48:0-2

>  <s_i_glide_gridfile>  (220) 
pfpi4k_grid

>  <i_i_glide_lignum>  (220) 
38

>  <i_i_glide_rotatable_bonds>  (220) 
4

>  <r_i_docking_score>  (220) 
-3.95913

>  <r_i_glide_ligand_efficiency>  (220) 
-0.136522

>  <r_i_glide_ligand_efficiency_sa>  (220) 
-0.419438

>  <r_i_glide_ligand_efficiency_ln>  (220) 
-0.90654

>  <r_i_glide_gscore>  (220) 
-3.95913

>  <r_i_glide_lipo>  (220) 
-0.929748

>  <r_i_glide_hbond>  (220) 
-0.357887

>  <r_i_glide_metal>  (220) 
-0

>  <r_i_glide_rewards>  (220) 
-0.664317

>  <r_i_glide_evdw>  (220) 
-24.9225

>  <r_i_glide_ecoul>  (220) 
-5.88101

>  <r_i_glide_erotb>  (220) 
0.121097

>  <r_i_glide_esite>  (220) 
0

>  <r_i_glide_emodel>  (220) 
-37.0581

>  <r_i_glide_energy>  (220) 
-30.8035

>  <r_i_glide_einternal>  (220) 
2.79082

>  <r_i_glide_intrahb_reward>  (220) 
-0

>  <i_i_glide_confnum>  (220) 
1

>  <i_i_glide_posenum>  (220) 
28

>  <r_i_glide_eff_state_penalty>  (220) 
0

>  <ligand_id>  (220) 
48

>  <original_smiles>  (220) 
CC1(C)CCC2OCC34CC(CO)=CC(O)C5C6(C)CCC3C(C(O)C1C24)C56C

>  <smiles>  (220) 
[H]OC([H])([H])C1=C([H])C([H])(O[H])C2([H])C3(C([H])([H])[H])C([H])([H])C([H])([H])C4([H])C([H])(C([H])(O[H])C5([H])C6([H])C([H])(OC([H])([H])C46C1([H])[H])C([H])([H])C([H])([H])C5(C([H])([H])[H])C([H])([H])[H])C23C([H])([H])[H]

$$$$
48:1:2
     RDKit          3D

 67 72  0  0  1  0  0  0  0  0999 V2000
    3.1894   -0.9125   -3.1561 C   0  0  0  0  0  0  0  0  0  0  0  0
    3.2593   -2.4076   -2.7255 C   0  0  0  0  0  0  0  0  0  0  0  0
    1.9570   -3.0312   -3.2663 C   0  0  0  0  0  0  0  0  0  0  0  0
    4.4413   -3.1030   -3.4478 C   0  0  0  0  0  0  0  0  0  0  0  0
    5.7370   -3.1890   -2.6289 C   0  0  0  0  0  0  0  0  0  0  0  0
    5.9206   -2.0101   -1.6679 C   0  0  2  0  0  0  0  0  0  0  0  0
    7.0373   -2.2677   -0.8428 O   0  0  0  0  0  0  0  0  0  0  0  0
    6.7753   -1.7295    0.4379 C   0  0  0  0  0  0  0  0  0  0  0  0
    5.2695   -1.9537    0.7152 C   0  0  2  0  0  0  0  0  0  0  0  0
    4.8305   -0.8267    1.7458 C   0  0  0  0  0  0  0  0  0  0  0  0
    3.4858   -1.0552    2.4199 C   0  0  0  0  0  0  0  0  0  0  0  0
    2.2921   -0.4549    1.6896 C   0  0  0  0  0  0  0  0  0  0  0  0
    1.9113    0.7583    2.3026 O   0  0  0  0  0  0  0  0  0  0  0  0
    3.4600   -1.9725    3.4172 C   0  0  0  0  0  0  0  0  0  0  0  0
    2.3587   -2.9076    3.8891 C   0  0  1  0  0  0  0  0  0  0  0  0
    1.0530   -2.4473    3.5943 O   0  0  0  0  0  0  0  0  0  0  0  0
    2.4867   -4.3827    3.4016 C   0  0  2  0  0  0  0  0  0  0  0  0
    3.7542   -5.2106    3.3778 C   0  0  2  0  0  0  0  0  0  0  0  0
    3.6705   -6.5491    4.1155 C   0  0  0  0  0  0  0  0  0  0  0  0
    5.1712   -4.6923    3.5674 C   0  0  0  0  0  0  0  0  0  0  0  0
    5.8024   -3.8181    2.4633 C   0  0  0  0  0  0  0  0  0  0  0  0
    5.0171   -3.4396    1.1761 C   0  0  1  0  0  0  0  0  0  0  0  0
    3.5167   -3.8560    1.0283 C   0  0  1  0  0  0  0  0  0  0  0  0
    3.2252   -3.9260   -0.5009 C   0  0  1  0  0  0  0  0  0  0  0  0
    1.8838   -4.2932   -0.7235 O   0  0  0  0  0  0  0  0  0  0  0  0
    3.4229   -2.5093   -1.1589 C   0  0  1  0  0  0  0  0  0  0  0  0
    4.7261   -1.7585   -0.7204 C   0  0  2  0  0  0  0  0  0  0  0  0
    3.0279   -4.9330    2.0500 C   0  0  2  0  0  0  0  0  0  0  0  0
    2.2831   -6.1096    1.4240 C   0  0  0  0  0  0  0  0  0  0  0  0
    2.9427   -0.8035   -4.2137 H   0  0  0  0  0  0  0  0  0  0  0  0
    4.1236   -0.3695   -3.0102 H   0  0  0  0  0  0  0  0  0  0  0  0
    2.4199   -0.3739   -2.6028 H   0  0  0  0  0  0  0  0  0  0  0  0
    1.9862   -4.1190   -3.2196 H   0  0  0  0  0  0  0  0  0  0  0  0
    1.7905   -2.7803   -4.3148 H   0  0  0  0  0  0  0  0  0  0  0  0
    1.0961   -2.6931   -2.6911 H   0  0  0  0  0  0  0  0  0  0  0  0
    4.1687   -4.1164   -3.7501 H   0  0  0  0  0  0  0  0  0  0  0  0
    4.6165   -2.5672   -4.3742 H   0  0  0  0  0  0  0  0  0  0  0  0
    5.7283   -4.1107   -2.0488 H   0  0  0  0  0  0  0  0  0  0  0  0
    6.5961   -3.2666   -3.2936 H   0  0  0  0  0  0  0  0  0  0  0  0
    6.1096   -1.0904   -2.2234 H   0  0  0  0  0  0  0  0  0  0  0  0
    7.4374   -2.1776    1.1788 H   0  0  0  0  0  0  0  0  0  0  0  0
    7.0061   -0.6641    0.4039 H   0  0  0  0  0  0  0  0  0  0  0  0
    5.5871   -0.7406    2.5320 H   0  0  0  0  0  0  0  0  0  0  0  0
    4.8351    0.1566    1.2754 H   0  0  0  0  0  0  0  0  0  0  0  0
    2.5776   -0.2078    0.6686 H   0  0  0  0  0  0  0  0  0  0  0  0
    1.4390   -1.1229    1.6103 H   0  0  0  0  0  0  0  0  0  0  0  0
    1.2086    1.1406    1.7982 H   0  0  0  0  0  0  0  0  0  0  0  0
    4.4044   -2.2408    3.8360 H   0  0  0  0  0  0  0  0  0  0  0  0
    2.4234   -2.9213    4.9761 H   0  0  0  0  0  0  0  0  0  0  0  0
    0.4275   -3.0057    4.0261 H   0  0  0  0  0  0  0  0  0  0  0  0
    1.6306   -4.9391    3.7786 H   0  0  0  0  0  0  0  0  0  0  0  0
    4.2461   -7.3075    3.5848 H   0  0  0  0  0  0  0  0  0  0  0  0
    2.6446   -6.8973    4.2090 H   0  0  0  0  0  0  0  0  0  0  0  0
    4.0662   -6.4592    5.1280 H   0  0  0  0  0  0  0  0  0  0  0  0
    5.2124   -4.1746    4.5218 H   0  0  0  0  0  0  0  0  0  0  0  0
    5.8366   -5.5470    3.7133 H   0  0  0  0  0  0  0  0  0  0  0  0
    6.2064   -2.9152    2.9165 H   0  0  0  0  0  0  0  0  0  0  0  0
    6.6972   -4.3446    2.1278 H   0  0  0  0  0  0  0  0  0  0  0  0
    5.5205   -4.0659    0.4336 H   0  0  0  0  0  0  0  0  0  0  0  0
    2.8400   -3.0520    1.2494 H   0  0  0  0  0  0  0  0  0  0  0  0
    3.8573   -4.6784   -0.9674 H   0  0  0  0  0  0  0  0  0  0  0  0
    1.8506   -4.6700   -1.5938 H   0  0  0  0  0  0  0  0  0  0  0  0
    2.6240   -1.9161   -0.7418 H   0  0  0  0  0  0  0  0  0  0  0  0
    4.5214   -0.6916   -0.8070 H   0  0  0  0  0  0  0  0  0  0  0  0
    2.8379   -6.5225    0.5826 H   0  0  0  0  0  0  0  0  0  0  0  0
    1.2860   -5.8105    1.1061 H   0  0  0  0  0  0  0  0  0  0  0  0
    2.1202   -6.9200    2.1298 H   0  0  0  0  0  0  0  0  0  0  0  0
  1  2  1  0
  1 30  1  0
  1 31  1  0
  1 32  1  0
  2 26  1  0
  2  3  1  0
  2  4  1  0
  3 33  1  0
  3 34  1  0
  3 35  1  0
  4  5  1  0
  4 36  1  0
  4 37  1  0
  5  6  1  0
  5 38  1  0
  5 39  1  0
  6 27  1  0
  6  7  1  0
  6 40  1  6
  7  8  1  0
  9  8  1  6
  8 41  1  0
  8 42  1  0
  9 22  1  0
  9 27  1  0
  9 10  1  0
 10 11  1  0
 10 43  1  0
 10 44  1  0
 11 12  1  0
 11 14  2  3
 12 13  1  0
 12 45  1  0
 12 46  1  0
 13 47  1  0
 14 15  1  0
 14 48  1  0
 15 16  1  0
 15 17  1  0
 15 49  1  1
 16 50  1  0
 17 28  1  0
 17 18  1  0
 17 51  1  1
 18 28  1  0
 18 19  1  1
 18 20  1  0
 19 52  1  0
 19 53  1  0
 19 54  1  0
 20 21  1  0
 20 55  1  0
 20 56  1  0
 21 22  1  0
 21 57  1  0
 21 58  1  0
 22 23  1  0
 22 59  1  6
 23 24  1  0
 23 28  1  0
 23 60  1  1
 24 25  1  0
 24 26  1  0
 24 61  1  6
 25 62  1  0
 26 27  1  0
 26 63  1  1
 27 64  1  1
 28 29  1  6
 29 65  1  0
 29 66  1  0
 29 67  1  0
M  END
>  <i_m_ct_stereo_status>  (221) 
1

>  <s_m_source_file>  (221) 
/var/tmp/pbs.5076255.sched01/tmp5gbx45fw/500pp51iot.sdf

>  <i_m_source_file_index>  (221) 
38

>  <i_lp_mmshare_version>  (221) 
48012

>  <i_f3d_flags>  (221) 
0

>  <s_epik_input>  (221) 
W0NIM11DMShbQ0gzXSlbQ0gyXVtDSDJdW0NASF0oT1tDSDJdMilbQ0BIXTNbQ0BASF0xW0NASF0oW09IXSlbQ0BIXShbQ0BIXTRbQ0BAXTIzNSlbQ0BdNihbQ0gzXSlbQ0BASF0oW0NAXTYoW0NIM10pW0NIMl1bQ0gyXTQpW0NASF0oW09IXSkvW0NIXT1DKFxbQ0gyXTUpW0NIMl1bT0hd

>  <s_epik_cmdline>  (221) 
J2VwaWtfcHl0aG9uJywgJy1waHQnLCAnMi4wJywgJy1waCcsICc3LjAnLCAnLXRuJywgJzgnLCAnLW1hJywgJzIwMCcsICctaW1hZScsICc8aW5maWxlLm1hZT4nLCAnLW9tYWUnLCAnPG91dGZpbGUubWFlPic=

>  <r_lp_tautomer_probability>  (221) 
1

>  <r_epik_Ionization_Penalty>  (221) 
1.78589e-06

>  <r_epik_Ionization_Penalty_Charging>  (221) 
0

>  <r_epik_Ionization_Penalty_Neutral>  (221) 
1.78589e-06

>  <r_epik_State_Penalty>  (221) 
-0

>  <r_epik_Charging_Adjusted_Penalty>  (221) 
0

>  <i_epik_Tot_Q>  (221) 
0

>  <i_epik_Tot_abs_Q>  (221) 
0

>  <s_lp_Force_Field>  (221) 
OPLS3e

>  <r_lp_Energy>  (221) 
109.534

>  <b_lp_Chiralities_Consistent>  (221) 
1

>  <s_lp_Variant>  (221) 
48:0-2

>  <s_i_glide_gridfile>  (221) 
pfpi4k_grid

>  <i_i_glide_lignum>  (221) 
38

>  <i_i_glide_rotatable_bonds>  (221) 
4

>  <r_i_docking_score>  (221) 
-3.69906

>  <r_i_glide_ligand_efficiency>  (221) 
-0.127554

>  <r_i_glide_ligand_efficiency_sa>  (221) 
-0.391886

>  <r_i_glide_ligand_efficiency_ln>  (221) 
-0.846991

>  <r_i_glide_gscore>  (221) 
-3.69906

>  <r_i_glide_lipo>  (221) 
-0.869897

>  <r_i_glide_hbond>  (221) 
-0.370651

>  <r_i_glide_metal>  (221) 
-0

>  <r_i_glide_rewards>  (221) 
-0.664317

>  <r_i_glide_evdw>  (221) 
-24.6319

>  <r_i_glide_ecoul>  (221) 
-4.55798

>  <r_i_glide_erotb>  (221) 
0.121097

>  <r_i_glide_esite>  (221) 
0

>  <r_i_glide_emodel>  (221) 
-34.8623

>  <r_i_glide_energy>  (221) 
-29.1899

>  <r_i_glide_einternal>  (221) 
3.22274

>  <r_i_glide_intrahb_reward>  (221) 
-0

>  <i_i_glide_confnum>  (221) 
1

>  <i_i_glide_posenum>  (221) 
30

>  <r_i_glide_eff_state_penalty>  (221) 
0

>  <ligand_id>  (221) 
48

>  <original_smiles>  (221) 
CC1(C)CCC2OCC34CC(CO)=CC(O)C5C6(C)CCC3C(C(O)C1C24)C56C

>  <smiles>  (221) 
[H]OC([H])([H])C1=C([H])C([H])(O[H])C2([H])C3(C([H])([H])[H])C([H])([H])C([H])([H])C4([H])C([H])(C([H])(O[H])C5([H])C6([H])C([H])(OC([H])([H])C46C1([H])[H])C([H])([H])C([H])([H])C5(C([H])([H])[H])C([H])([H])[H])C23C([H])([H])[H]

$$$$
49:0:0
     RDKit          3D

 52 56  0  0  1  0  0  0  0  0999 V2000
    5.1685   -3.7994    2.7997 O   0  0  0  0  0  0  0  0  0  0  0  0
    4.3303   -4.5885    3.2357 C   0  0  0  0  0  0  0  0  0  0  0  0
    4.5822   -5.8971    3.3141 N   0  0  0  0  0  0  0  0  0  0  0  0
    5.7469   -6.5260    2.7056 C   0  0  0  0  0  0  0  0  0  0  0  0
    5.5235   -6.7607    1.1972 C   0  0  0  0  0  0  0  0  0  0  0  0
    4.8650   -8.1339    1.1283 C   0  0  0  0  0  0  0  0  0  0  0  0
    5.5578   -8.9346    2.2310 C   0  0  0  0  0  0  0  0  0  0  0  0
    5.9591   -7.9243    3.3127 C   0  0  0  0  0  0  0  0  0  0  0  0
    2.9267   -4.0868    3.6910 C   0  0  2  0  0  0  0  0  0  0  0  0
    1.8723   -5.1780    3.5758 C   0  0  0  0  0  0  0  0  0  0  0  0
    1.4137   -5.6728    2.4173 N   0  0  0  0  0  0  0  0  0  0  0  0
    0.4901   -6.6909    2.6536 C   0  0  0  0  0  0  0  0  0  0  0  0
   -0.2072   -7.4518    1.6842 C   0  0  0  0  0  0  0  0  0  0  0  0
   -1.1493   -8.4250    2.0796 C   0  0  0  0  0  0  0  0  0  0  0  0
   -1.4211   -8.6558    3.4200 C   0  0  0  0  0  0  0  0  0  0  0  0
   -0.7282   -7.9342    4.4025 C   0  0  0  0  0  0  0  0  0  0  0  0
    0.2054   -6.9519    4.0243 C   0  0  0  0  0  0  0  0  0  0  0  0
    1.1862   -5.8967    5.0395 S   0  0  0  0  0  0  0  0  0  0  0  0
    2.3991   -2.7786    3.1512 N   0  0  0  0  0  0  0  0  0  0  0  0
    1.5114   -2.0550    3.9230 C   0  0  0  0  0  0  0  0  0  0  0  0
    1.1213   -2.4888    4.9971 O   0  0  0  0  0  0  0  0  0  0  0  0
    1.1128   -0.6506    3.4961 C   0  0  0  0  0  0  0  0  0  0  0  0
    0.8475   -0.2141    2.2335 C   0  0  0  0  0  0  0  0  0  0  0  0
    0.6732    1.4900    2.2108 S   0  0  0  0  0  0  0  0  0  0  0  0
    0.8295    1.5916    3.8919 N   0  0  0  0  0  0  0  0  0  0  0  0
    1.0059    0.3953    4.4174 N   0  0  0  0  0  0  0  0  0  0  0  0
    2.9958   -2.2562    1.9608 C   0  0  0  0  0  0  0  0  0  0  0  0
    3.6851   -1.0229    1.9919 C   0  0  0  0  0  0  0  0  0  0  0  0
    4.2453   -0.5269    0.8127 C   0  0  0  0  0  0  0  0  0  0  0  0
    4.2069   -1.3241   -0.3515 C   0  0  0  0  0  0  0  0  0  0  0  0
    3.6055   -2.5249   -0.3832 N   0  0  0  0  0  0  0  0  0  0  0  0
    3.0236   -2.9856    0.7420 C   0  0  0  0  0  0  0  0  0  0  0  0
    3.8999   -6.5065    3.7482 H   0  0  0  0  0  0  0  0  0  0  0  0
    6.6476   -5.9187    2.8551 H   0  0  0  0  0  0  0  0  0  0  0  0
    4.9342   -5.9892    0.6986 H   0  0  0  0  0  0  0  0  0  0  0  0
    6.4901   -6.7848    0.6925 H   0  0  0  0  0  0  0  0  0  0  0  0
    3.8033   -8.0358    1.3544 H   0  0  0  0  0  0  0  0  0  0  0  0
    4.9499   -8.6055    0.1500 H   0  0  0  0  0  0  0  0  0  0  0  0
    4.9162   -9.7187    2.6284 H   0  0  0  0  0  0  0  0  0  0  0  0
    6.4540   -9.4079    1.8327 H   0  0  0  0  0  0  0  0  0  0  0  0
    7.0039   -8.0566    3.6004 H   0  0  0  0  0  0  0  0  0  0  0  0
    5.3640   -8.0544    4.2173 H   0  0  0  0  0  0  0  0  0  0  0  0
    3.0888   -3.9393    4.7708 H   0  0  0  0  0  0  0  0  0  0  0  0
   -0.0073   -7.3181    0.6328 H   0  0  0  0  0  0  0  0  0  0  0  0
   -1.6529   -9.0250    1.3246 H   0  0  0  0  0  0  0  0  0  0  0  0
   -2.1220   -9.4388    3.6975 H   0  0  0  0  0  0  0  0  0  0  0  0
   -0.8959   -8.1365    5.4428 H   0  0  0  0  0  0  0  0  0  0  0  0
    0.8155   -0.7655    1.2945 H   0  0  0  0  0  0  0  0  0  0  0  0
    3.8023   -0.4680    2.9135 H   0  0  0  0  0  0  0  0  0  0  0  0
    4.6815    0.4595    0.7996 H   0  0  0  0  0  0  0  0  0  0  0  0
    4.6090   -0.9535   -1.2824 H   0  0  0  0  0  0  0  0  0  0  0  0
    2.5480   -3.9542    0.6536 H   0  0  0  0  0  0  0  0  0  0  0  0
  1  2  2  0
  2  3  1  0
  2  9  1  0
  3  4  1  0
  3 33  1  0
  4  8  1  0
  4  5  1  0
  4 34  1  0
  5  6  1  0
  5 35  1  0
  5 36  1  0
  6  7  1  0
  6 37  1  0
  6 38  1  0
  7  8  1  0
  7 39  1  0
  7 40  1  0
  8 41  1  0
  8 42  1  0
  9 10  1  0
  9 19  1  0
  9 43  1  1
 10 18  1  0
 10 11  2  0
 11 12  1  0
 12 17  2  0
 12 13  1  0
 13 14  2  0
 13 44  1  0
 14 15  1  0
 14 45  1  0
 15 16  2  0
 15 46  1  0
 16 17  1  0
 16 47  1  0
 17 18  1  0
 19 20  1  0
 19 27  1  0
 20 21  2  0
 20 22  1  0
 22 26  1  0
 22 23  2  0
 23 24  1  0
 23 48  1  0
 24 25  1  0
 25 26  2  0
 27 32  1  0
 27 28  2  0
 28 29  1  0
 28 49  1  0
 29 30  2  0
 29 50  1  0
 30 31  1  0
 30 51  1  0
 31 32  2  0
 32 52  1  0
M  END
>  <i_m_ct_stereo_status>  (222) 
1

>  <s_m_source_file>  (222) 
/var/tmp/pbs.5076255.sched01/tmp5gbx45fw/500pp51iot.sdf

>  <i_m_source_file_index>  (222) 
39

>  <i_lp_mmshare_version>  (222) 
48012

>  <i_f3d_flags>  (222) 
0

>  <s_epik_input>  (222) 
W0NIMl0xW0NIMl1bQ0gyXVtDSDJdW0NIXTFbTkhdQyg9TylbQ0BIXShjKG4yKXNjKGMyMylbY0hdW2NIXVtjSF1bY0hdMylOKEMoPU8pYzRbY0hdc25uNCljNVtjSF1bY0hdW2NIXW5bY0hdNQ==

>  <s_epik_cmdline>  (222) 
J2VwaWtfcHl0aG9uJywgJy1waHQnLCAnMi4wJywgJy1waCcsICc3LjAnLCAnLXRuJywgJzgnLCAnLW1hJywgJzIwMCcsICctaW1hZScsICc8aW5maWxlLm1hZT4nLCAnLW9tYWUnLCAnPG91dGZpbGUubWFlPic=

>  <r_lp_tautomer_probability>  (222) 
1

>  <r_epik_Ionization_Penalty>  (222) 
0.00023714

>  <r_epik_Ionization_Penalty_Charging>  (222) 
0

>  <r_epik_Ionization_Penalty_Neutral>  (222) 
0.00023714

>  <r_epik_State_Penalty>  (222) 
-0

>  <r_epik_Charging_Adjusted_Penalty>  (222) 
0

>  <i_epik_Tot_Q>  (222) 
0

>  <i_epik_Tot_abs_Q>  (222) 
0

>  <s_lp_Force_Field>  (222) 
OPLS3e

>  <r_lp_Energy>  (222) 
65.0292

>  <b_lp_Chiralities_Consistent>  (222) 
1

>  <s_lp_Variant>  (222) 
49:0-1

>  <s_i_glide_gridfile>  (222) 
pfpi4k_grid

>  <i_i_glide_lignum>  (222) 
39

>  <i_i_glide_rotatable_bonds>  (222) 
8

>  <r_i_docking_score>  (222) 
-1.93361

>  <r_i_glide_ligand_efficiency>  (222) 
-0.0604253

>  <r_i_glide_ligand_efficiency_sa>  (222) 
-0.191838

>  <r_i_glide_ligand_efficiency_ln>  (222) 
-0.432988

>  <r_i_glide_gscore>  (222) 
-1.93361

>  <r_i_glide_lipo>  (222) 
-0.234751

>  <r_i_glide_hbond>  (222) 
0

>  <r_i_glide_metal>  (222) 
-0

>  <r_i_glide_rewards>  (222) 
-0.261173

>  <r_i_glide_evdw>  (222) 
-33.8921

>  <r_i_glide_ecoul>  (222) 
-2.50287

>  <r_i_glide_erotb>  (222) 
0.653888

>  <r_i_glide_esite>  (222) 
-0.0215363

>  <r_i_glide_emodel>  (222) 
-37.71

>  <r_i_glide_energy>  (222) 
-36.395

>  <r_i_glide_einternal>  (222) 
4.12446

>  <r_i_glide_intrahb_reward>  (222) 
-0

>  <i_i_glide_confnum>  (222) 
17

>  <i_i_glide_posenum>  (222) 
17

>  <r_i_glide_eff_state_penalty>  (222) 
0

>  <ligand_id>  (222) 
49

>  <original_smiles>  (222) 
O=C(NC1CCCC1)C(c1nc2ccccc2s1)N(C(=O)c1csnn1)c1cccnc1

>  <smiles>  (222) 
[H]c1nc([H])c(N(C(=O)c2nnsc2[H])C([H])(C(=O)N([H])C2([H])C([H])([H])C([H])([H])C([H])([H])C2([H])[H])c2nc3c([H])c([H])c([H])c([H])c3s2)c([H])c1[H]

$$$$
49:0:1
     RDKit          3D

 52 56  0  0  1  0  0  0  0  0999 V2000
    6.1317   -3.5136    0.2596 O   0  0  0  0  0  0  0  0  0  0  0  0
    5.6286   -3.8661    1.3339 C   0  0  0  0  0  0  0  0  0  0  0  0
    6.2064   -4.7698    2.1393 N   0  0  0  0  0  0  0  0  0  0  0  0
    7.4948   -5.3895    1.8880 C   0  0  0  0  0  0  0  0  0  0  0  0
    7.3356   -6.4912    0.8422 C   0  0  0  0  0  0  0  0  0  0  0  0
    6.9951   -7.7385    1.6557 C   0  0  0  0  0  0  0  0  0  0  0  0
    7.8462   -7.5989    2.9191 C   0  0  0  0  0  0  0  0  0  0  0  0
    7.9992   -6.0890    3.1575 C   0  0  0  0  0  0  0  0  0  0  0  0
    4.3138   -3.2373    1.8754 C   0  0  2  0  0  0  0  0  0  0  0  0
    3.2559   -4.3053    1.9577 C   0  0  0  0  0  0  0  0  0  0  0  0
    2.5580   -4.4938    3.0866 N   0  0  0  0  0  0  0  0  0  0  0  0
    1.6587   -5.5333    2.9519 C   0  0  0  0  0  0  0  0  0  0  0  0
    0.7919   -6.0477    3.9509 C   0  0  0  0  0  0  0  0  0  0  0  0
   -0.1149   -7.0853    3.6279 C   0  0  0  0  0  0  0  0  0  0  0  0
   -0.2033   -7.5696    2.3028 C   0  0  0  0  0  0  0  0  0  0  0  0
    0.6662   -7.0488    1.3164 C   0  0  0  0  0  0  0  0  0  0  0  0
    1.6411   -6.0971    1.6525 C   0  0  0  0  0  0  0  0  0  0  0  0
    2.9520   -5.4875    0.6987 S   0  0  0  0  0  0  0  0  0  0  0  0
    3.8541   -1.9791    1.2000 N   0  0  0  0  0  0  0  0  0  0  0  0
    3.7053   -0.7671    1.8667 C   0  0  0  0  0  0  0  0  0  0  0  0
    3.3277    0.2438    1.3084 O   0  0  0  0  0  0  0  0  0  0  0  0
    3.9407   -0.6743    3.3399 C   0  0  0  0  0  0  0  0  0  0  0  0
    3.2351    0.1838    4.1659 C   0  0  0  0  0  0  0  0  0  0  0  0
    3.8402    0.0579    5.7869 S   0  0  0  0  0  0  0  0  0  0  0  0
    5.0139   -1.0900    5.2962 N   0  0  0  0  0  0  0  0  0  0  0  0
    5.0252   -1.2484    4.0209 N   0  0  0  0  0  0  0  0  0  0  0  0
    3.7824   -1.9799   -0.2459 C   0  0  0  0  0  0  0  0  0  0  0  0
    4.5408   -1.0272   -0.9801 C   0  0  0  0  0  0  0  0  0  0  0  0
    4.5115   -1.0722   -2.3867 C   0  0  0  0  0  0  0  0  0  0  0  0
    3.7674   -2.0940   -3.0134 C   0  0  0  0  0  0  0  0  0  0  0  0
    3.0468   -2.9999   -2.3099 N   0  0  0  0  0  0  0  0  0  0  0  0
    2.9962   -2.9162   -0.9658 C   0  0  0  0  0  0  0  0  0  0  0  0
    5.7302   -5.0247    2.9963 H   0  0  0  0  0  0  0  0  0  0  0  0
    8.1967   -4.6237    1.5532 H   0  0  0  0  0  0  0  0  0  0  0  0
    6.5846   -6.2390    0.0884 H   0  0  0  0  0  0  0  0  0  0  0  0
    8.2811   -6.6484    0.3212 H   0  0  0  0  0  0  0  0  0  0  0  0
    5.9368   -7.7232    1.9202 H   0  0  0  0  0  0  0  0  0  0  0  0
    7.1905   -8.6659    1.1155 H   0  0  0  0  0  0  0  0  0  0  0  0
    7.3998   -8.1099    3.7731 H   0  0  0  0  0  0  0  0  0  0  0  0
    8.8276   -8.0451    2.7487 H   0  0  0  0  0  0  0  0  0  0  0  0
    9.0443   -5.8445    3.3464 H   0  0  0  0  0  0  0  0  0  0  0  0
    7.4411   -5.7750    4.0394 H   0  0  0  0  0  0  0  0  0  0  0  0
    4.5613   -3.0998    2.9036 H   0  0  0  0  0  0  0  0  0  0  0  0
    0.8545   -5.6749    4.9732 H   0  0  0  0  0  0  0  0  0  0  0  0
   -0.7437   -7.5140    4.3896 H   0  0  0  0  0  0  0  0  0  0  0  0
   -0.8761   -8.3960    2.0452 H   0  0  0  0  0  0  0  0  0  0  0  0
    0.6420   -7.4576    0.3215 H   0  0  0  0  0  0  0  0  0  0  0  0
    2.4436    0.8974    3.9336 H   0  0  0  0  0  0  0  0  0  0  0  0
    5.1264   -0.2561   -0.4723 H   0  0  0  0  0  0  0  0  0  0  0  0
    5.0075   -0.3291   -2.9721 H   0  0  0  0  0  0  0  0  0  0  0  0
    3.7055   -2.1726   -4.1029 H   0  0  0  0  0  0  0  0  0  0  0  0
    2.3125   -3.5819   -0.4786 H   0  0  0  0  0  0  0  0  0  0  0  0
  1  2  2  0
  2  3  1  0
  2  9  1  0
  3  4  1  0
  3 33  1  0
  4  8  1  0
  4  5  1  0
  4 34  1  0
  5  6  1  0
  5 35  1  0
  5 36  1  0
  6  7  1  0
  6 37  1  0
  6 38  1  0
  7  8  1  0
  7 39  1  0
  7 40  1  0
  8 41  1  0
  8 42  1  0
  9 10  1  0
  9 19  1  0
  9 43  1  1
 10 18  1  0
 10 11  2  0
 11 12  1  0
 12 17  2  0
 12 13  1  0
 13 14  2  0
 13 44  1  0
 14 15  1  0
 14 45  1  0
 15 16  2  0
 15 46  1  0
 16 17  1  0
 16 47  1  0
 17 18  1  0
 19 20  1  0
 19 27  1  0
 20 21  2  0
 20 22  1  0
 22 26  1  0
 22 23  2  0
 23 24  1  0
 23 48  1  0
 24 25  1  0
 25 26  2  0
 27 32  1  0
 27 28  2  0
 28 29  1  0
 28 49  1  0
 29 30  2  0
 29 50  1  0
 30 31  1  0
 30 51  1  0
 31 32  2  0
 32 52  1  0
M  END
>  <i_m_ct_stereo_status>  (223) 
1

>  <s_m_source_file>  (223) 
/var/tmp/pbs.5076255.sched01/tmp5gbx45fw/500pp51iot.sdf

>  <i_m_source_file_index>  (223) 
39

>  <i_lp_mmshare_version>  (223) 
48012

>  <i_f3d_flags>  (223) 
0

>  <s_epik_input>  (223) 
W0NIMl0xW0NIMl1bQ0gyXVtDSDJdW0NIXTFbTkhdQyg9TylbQ0BIXShjKG4yKXNjKGMyMylbY0hdW2NIXVtjSF1bY0hdMylOKEMoPU8pYzRbY0hdc25uNCljNVtjSF1bY0hdW2NIXW5bY0hdNQ==

>  <s_epik_cmdline>  (223) 
J2VwaWtfcHl0aG9uJywgJy1waHQnLCAnMi4wJywgJy1waCcsICc3LjAnLCAnLXRuJywgJzgnLCAnLW1hJywgJzIwMCcsICctaW1hZScsICc8aW5maWxlLm1hZT4nLCAnLW9tYWUnLCAnPG91dGZpbGUubWFlPic=

>  <r_lp_tautomer_probability>  (223) 
1

>  <r_epik_Ionization_Penalty>  (223) 
0.00023714

>  <r_epik_Ionization_Penalty_Charging>  (223) 
0

>  <r_epik_Ionization_Penalty_Neutral>  (223) 
0.00023714

>  <r_epik_State_Penalty>  (223) 
-0

>  <r_epik_Charging_Adjusted_Penalty>  (223) 
0

>  <i_epik_Tot_Q>  (223) 
0

>  <i_epik_Tot_abs_Q>  (223) 
0

>  <s_lp_Force_Field>  (223) 
OPLS3e

>  <r_lp_Energy>  (223) 
65.0292

>  <b_lp_Chiralities_Consistent>  (223) 
1

>  <s_lp_Variant>  (223) 
49:0-1

>  <s_i_glide_gridfile>  (223) 
pfpi4k_grid

>  <i_i_glide_lignum>  (223) 
39

>  <i_i_glide_rotatable_bonds>  (223) 
8

>  <r_i_docking_score>  (223) 
-1.80474

>  <r_i_glide_ligand_efficiency>  (223) 
-0.0563981

>  <r_i_glide_ligand_efficiency_sa>  (223) 
-0.179053

>  <r_i_glide_ligand_efficiency_ln>  (223) 
-0.404131

>  <r_i_glide_gscore>  (223) 
-1.80474

>  <r_i_glide_lipo>  (223) 
-0.285309

>  <r_i_glide_hbond>  (223) 
0

>  <r_i_glide_metal>  (223) 
-0

>  <r_i_glide_rewards>  (223) 
-0.32602

>  <r_i_glide_evdw>  (223) 
-37.4295

>  <r_i_glide_ecoul>  (223) 
0.24364

>  <r_i_glide_erotb>  (223) 
0.653888

>  <r_i_glide_esite>  (223) 
-0.0123707

>  <r_i_glide_emodel>  (223) 
-36.2133

>  <r_i_glide_energy>  (223) 
-37.1858

>  <r_i_glide_einternal>  (223) 
3.43886

>  <r_i_glide_intrahb_reward>  (223) 
-0

>  <i_i_glide_confnum>  (223) 
18

>  <i_i_glide_posenum>  (223) 
28

>  <r_i_glide_eff_state_penalty>  (223) 
0

>  <ligand_id>  (223) 
49

>  <original_smiles>  (223) 
O=C(NC1CCCC1)C(c1nc2ccccc2s1)N(C(=O)c1csnn1)c1cccnc1

>  <smiles>  (223) 
[H]c1nc([H])c(N(C(=O)c2nnsc2[H])C([H])(C(=O)N([H])C2([H])C([H])([H])C([H])([H])C([H])([H])C2([H])[H])c2nc3c([H])c([H])c([H])c([H])c3s2)c([H])c1[H]

$$$$
49:0:2
     RDKit          3D

 52 56  0  0  1  0  0  0  0  0999 V2000
    5.3043   -2.7070    3.5344 O   0  0  0  0  0  0  0  0  0  0  0  0
    4.4564   -3.5770    3.3305 C   0  0  0  0  0  0  0  0  0  0  0  0
    4.7695   -4.8677    3.1357 N   0  0  0  0  0  0  0  0  0  0  0  0
    6.1031   -5.4400    3.1598 C   0  0  0  0  0  0  0  0  0  0  0  0
    6.8801   -5.0514    1.8911 C   0  0  0  0  0  0  0  0  0  0  0  0
    6.5335   -6.1463    0.8889 C   0  0  0  0  0  0  0  0  0  0  0  0
    6.4715   -7.4207    1.7303 C   0  0  0  0  0  0  0  0  0  0  0  0
    6.0133   -6.9797    3.1288 C   0  0  0  0  0  0  0  0  0  0  0  0
    2.9628   -3.1706    3.3222 C   0  0  2  0  0  0  0  0  0  0  0  0
    2.0442   -4.3809    3.3701 C   0  0  0  0  0  0  0  0  0  0  0  0
    1.9258   -5.2625    2.3669 N   0  0  0  0  0  0  0  0  0  0  0  0
    1.0187   -6.2582    2.6677 C   0  0  0  0  0  0  0  0  0  0  0  0
    0.6191   -7.3336    1.8456 C   0  0  0  0  0  0  0  0  0  0  0  0
   -0.3630   -8.2506    2.2915 C   0  0  0  0  0  0  0  0  0  0  0  0
   -0.9998   -8.0847    3.5360 C   0  0  0  0  0  0  0  0  0  0  0  0
   -0.6181   -7.0166    4.3566 C   0  0  0  0  0  0  0  0  0  0  0  0
    0.4049   -6.1375    3.9490 C   0  0  0  0  0  0  0  0  0  0  0  0
    1.1432   -4.7733    4.8332 S   0  0  0  0  0  0  0  0  0  0  0  0
    2.5687   -2.1138    2.3146 N   0  0  0  0  0  0  0  0  0  0  0  0
    1.7987   -1.0176    2.6480 C   0  0  0  0  0  0  0  0  0  0  0  0
    1.7923   -0.0139    1.9382 O   0  0  0  0  0  0  0  0  0  0  0  0
    0.8209   -1.0289    3.7891 C   0  0  0  0  0  0  0  0  0  0  0  0
   -0.2956   -0.2347    3.7937 C   0  0  0  0  0  0  0  0  0  0  0  0
   -1.2423   -0.4983    5.2170 S   0  0  0  0  0  0  0  0  0  0  0  0
   -0.1080   -1.6481    5.8113 N   0  0  0  0  0  0  0  0  0  0  0  0
    0.9351   -1.7544    4.9901 N   0  0  0  0  0  0  0  0  0  0  0  0
    3.2683   -2.1586    1.0338 C   0  0  0  0  0  0  0  0  0  0  0  0
    4.0432   -1.0621    0.5807 C   0  0  0  0  0  0  0  0  0  0  0  0
    4.7144   -1.1356   -0.6531 C   0  0  0  0  0  0  0  0  0  0  0  0
    4.6425   -2.3276   -1.3963 C   0  0  0  0  0  0  0  0  0  0  0  0
    3.9468   -3.3954   -0.9793 N   0  0  0  0  0  0  0  0  0  0  0  0
    3.2550   -3.2987    0.1791 C   0  0  0  0  0  0  0  0  0  0  0  0
    4.0028   -5.4925    2.9231 H   0  0  0  0  0  0  0  0  0  0  0  0
    6.6281   -5.1088    4.0604 H   0  0  0  0  0  0  0  0  0  0  0  0
    6.6456   -4.0557    1.5128 H   0  0  0  0  0  0  0  0  0  0  0  0
    7.9514   -5.0690    2.0983 H   0  0  0  0  0  0  0  0  0  0  0  0
    5.5561   -5.9433    0.4493 H   0  0  0  0  0  0  0  0  0  0  0  0
    7.2614   -6.2114    0.0820 H   0  0  0  0  0  0  0  0  0  0  0  0
    5.8064   -8.1677    1.2957 H   0  0  0  0  0  0  0  0  0  0  0  0
    7.4667   -7.8621    1.7955 H   0  0  0  0  0  0  0  0  0  0  0  0
    6.6575   -7.4201    3.8912 H   0  0  0  0  0  0  0  0  0  0  0  0
    5.0028   -7.3364    3.3369 H   0  0  0  0  0  0  0  0  0  0  0  0
    2.9657   -2.7185    4.3293 H   0  0  0  0  0  0  0  0  0  0  0  0
    1.1040   -7.4672    0.8909 H   0  0  0  0  0  0  0  0  0  0  0  0
   -0.6180   -9.1197    1.6988 H   0  0  0  0  0  0  0  0  0  0  0  0
   -1.7266   -8.8054    3.8875 H   0  0  0  0  0  0  0  0  0  0  0  0
   -1.0587   -6.8512    5.3228 H   0  0  0  0  0  0  0  0  0  0  0  0
   -0.6398    0.5161    3.0686 H   0  0  0  0  0  0  0  0  0  0  0  0
    4.1559   -0.1587    1.1635 H   0  0  0  0  0  0  0  0  0  0  0  0
    5.2688   -0.2818   -1.0147 H   0  0  0  0  0  0  0  0  0  0  0  0
    5.1421   -2.4384   -2.3498 H   0  0  0  0  0  0  0  0  0  0  0  0
    2.7076   -4.2052    0.3755 H   0  0  0  0  0  0  0  0  0  0  0  0
  1  2  2  0
  2  3  1  0
  2  9  1  0
  3  4  1  0
  3 33  1  0
  4  8  1  0
  4  5  1  0
  4 34  1  0
  5  6  1  0
  5 35  1  0
  5 36  1  0
  6  7  1  0
  6 37  1  0
  6 38  1  0
  7  8  1  0
  7 39  1  0
  7 40  1  0
  8 41  1  0
  8 42  1  0
  9 10  1  0
  9 19  1  0
  9 43  1  1
 10 18  1  0
 10 11  2  0
 11 12  1  0
 12 17  2  0
 12 13  1  0
 13 14  2  0
 13 44  1  0
 14 15  1  0
 14 45  1  0
 15 16  2  0
 15 46  1  0
 16 17  1  0
 16 47  1  0
 17 18  1  0
 19 20  1  0
 19 27  1  0
 20 21  2  0
 20 22  1  0
 22 26  1  0
 22 23  2  0
 23 24  1  0
 23 48  1  0
 24 25  1  0
 25 26  2  0
 27 32  1  0
 27 28  2  0
 28 29  1  0
 28 49  1  0
 29 30  2  0
 29 50  1  0
 30 31  1  0
 30 51  1  0
 31 32  2  0
 32 52  1  0
M  END
>  <i_m_ct_stereo_status>  (224) 
1

>  <s_m_source_file>  (224) 
/var/tmp/pbs.5076255.sched01/tmp5gbx45fw/500pp51iot.sdf

>  <i_m_source_file_index>  (224) 
39

>  <i_lp_mmshare_version>  (224) 
48012

>  <i_f3d_flags>  (224) 
0

>  <s_epik_input>  (224) 
W0NIMl0xW0NIMl1bQ0gyXVtDSDJdW0NIXTFbTkhdQyg9TylbQ0BIXShjKG4yKXNjKGMyMylbY0hdW2NIXVtjSF1bY0hdMylOKEMoPU8pYzRbY0hdc25uNCljNVtjSF1bY0hdW2NIXW5bY0hdNQ==

>  <s_epik_cmdline>  (224) 
J2VwaWtfcHl0aG9uJywgJy1waHQnLCAnMi4wJywgJy1waCcsICc3LjAnLCAnLXRuJywgJzgnLCAnLW1hJywgJzIwMCcsICctaW1hZScsICc8aW5maWxlLm1hZT4nLCAnLW9tYWUnLCAnPG91dGZpbGUubWFlPic=

>  <r_lp_tautomer_probability>  (224) 
1

>  <r_epik_Ionization_Penalty>  (224) 
0.00023714

>  <r_epik_Ionization_Penalty_Charging>  (224) 
0

>  <r_epik_Ionization_Penalty_Neutral>  (224) 
0.00023714

>  <r_epik_State_Penalty>  (224) 
-0

>  <r_epik_Charging_Adjusted_Penalty>  (224) 
0

>  <i_epik_Tot_Q>  (224) 
0

>  <i_epik_Tot_abs_Q>  (224) 
0

>  <s_lp_Force_Field>  (224) 
OPLS3e

>  <r_lp_Energy>  (224) 
65.0292

>  <b_lp_Chiralities_Consistent>  (224) 
1

>  <s_lp_Variant>  (224) 
49:0-1

>  <s_i_glide_gridfile>  (224) 
pfpi4k_grid

>  <i_i_glide_lignum>  (224) 
39

>  <i_i_glide_rotatable_bonds>  (224) 
8

>  <r_i_docking_score>  (224) 
-1.74492

>  <r_i_glide_ligand_efficiency>  (224) 
-0.0545287

>  <r_i_glide_ligand_efficiency_sa>  (224) 
-0.173118

>  <r_i_glide_ligand_efficiency_ln>  (224) 
-0.390735

>  <r_i_glide_gscore>  (224) 
-1.74492

>  <r_i_glide_lipo>  (224) 
-0.219721

>  <r_i_glide_hbond>  (224) 
0

>  <r_i_glide_metal>  (224) 
-0

>  <r_i_glide_rewards>  (224) 
-0.260709

>  <r_i_glide_evdw>  (224) 
-34.7466

>  <r_i_glide_ecoul>  (224) 
-0.809097

>  <r_i_glide_erotb>  (224) 
0.653888

>  <r_i_glide_esite>  (224) 
-0.0596823

>  <r_i_glide_emodel>  (224) 
-34.5177

>  <r_i_glide_energy>  (224) 
-35.5557

>  <r_i_glide_einternal>  (224) 
7.47386

>  <r_i_glide_intrahb_reward>  (224) 
-0

>  <i_i_glide_confnum>  (224) 
15

>  <i_i_glide_posenum>  (224) 
12

>  <r_i_glide_eff_state_penalty>  (224) 
0

>  <ligand_id>  (224) 
49

>  <original_smiles>  (224) 
O=C(NC1CCCC1)C(c1nc2ccccc2s1)N(C(=O)c1csnn1)c1cccnc1

>  <smiles>  (224) 
[H]c1nc([H])c(N(C(=O)c2nnsc2[H])C([H])(C(=O)N([H])C2([H])C([H])([H])C([H])([H])C([H])([H])C2([H])[H])c2nc3c([H])c([H])c([H])c([H])c3s2)c([H])c1[H]

$$$$
50:0:0
     RDKit          3D

 40 44  0  0  1  0  0  0  0  0999 V2000
    1.6889   -3.8497   -1.3297 C   0  0  0  0  0  0  0  0  0  0  0  0
    2.7772   -2.7894   -1.4724 C   0  0  2  0  0  0  0  0  0  0  0  0
    2.6782   -2.2348   -2.7889 O   0  0  0  0  0  0  0  0  0  0  0  0
    3.9425   -2.1594   -3.3725 C   0  0  1  0  0  0  0  0  0  0  0  0
    4.1273   -0.9705   -4.1073 O   0  0  0  0  0  0  0  0  0  0  0  0
    4.9014   -2.2546   -2.2032 C   0  0  2  0  0  0  0  0  0  0  0  0
    6.1847   -2.7247   -2.5657 O   0  0  0  0  0  0  0  0  0  0  0  0
    6.9376   -3.2212   -1.5308 C   0  0  0  0  0  0  0  0  0  0  0  0
    8.2494   -3.3712   -1.9027 N   0  0  0  0  0  0  0  0  0  0  0  0
    6.4199   -3.5722   -0.3320 C   0  0  0  0  0  0  0  0  0  0  0  0
    7.2466   -4.1888    0.6454 C   0  0  0  0  0  0  0  0  0  0  0  0
    7.9787   -4.7000    1.3800 N   0  0  0  0  0  0  0  0  0  0  0  0
    4.9209   -3.4817   -0.0491 C   0  0  1  0  0  0  0  0  0  0  0  0
    4.3362   -4.6420    0.7770 C   0  0  0  0  0  0  0  0  0  0  0  0
    4.2502   -5.9975    0.4158 C   0  0  0  0  0  0  0  0  0  0  0  0
    3.6143   -6.8853    1.3147 C   0  0  0  0  0  0  0  0  0  0  0  0
    3.0791   -6.4260    2.5406 C   0  0  0  0  0  0  0  0  0  0  0  0
    3.1622   -5.0647    2.9063 C   0  0  0  0  0  0  0  0  0  0  0  0
    3.8006   -4.2064    1.9962 C   0  0  0  0  0  0  0  0  0  0  0  0
    4.0341   -2.8392    2.0364 N   0  0  0  0  0  0  0  0  0  0  0  0
    3.7706   -1.9022    2.9618 N   0  0  0  0  0  0  0  0  0  0  0  0
    4.2577   -0.7974    2.4537 N   0  0  0  0  0  0  0  0  0  0  0  0
    4.8240   -1.0481    1.1873 C   0  0  0  0  0  0  0  0  0  0  0  0
    4.6595   -2.3766    0.9339 C   0  0  0  0  0  0  0  0  0  0  0  0
    4.2005   -3.3202   -1.3979 C   0  0  1  0  0  0  0  0  0  0  0  0
    1.7068   -4.3138   -0.3458 H   0  0  0  0  0  0  0  0  0  0  0  0
    1.7757   -4.6242   -2.0743 H   0  0  0  0  0  0  0  0  0  0  0  0
    0.7082   -3.4083   -1.5130 H   0  0  0  0  0  0  0  0  0  0  0  0
    2.6317   -1.9963   -0.7360 H   0  0  0  0  0  0  0  0  0  0  0  0
    4.0507   -3.0092   -4.0496 H   0  0  0  0  0  0  0  0  0  0  0  0
    3.9821   -0.2411   -3.5186 H   0  0  0  0  0  0  0  0  0  0  0  0
    4.9438   -1.2954   -1.6800 H   0  0  0  0  0  0  0  0  0  0  0  0
    8.9875   -3.6897   -1.2935 H   0  0  0  0  0  0  0  0  0  0  0  0
    8.5288   -3.2658   -2.8840 H   0  0  0  0  0  0  0  0  0  0  0  0
    4.6352   -6.3419   -0.5334 H   0  0  0  0  0  0  0  0  0  0  0  0
    3.5355   -7.9262    1.0553 H   0  0  0  0  0  0  0  0  0  0  0  0
    2.6044   -7.1318    3.2061 H   0  0  0  0  0  0  0  0  0  0  0  0
    2.7585   -4.6969    3.8395 H   0  0  0  0  0  0  0  0  0  0  0  0
    5.2827   -0.2672    0.5922 H   0  0  0  0  0  0  0  0  0  0  0  0
    4.2563   -4.2587   -1.9388 H   0  0  0  0  0  0  0  0  0  0  0  0
  1  2  1  0
  1 26  1  0
  1 27  1  0
  1 28  1  0
  2 25  1  0
  2  3  1  0
  2 29  1  1
  3  4  1  0
  4  5  1  0
  4  6  1  0
  4 30  1  6
  5 31  1  0
  6 25  1  0
  6  7  1  0
  6 32  1  1
  7  8  1  0
  8 10  2  0
  8  9  1  0
  9 33  1  0
  9 34  1  0
 10 11  1  0
 13 10  1  6
 11 12  3  0
 13 24  1  0
 13 14  1  0
 13 25  1  0
 14 19  1  0
 14 15  2  0
 15 16  1  0
 15 35  1  0
 16 17  2  0
 16 36  1  0
 17 18  1  0
 17 37  1  0
 18 19  2  0
 18 38  1  0
 19 20  1  0
 20 24  1  0
 20 21  1  0
 21 22  2  0
 22 23  1  0
 23 24  2  0
 23 39  1  0
 25 40  1  6
M  END
>  <i_m_ct_stereo_status>  (225) 
1

>  <s_m_source_file>  (225) 
/var/tmp/pbs.5076255.sched01/tmp5gbx45fw/500pp51iot.sdf

>  <i_m_source_file_index>  (225) 
40

>  <i_lp_mmshare_version>  (225) 
48012

>  <i_f3d_flags>  (225) 
0

>  <s_epik_input>  (225) 
TiNDW0NAQEhdMUMoPU4vW0hdKVxPW0NAQEhdKFtDQEhdKFtPSF0pT1tDQEhdMltDSDNdKVtDQEhdMltDQEBdMTNjNGMoW2NIXVtjSF1bY0hdW2NIXTQpbjVjM1tjSF1ubjU=

>  <s_epik_cmdline>  (225) 
J2VwaWtfcHl0aG9uJywgJy1waHQnLCAnMi4wJywgJy1waCcsICc3LjAnLCAnLXRuJywgJzgnLCAnLW1hJywgJzIwMCcsICctaW1hZScsICc8aW5maWxlLm1hZT4nLCAnLW9tYWUnLCAnPG91dGZpbGUubWFlPic=

>  <r_lp_tautomer_probability>  (225) 
1

>  <r_epik_Ionization_Penalty>  (225) 
1.65874e-05

>  <r_epik_Ionization_Penalty_Charging>  (225) 
0

>  <r_epik_Ionization_Penalty_Neutral>  (225) 
1.65874e-05

>  <r_epik_State_Penalty>  (225) 
-0

>  <r_epik_Charging_Adjusted_Penalty>  (225) 
0

>  <i_epik_Tot_Q>  (225) 
0

>  <i_epik_Tot_abs_Q>  (225) 
0

>  <s_epik_Chemistry_Notes>  (225) 
This compound contains an acetal/aminal-like group ( X-CH(R)-Y where X, Y are N, S, or O) that may be acid/base labile, releasing an aldehyde.

>  <s_lp_Force_Field>  (225) 
OPLS3e

>  <r_lp_Energy>  (225) 
14.457

>  <b_lp_Chiralities_Consistent>  (225) 
1

>  <s_lp_Variant>  (225) 
50:0-1

>  <s_i_glide_gridfile>  (225) 
pfpi4k_grid

>  <i_i_glide_lignum>  (225) 
40

>  <i_i_glide_rotatable_bonds>  (225) 
2

>  <r_i_docking_score>  (225) 
-4.57269

>  <r_i_glide_ligand_efficiency>  (225) 
-0.182908

>  <r_i_glide_ligand_efficiency_sa>  (225) 
-0.534825

>  <r_i_glide_ligand_efficiency_ln>  (225) 
-1.08386

>  <r_i_glide_gscore>  (225) 
-4.57269

>  <r_i_glide_lipo>  (225) 
-0.593667

>  <r_i_glide_hbond>  (225) 
-0.32

>  <r_i_glide_metal>  (225) 
-0

>  <r_i_glide_rewards>  (225) 
-1.53827

>  <r_i_glide_evdw>  (225) 
-21.1344

>  <r_i_glide_ecoul>  (225) 
-6.70086

>  <r_i_glide_erotb>  (225) 
0

>  <r_i_glide_esite>  (225) 
-0.0589098

>  <r_i_glide_emodel>  (225) 
-33.9526

>  <r_i_glide_energy>  (225) 
-27.8353

>  <r_i_glide_einternal>  (225) 
0.393715

>  <r_i_glide_intrahb_reward>  (225) 
-0

>  <i_i_glide_confnum>  (225) 
1

>  <i_i_glide_posenum>  (225) 
35

>  <r_i_glide_eff_state_penalty>  (225) 
0

>  <ligand_id>  (225) 
50

>  <original_smiles>  (225) 
CC1OC(O)C2OC(=N)C(C#N)C3(c4ccccc4-n4nncc43)C12

>  <smiles>  (225) 
[H]OC1([H])OC([H])(C([H])([H])[H])C2([H])C3(C(C#N)=C(N([H])[H])OC12[H])c1c([H])c([H])c([H])c([H])c1-n1nnc([H])c13

$$$$
50:0:1
     RDKit          3D

 40 44  0  0  1  0  0  0  0  0999 V2000
    2.3254   -5.2691    0.0887 C   0  0  0  0  0  0  0  0  0  0  0  0
    2.7485   -5.3849    1.5531 C   0  0  2  0  0  0  0  0  0  0  0  0
    1.6620   -5.9889    2.2631 O   0  0  0  0  0  0  0  0  0  0  0  0
    1.3965   -5.2810    3.4441 C   0  0  1  0  0  0  0  0  0  0  0  0
    1.1098   -6.1241    4.5340 O   0  0  0  0  0  0  0  0  0  0  0  0
    2.6385   -4.4477    3.6923 C   0  0  2  0  0  0  0  0  0  0  0  0
    2.3862   -3.2861    4.4733 O   0  0  0  0  0  0  0  0  0  0  0  0
    3.3335   -2.2961    4.3691 C   0  0  0  0  0  0  0  0  0  0  0  0
    3.2192   -1.3632    5.3835 N   0  0  0  0  0  0  0  0  0  0  0  0
    4.2474   -2.2631    3.3722 C   0  0  0  0  0  0  0  0  0  0  0  0
    5.1407   -1.1655    3.2842 C   0  0  0  0  0  0  0  0  0  0  0  0
    5.8389   -0.2493    3.2602 N   0  0  0  0  0  0  0  0  0  0  0  0
    4.2686   -3.2891    2.2398 C   0  0  1  0  0  0  0  0  0  0  0  0
    4.5708   -2.7027    0.8490 C   0  0  0  0  0  0  0  0  0  0  0  0
    3.8084   -1.7778    0.1170 C   0  0  0  0  0  0  0  0  0  0  0  0
    4.2504   -1.4310   -1.1783 C   0  0  0  0  0  0  0  0  0  0  0  0
    5.4275   -1.9932   -1.7250 C   0  0  0  0  0  0  0  0  0  0  0  0
    6.2004   -2.9180   -0.9942 C   0  0  0  0  0  0  0  0  0  0  0  0
    5.7379   -3.2467    0.2901 C   0  0  0  0  0  0  0  0  0  0  0  0
    6.2279   -4.1257    1.2370 N   0  0  0  0  0  0  0  0  0  0  0  0
    7.3182   -4.9100    1.2633 N   0  0  0  0  0  0  0  0  0  0  0  0
    7.2612   -5.5063    2.4321 N   0  0  0  0  0  0  0  0  0  0  0  0
    6.1270   -5.0709    3.1464 C   0  0  0  0  0  0  0  0  0  0  0  0
    5.4648   -4.1869    2.3465 C   0  0  0  0  0  0  0  0  0  0  0  0
    2.9341   -4.0443    2.2695 C   0  0  1  0  0  0  0  0  0  0  0  0
    3.1140   -4.8288   -0.5243 H   0  0  0  0  0  0  0  0  0  0  0  0
    1.4361   -4.6551   -0.0318 H   0  0  0  0  0  0  0  0  0  0  0  0
    2.0909   -6.2558   -0.3029 H   0  0  0  0  0  0  0  0  0  0  0  0
    3.6315   -6.0171    1.6446 H   0  0  0  0  0  0  0  0  0  0  0  0
    0.5331   -4.6370    3.2696 H   0  0  0  0  0  0  0  0  0  0  0  0
    1.9058   -6.5722    4.7771 H   0  0  0  0  0  0  0  0  0  0  0  0
    3.4222   -5.0802    4.1134 H   0  0  0  0  0  0  0  0  0  0  0  0
    3.8455   -0.5772    5.4950 H   0  0  0  0  0  0  0  0  0  0  0  0
    2.4067   -1.3522    5.9825 H   0  0  0  0  0  0  0  0  0  0  0  0
    2.8913   -1.3619    0.5167 H   0  0  0  0  0  0  0  0  0  0  0  0
    3.6740   -0.7300   -1.7573 H   0  0  0  0  0  0  0  0  0  0  0  0
    5.7290   -1.7150   -2.7166 H   0  0  0  0  0  0  0  0  0  0  0  0
    7.1002   -3.3642   -1.4047 H   0  0  0  0  0  0  0  0  0  0  0  0
    5.9060   -5.4139    4.1451 H   0  0  0  0  0  0  0  0  0  0  0  0
    2.1539   -3.3576    1.9388 H   0  0  0  0  0  0  0  0  0  0  0  0
  1  2  1  0
  1 26  1  0
  1 27  1  0
  1 28  1  0
  2 25  1  0
  2  3  1  0
  2 29  1  6
  3  4  1  0
  4  5  1  0
  4  6  1  0
  4 30  1  6
  5 31  1  0
  6 25  1  0
  6  7  1  0
  6 32  1  1
  7  8  1  0
  8 10  2  0
  8  9  1  0
  9 33  1  0
  9 34  1  0
 10 11  1  0
 13 10  1  1
 11 12  3  0
 13 24  1  0
 13 14  1  0
 13 25  1  0
 14 19  1  0
 14 15  2  0
 15 16  1  0
 15 35  1  0
 16 17  2  0
 16 36  1  0
 17 18  1  0
 17 37  1  0
 18 19  2  0
 18 38  1  0
 19 20  1  0
 20 24  1  0
 20 21  1  0
 21 22  2  0
 22 23  1  0
 23 24  2  0
 23 39  1  0
 25 40  1  6
M  END
>  <i_m_ct_stereo_status>  (226) 
1

>  <s_m_source_file>  (226) 
/var/tmp/pbs.5076255.sched01/tmp5gbx45fw/500pp51iot.sdf

>  <i_m_source_file_index>  (226) 
40

>  <i_lp_mmshare_version>  (226) 
48012

>  <i_f3d_flags>  (226) 
0

>  <s_epik_input>  (226) 
TiNDW0NAQEhdMUMoPU4vW0hdKVxPW0NAQEhdKFtDQEhdKFtPSF0pT1tDQEhdMltDSDNdKVtDQEhdMltDQEBdMTNjNGMoW2NIXVtjSF1bY0hdW2NIXTQpbjVjM1tjSF1ubjU=

>  <s_epik_cmdline>  (226) 
J2VwaWtfcHl0aG9uJywgJy1waHQnLCAnMi4wJywgJy1waCcsICc3LjAnLCAnLXRuJywgJzgnLCAnLW1hJywgJzIwMCcsICctaW1hZScsICc8aW5maWxlLm1hZT4nLCAnLW9tYWUnLCAnPG91dGZpbGUubWFlPic=

>  <r_lp_tautomer_probability>  (226) 
1

>  <r_epik_Ionization_Penalty>  (226) 
1.65874e-05

>  <r_epik_Ionization_Penalty_Charging>  (226) 
0

>  <r_epik_Ionization_Penalty_Neutral>  (226) 
1.65874e-05

>  <r_epik_State_Penalty>  (226) 
-0

>  <r_epik_Charging_Adjusted_Penalty>  (226) 
0

>  <i_epik_Tot_Q>  (226) 
0

>  <i_epik_Tot_abs_Q>  (226) 
0

>  <s_epik_Chemistry_Notes>  (226) 
This compound contains an acetal/aminal-like group ( X-CH(R)-Y where X, Y are N, S, or O) that may be acid/base labile, releasing an aldehyde.

>  <s_lp_Force_Field>  (226) 
OPLS3e

>  <r_lp_Energy>  (226) 
14.457

>  <b_lp_Chiralities_Consistent>  (226) 
1

>  <s_lp_Variant>  (226) 
50:0-1

>  <s_i_glide_gridfile>  (226) 
pfpi4k_grid

>  <i_i_glide_lignum>  (226) 
40

>  <i_i_glide_rotatable_bonds>  (226) 
2

>  <r_i_docking_score>  (226) 
-2.72137

>  <r_i_glide_ligand_efficiency>  (226) 
-0.108855

>  <r_i_glide_ligand_efficiency_sa>  (226) 
-0.318293

>  <r_i_glide_ligand_efficiency_ln>  (226) 
-0.645045

>  <r_i_glide_gscore>  (226) 
-2.72137

>  <r_i_glide_lipo>  (226) 
-0.145242

>  <r_i_glide_hbond>  (226) 
0

>  <r_i_glide_metal>  (226) 
-0

>  <r_i_glide_rewards>  (226) 
-1.36785

>  <r_i_glide_evdw>  (226) 
-19.3127

>  <r_i_glide_ecoul>  (226) 
-1.50767

>  <r_i_glide_erotb>  (226) 
0

>  <r_i_glide_esite>  (226) 
-0.0164896

>  <r_i_glide_emodel>  (226) 
-24.3554

>  <r_i_glide_energy>  (226) 
-20.8204

>  <r_i_glide_einternal>  (226) 
0.137974

>  <r_i_glide_intrahb_reward>  (226) 
-0

>  <i_i_glide_confnum>  (226) 
2

>  <i_i_glide_posenum>  (226) 
22

>  <r_i_glide_eff_state_penalty>  (226) 
0

>  <ligand_id>  (226) 
50

>  <original_smiles>  (226) 
CC1OC(O)C2OC(=N)C(C#N)C3(c4ccccc4-n4nncc43)C12

>  <smiles>  (226) 
[H]OC1([H])OC([H])(C([H])([H])[H])C2([H])C3(C(C#N)=C(N([H])[H])OC12[H])c1c([H])c([H])c([H])c([H])c1-n1nnc([H])c13

$$$$
50:0:2
     RDKit          3D

 40 44  0  0  1  0  0  0  0  0999 V2000
    1.8986   -6.0908    0.7545 C   0  0  0  0  0  0  0  0  0  0  0  0
    2.5681   -6.0269    2.1251 C   0  0  2  0  0  0  0  0  0  0  0  0
    1.6416   -6.5610    3.0806 O   0  0  0  0  0  0  0  0  0  0  0  0
    1.5509   -5.7190    4.2007 C   0  0  1  0  0  0  0  0  0  0  0  0
    1.4948   -6.4311    5.4140 O   0  0  0  0  0  0  0  0  0  0  0  0
    2.7880   -4.8372    4.1288 C   0  0  2  0  0  0  0  0  0  0  0  0
    2.6367   -3.5916    4.7981 O   0  0  0  0  0  0  0  0  0  0  0  0
    3.5149   -2.6041    4.4180 C   0  0  0  0  0  0  0  0  0  0  0  0
    3.5445   -1.5638    5.3239 N   0  0  0  0  0  0  0  0  0  0  0  0
    4.2445   -2.6746    3.2750 C   0  0  0  0  0  0  0  0  0  0  0  0
    5.0869   -1.5857    2.9011 C   0  0  0  0  0  0  0  0  0  0  0  0
    5.7650   -0.6864    2.6300 N   0  0  0  0  0  0  0  0  0  0  0  0
    4.1011   -3.8339    2.2918 C   0  0  1  0  0  0  0  0  0  0  0  0
    4.1335   -3.4169    0.8083 C   0  0  0  0  0  0  0  0  0  0  0  0
    3.2227   -2.5953    0.1206 C   0  0  0  0  0  0  0  0  0  0  0  0
    3.4169   -2.3924   -1.2636 C   0  0  0  0  0  0  0  0  0  0  0  0
    4.5007   -2.9814   -1.9456 C   0  0  0  0  0  0  0  0  0  0  0  0
    5.4147   -3.7999   -1.2588 C   0  0  0  0  0  0  0  0  0  0  0  0
    5.2015   -3.9951    0.1136 C   0  0  0  0  0  0  0  0  0  0  0  0
    5.8900   -4.7428    1.0552 N   0  0  0  0  0  0  0  0  0  0  0  0
    7.0044   -5.4903    0.9801 N   0  0  0  0  0  0  0  0  0  0  0  0
    7.1882   -5.9304    2.2056 N   0  0  0  0  0  0  0  0  0  0  0  0
    6.1718   -5.4498    3.0544 C   0  0  0  0  0  0  0  0  0  0  0  0
    5.3379   -4.6893    2.2880 C   0  0  0  0  0  0  0  0  0  0  0  0
    2.8214   -4.6041    2.6403 C   0  0  1  0  0  0  0  0  0  0  0  0
    2.5445   -5.7132   -0.0392 H   0  0  0  0  0  0  0  0  0  0  0  0
    0.9924   -5.4992    0.7499 H   0  0  0  0  0  0  0  0  0  0  0  0
    1.6077   -7.1116    0.5142 H   0  0  0  0  0  0  0  0  0  0  0  0
    3.4789   -6.6277    2.1326 H   0  0  0  0  0  0  0  0  0  0  0  0
    0.6376   -5.1253    4.1065 H   0  0  0  0  0  0  0  0  0  0  0  0
    2.3295   -6.8542    5.5477 H   0  0  0  0  0  0  0  0  0  0  0  0
    3.6556   -5.4045    4.4681 H   0  0  0  0  0  0  0  0  0  0  0  0
    4.1516   -0.7584    5.2382 H   0  0  0  0  0  0  0  0  0  0  0  0
    2.8556   -1.4993    6.0616 H   0  0  0  0  0  0  0  0  0  0  0  0
    2.3836   -2.1485    0.6275 H   0  0  0  0  0  0  0  0  0  0  0  0
    2.7262   -1.7693   -1.8055 H   0  0  0  0  0  0  0  0  0  0  0  0
    4.6283   -2.8183   -3.0034 H   0  0  0  0  0  0  0  0  0  0  0  0
    6.2305   -4.2472   -1.7825 H   0  0  0  0  0  0  0  0  0  0  0  0
    6.1365   -5.6761    4.1092 H   0  0  0  0  0  0  0  0  0  0  0  0
    1.9686   -3.9755    2.3777 H   0  0  0  0  0  0  0  0  0  0  0  0
  1  2  1  0
  1 26  1  0
  1 27  1  0
  1 28  1  0
  2 25  1  0
  2  3  1  0
  2 29  1  6
  3  4  1  0
  4  5  1  0
  4  6  1  0
  4 30  1  6
  5 31  1  0
  6 25  1  0
  6  7  1  0
  6 32  1  1
  7  8  1  0
  8 10  2  0
  8  9  1  0
  9 33  1  0
  9 34  1  0
 10 11  1  0
 13 10  1  1
 11 12  3  0
 13 24  1  0
 13 14  1  0
 13 25  1  0
 14 19  1  0
 14 15  2  0
 15 16  1  0
 15 35  1  0
 16 17  2  0
 16 36  1  0
 17 18  1  0
 17 37  1  0
 18 19  2  0
 18 38  1  0
 19 20  1  0
 20 24  1  0
 20 21  1  0
 21 22  2  0
 22 23  1  0
 23 24  2  0
 23 39  1  0
 25 40  1  1
M  END
>  <i_m_ct_stereo_status>  (227) 
1

>  <s_m_source_file>  (227) 
/var/tmp/pbs.5076255.sched01/tmp5gbx45fw/500pp51iot.sdf

>  <i_m_source_file_index>  (227) 
40

>  <i_lp_mmshare_version>  (227) 
48012

>  <i_f3d_flags>  (227) 
0

>  <s_epik_input>  (227) 
TiNDW0NAQEhdMUMoPU4vW0hdKVxPW0NAQEhdKFtDQEhdKFtPSF0pT1tDQEhdMltDSDNdKVtDQEhdMltDQEBdMTNjNGMoW2NIXVtjSF1bY0hdW2NIXTQpbjVjM1tjSF1ubjU=

>  <s_epik_cmdline>  (227) 
J2VwaWtfcHl0aG9uJywgJy1waHQnLCAnMi4wJywgJy1waCcsICc3LjAnLCAnLXRuJywgJzgnLCAnLW1hJywgJzIwMCcsICctaW1hZScsICc8aW5maWxlLm1hZT4nLCAnLW9tYWUnLCAnPG91dGZpbGUubWFlPic=

>  <r_lp_tautomer_probability>  (227) 
1

>  <r_epik_Ionization_Penalty>  (227) 
1.65874e-05

>  <r_epik_Ionization_Penalty_Charging>  (227) 
0

>  <r_epik_Ionization_Penalty_Neutral>  (227) 
1.65874e-05

>  <r_epik_State_Penalty>  (227) 
-0

>  <r_epik_Charging_Adjusted_Penalty>  (227) 
0

>  <i_epik_Tot_Q>  (227) 
0

>  <i_epik_Tot_abs_Q>  (227) 
0

>  <s_epik_Chemistry_Notes>  (227) 
This compound contains an acetal/aminal-like group ( X-CH(R)-Y where X, Y are N, S, or O) that may be acid/base labile, releasing an aldehyde.

>  <s_lp_Force_Field>  (227) 
OPLS3e

>  <r_lp_Energy>  (227) 
14.457

>  <b_lp_Chiralities_Consistent>  (227) 
1

>  <s_lp_Variant>  (227) 
50:0-1

>  <s_i_glide_gridfile>  (227) 
pfpi4k_grid

>  <i_i_glide_lignum>  (227) 
40

>  <i_i_glide_rotatable_bonds>  (227) 
2

>  <r_i_docking_score>  (227) 
-2.52814

>  <r_i_glide_ligand_efficiency>  (227) 
-0.101126

>  <r_i_glide_ligand_efficiency_sa>  (227) 
-0.295693

>  <r_i_glide_ligand_efficiency_ln>  (227) 
-0.599245

>  <r_i_glide_gscore>  (227) 
-2.52814

>  <r_i_glide_lipo>  (227) 
-0.154253

>  <r_i_glide_hbond>  (227) 
0

>  <r_i_glide_metal>  (227) 
-0

>  <r_i_glide_rewards>  (227) 
-1.33987

>  <r_i_glide_evdw>  (227) 
-19.8862

>  <r_i_glide_ecoul>  (227) 
-0.230661

>  <r_i_glide_erotb>  (227) 
0

>  <r_i_glide_esite>  (227) 
-0.00510832

>  <r_i_glide_emodel>  (227) 
-23.3729

>  <r_i_glide_energy>  (227) 
-20.1169

>  <r_i_glide_einternal>  (227) 
0.145089

>  <r_i_glide_intrahb_reward>  (227) 
-0

>  <i_i_glide_confnum>  (227) 
2

>  <i_i_glide_posenum>  (227) 
25

>  <r_i_glide_eff_state_penalty>  (227) 
0

>  <ligand_id>  (227) 
50

>  <original_smiles>  (227) 
CC1OC(O)C2OC(=N)C(C#N)C3(c4ccccc4-n4nncc43)C12

>  <smiles>  (227) 
[H]OC1([H])OC([H])(C([H])([H])[H])C2([H])C3(C(C#N)=C(N([H])[H])OC12[H])c1c([H])c([H])c([H])c([H])c1-n1nnc([H])c13

$$$$
51:0:0
     RDKit          3D

 54 58  0  0  1  0  0  0  0  0999 V2000
    3.4799   -1.0033    0.4786 C   0  0  0  0  0  0  0  0  0  0  0  0
    4.6810   -1.9355    0.7215 C   0  0  0  0  0  0  0  0  0  0  0  0
    5.7074   -1.7190   -0.4051 C   0  0  0  0  0  0  0  0  0  0  0  0
    5.2807   -1.6316    2.1154 C   0  0  0  0  0  0  0  0  0  0  0  0
    4.8465   -2.7938    3.0292 C   0  0  0  0  0  0  0  0  0  0  0  0
    4.8048   -4.0153    2.1011 C   0  0  1  0  0  0  0  0  0  0  0  0
    6.2315   -4.5399    1.8158 C   0  0  0  0  0  0  0  0  0  0  0  0
    3.9230   -5.1577    2.6465 C   0  0  0  0  0  0  0  0  0  0  0  0
    4.3889   -5.9916    3.6114 C   0  0  0  0  0  0  0  0  0  0  0  0
    3.7061   -7.2761    4.0658 C   0  0  0  0  0  0  0  0  0  0  0  0
    2.7373   -7.7684    2.9769 C   0  0  1  0  0  0  0  0  0  0  0  0
    3.5902   -8.3079    1.7904 C   0  0  0  0  0  0  0  0  0  0  0  0
    1.7917   -8.8950    3.3741 C   0  0  2  0  0  0  0  0  0  0  0  0
    1.2605   -9.7539    2.3529 O   0  0  0  0  0  0  0  0  0  0  0  0
    0.4776   -8.6137    2.6786 C   0  0  2  0  0  0  0  0  0  0  0  0
    0.6468   -7.3477    1.8633 C   0  0  1  0  0  0  0  0  0  0  0  0
   -0.5830   -6.6624    1.7321 O   0  0  0  0  0  0  0  0  0  0  0  0
    1.7782   -6.5831    2.6077 C   0  0  1  0  0  0  0  0  0  0  0  0
    1.1220   -5.9691    3.8963 C   0  0  0  0  0  0  0  0  0  0  0  0
    2.5604   -5.3895    1.9408 C   0  0  2  0  0  0  0  0  0  0  0  0
    2.7401   -5.3424    0.3982 C   0  0  1  0  0  0  0  0  0  0  0  0
    1.5222   -5.4600   -0.3110 O   0  0  0  0  0  0  0  0  0  0  0  0
    3.3688   -4.0117    0.0285 C   0  0  0  0  0  0  0  0  0  0  0  0
    4.2731   -3.4022    0.8152 C   0  0  0  0  0  0  0  0  0  0  0  0
    3.7910    0.0406    0.5068 H   0  0  0  0  0  0  0  0  0  0  0  0
    2.7057   -1.1265    1.2359 H   0  0  0  0  0  0  0  0  0  0  0  0
    3.0182   -1.1674   -0.4945 H   0  0  0  0  0  0  0  0  0  0  0  0
    6.0518   -0.6843   -0.4204 H   0  0  0  0  0  0  0  0  0  0  0  0
    5.2629   -1.9387   -1.3778 H   0  0  0  0  0  0  0  0  0  0  0  0
    6.5796   -2.3635   -0.2986 H   0  0  0  0  0  0  0  0  0  0  0  0
    6.3697   -1.6099    2.0621 H   0  0  0  0  0  0  0  0  0  0  0  0
    4.9784   -0.6622    2.5157 H   0  0  0  0  0  0  0  0  0  0  0  0
    5.4993   -2.9258    3.8914 H   0  0  0  0  0  0  0  0  0  0  0  0
    3.8449   -2.5864    3.4103 H   0  0  0  0  0  0  0  0  0  0  0  0
    6.2051   -5.3807    1.1204 H   0  0  0  0  0  0  0  0  0  0  0  0
    6.7395   -4.8672    2.7195 H   0  0  0  0  0  0  0  0  0  0  0  0
    6.8656   -3.7776    1.3704 H   0  0  0  0  0  0  0  0  0  0  0  0
    5.3404   -5.8098    4.0830 H   0  0  0  0  0  0  0  0  0  0  0  0
    4.4682   -8.0345    4.2393 H   0  0  0  0  0  0  0  0  0  0  0  0
    3.2200   -7.1233    5.0298 H   0  0  0  0  0  0  0  0  0  0  0  0
    2.9913   -8.5210    0.9088 H   0  0  0  0  0  0  0  0  0  0  0  0
    4.0729   -9.2478    2.0666 H   0  0  0  0  0  0  0  0  0  0  0  0
    4.3827   -7.6255    1.4894 H   0  0  0  0  0  0  0  0  0  0  0  0
    1.8031   -9.2964    4.3874 H   0  0  0  0  0  0  0  0  0  0  0  0
   -0.4596   -8.8030    3.2026 H   0  0  0  0  0  0  0  0  0  0  0  0
    0.9584   -7.6582    0.8628 H   0  0  0  0  0  0  0  0  0  0  0  0
   -1.1616   -7.2680    1.2922 H   0  0  0  0  0  0  0  0  0  0  0  0
    0.3336   -5.2576    3.6467 H   0  0  0  0  0  0  0  0  0  0  0  0
    1.8282   -5.4006    4.5024 H   0  0  0  0  0  0  0  0  0  0  0  0
    0.6735   -6.7138    4.5556 H   0  0  0  0  0  0  0  0  0  0  0  0
    1.9774   -4.4933    2.1571 H   0  0  0  0  0  0  0  0  0  0  0  0
    3.4024   -6.1323    0.0503 H   0  0  0  0  0  0  0  0  0  0  0  0
    1.7588   -5.4559   -1.2335 H   0  0  0  0  0  0  0  0  0  0  0  0
    2.9695   -3.5043   -0.8365 H   0  0  0  0  0  0  0  0  0  0  0  0
  1  2  1  0
  1 25  1  0
  1 26  1  0
  1 27  1  0
  2 24  1  0
  2  3  1  0
  2  4  1  0
  3 28  1  0
  3 29  1  0
  3 30  1  0
  4  5  1  0
  4 31  1  0
  4 32  1  0
  5  6  1  0
  5 33  1  0
  5 34  1  0
  6 24  1  0
  6  7  1  6
  6  8  1  0
  7 35  1  0
  7 36  1  0
  7 37  1  0
  8 20  1  0
  8  9  2  0
  9 10  1  0
  9 38  1  0
 10 11  1  0
 10 39  1  0
 10 40  1  0
 11 18  1  0
 11 12  1  6
 11 13  1  0
 12 41  1  0
 12 42  1  0
 12 43  1  0
 13 15  1  0
 13 14  1  0
 13 44  1  1
 14 15  1  0
 15 16  1  0
 15 45  1  1
 16 17  1  0
 16 18  1  0
 16 46  1  6
 17 47  1  0
 18 19  1  1
 18 20  1  0
 19 48  1  0
 19 49  1  0
 19 50  1  0
 20 21  1  0
 20 51  1  1
 21 22  1  0
 21 23  1  0
 21 52  1  6
 22 53  1  0
 23 24  2  0
 23 54  1  0
M  END
>  <i_m_ct_stereo_status>  (228) 
1

>  <s_m_source_file>  (228) 
/var/tmp/pbs.5076255.sched01/tmp5gbx45fw/500pp51iot.sdf

>  <i_m_source_file_index>  (228) 
41

>  <i_lp_mmshare_version>  (228) 
48012

>  <i_f3d_flags>  (228) 
0

>  <s_epik_input>  (228) 
W0NIMl0xW0NIMl1DKFtDSDNdKShbQ0gzXSlDMj1bQ0hdW0NASF0oW09IXSlbQ0BIXShDPTNbQ0BdMTJbQ0gzXSlbQ0BdNChbQ0gzXSlbQ0BAXShbQ0gzXSkoW0NIMl1bQ0hdMylbQ0BIXTVbQ0BIXShPNSlbQ0BIXTRbT0hd

>  <s_epik_cmdline>  (228) 
J2VwaWtfcHl0aG9uJywgJy1waHQnLCAnMi4wJywgJy1waCcsICc3LjAnLCAnLXRuJywgJzgnLCAnLW1hJywgJzIwMCcsICctaW1hZScsICc8aW5maWxlLm1hZT4nLCAnLW9tYWUnLCAnPG91dGZpbGUubWFlPic=

>  <r_lp_tautomer_probability>  (228) 
1

>  <r_epik_Ionization_Penalty>  (228) 
2.0787e-07

>  <r_epik_Ionization_Penalty_Charging>  (228) 
0

>  <r_epik_Ionization_Penalty_Neutral>  (228) 
2.0787e-07

>  <r_epik_State_Penalty>  (228) 
-0

>  <r_epik_Charging_Adjusted_Penalty>  (228) 
0

>  <i_epik_Tot_Q>  (228) 
0

>  <i_epik_Tot_abs_Q>  (228) 
0

>  <s_lp_Force_Field>  (228) 
OPLS3e

>  <r_lp_Energy>  (228) 
60.2424

>  <b_lp_Chiralities_Consistent>  (228) 
1

>  <s_lp_Variant>  (228) 
51:0-1

>  <s_i_glide_gridfile>  (228) 
pfpi4k_grid

>  <i_i_glide_lignum>  (228) 
41

>  <i_i_glide_rotatable_bonds>  (228) 
2

>  <r_i_docking_score>  (228) 
-3.97155

>  <r_i_glide_ligand_efficiency>  (228) 
-0.165481

>  <r_i_glide_ligand_efficiency_sa>  (228) 
-0.47733

>  <r_i_glide_ligand_efficiency_ln>  (228) 
-0.950574

>  <r_i_glide_gscore>  (228) 
-3.97155

>  <r_i_glide_lipo>  (228) 
-0.24844

>  <r_i_glide_hbond>  (228) 
0

>  <r_i_glide_metal>  (228) 
-0

>  <r_i_glide_rewards>  (228) 
-1.15595

>  <r_i_glide_evdw>  (228) 
-22.9988

>  <r_i_glide_ecoul>  (228) 
-9.44815

>  <r_i_glide_erotb>  (228) 
0

>  <r_i_glide_esite>  (228) 
0

>  <r_i_glide_emodel>  (228) 
-40.8226

>  <r_i_glide_energy>  (228) 
-32.4469

>  <r_i_glide_einternal>  (228) 
0.658185

>  <r_i_glide_intrahb_reward>  (228) 
-0

>  <i_i_glide_confnum>  (228) 
1

>  <i_i_glide_posenum>  (228) 
21

>  <r_i_glide_eff_state_penalty>  (228) 
0

>  <ligand_id>  (228) 
51

>  <original_smiles>  (228) 
CC1(C)CCC2(C)C3=CCC4(C)C5OC5C(O)C4(C)C3C(O)C=C12

>  <smiles>  (228) 
[H]OC1([H])C([H])=C2C(C([H])([H])[H])(C3=C([H])C([H])([H])C4(C([H])([H])[H])C5([H])OC5([H])C([H])(O[H])C4(C([H])([H])[H])C31[H])C([H])([H])C([H])([H])C2(C([H])([H])[H])C([H])([H])[H]

$$$$
51:0:1
     RDKit          3D

 54 58  0  0  1  0  0  0  0  0999 V2000
    3.1986   -1.9375    0.9803 C   0  0  0  0  0  0  0  0  0  0  0  0
    4.3355   -2.9727    1.0639 C   0  0  0  0  0  0  0  0  0  0  0  0
    5.2389   -2.8238   -0.1779 C   0  0  0  0  0  0  0  0  0  0  0  0
    5.1256   -2.7510    2.3782 C   0  0  0  0  0  0  0  0  0  0  0  0
    4.7060   -3.8889    3.3271 C   0  0  0  0  0  0  0  0  0  0  0  0
    4.4507   -5.0837    2.3991 C   0  0  1  0  0  0  0  0  0  0  0  0
    5.7931   -5.7146    1.9447 C   0  0  0  0  0  0  0  0  0  0  0  0
    3.5492   -6.1633    3.0356 C   0  0  0  0  0  0  0  0  0  0  0  0
    4.0537   -7.0538    3.9307 C   0  0  0  0  0  0  0  0  0  0  0  0
    3.3210   -8.2860    4.4520 C   0  0  0  0  0  0  0  0  0  0  0  0
    2.1859   -8.6693    3.4818 C   0  0  1  0  0  0  0  0  0  0  0  0
    2.8433   -9.2512    2.1923 C   0  0  0  0  0  0  0  0  0  0  0  0
    1.1989   -9.7192    3.9745 C   0  0  2  0  0  0  0  0  0  0  0  0
    0.4708  -10.4898    2.9954 O   0  0  0  0  0  0  0  0  0  0  0  0
   -0.1640   -9.3059    3.4589 C   0  0  2  0  0  0  0  0  0  0  0  0
    0.0154   -8.0443    2.6478 C   0  0  1  0  0  0  0  0  0  0  0  0
   -1.1507   -7.2390    2.6310 O   0  0  0  0  0  0  0  0  0  0  0  0
    1.2980   -7.3980    3.2506 C   0  0  1  0  0  0  0  0  0  0  0  0
    0.8548   -6.7552    4.6145 C   0  0  0  0  0  0  0  0  0  0  0  0
    2.0979   -6.2661    2.5017 C   0  0  2  0  0  0  0  0  0  0  0  0
    2.0997   -6.2172    0.9494 C   0  0  1  0  0  0  0  0  0  0  0  0
    0.7797   -6.2524    0.4339 O   0  0  0  0  0  0  0  0  0  0  0  0
    2.7710   -4.9240    0.5163 C   0  0  0  0  0  0  0  0  0  0  0  0
    3.8091   -4.4025    1.1961 C   0  0  0  0  0  0  0  0  0  0  0  0
    3.5967   -0.9233    0.9769 H   0  0  0  0  0  0  0  0  0  0  0  0
    2.5185   -2.0124    1.8285 H   0  0  0  0  0  0  0  0  0  0  0  0
    2.6134   -2.0477    0.0692 H   0  0  0  0  0  0  0  0  0  0  0  0
    5.6731   -1.8236   -0.2342 H   0  0  0  0  0  0  0  0  0  0  0  0
    4.6647   -2.9873   -1.0921 H   0  0  0  0  0  0  0  0  0  0  0  0
    6.0597   -3.5414   -0.1837 H   0  0  0  0  0  0  0  0  0  0  0  0
    6.1990   -2.8220    2.1945 H   0  0  0  0  0  0  0  0  0  0  0  0
    4.9608   -1.7687    2.8240 H   0  0  0  0  0  0  0  0  0  0  0  0
    5.4470   -4.0907    4.1004 H   0  0  0  0  0  0  0  0  0  0  0  0
    3.7801   -3.6060    3.8317 H   0  0  0  0  0  0  0  0  0  0  0  0
    5.6133   -6.5408    1.2536 H   0  0  0  0  0  0  0  0  0  0  0  0
    6.3855   -6.0909    2.7783 H   0  0  0  0  0  0  0  0  0  0  0  0
    6.4286   -5.0022    1.4243 H   0  0  0  0  0  0  0  0  0  0  0  0
    5.0662   -6.9550    4.2842 H   0  0  0  0  0  0  0  0  0  0  0  0
    4.0306   -9.1102    4.5281 H   0  0  0  0  0  0  0  0  0  0  0  0
    2.9686   -8.1063    5.4680 H   0  0  0  0  0  0  0  0  0  0  0  0
    2.1295   -9.3938    1.3814 H   0  0  0  0  0  0  0  0  0  0  0  0
    3.2746  -10.2343    2.3967 H   0  0  0  0  0  0  0  0  0  0  0  0
    3.6534   -8.6345    1.8075 H   0  0  0  0  0  0  0  0  0  0  0  0
    1.2954  -10.1506    4.9696 H   0  0  0  0  0  0  0  0  0  0  0  0
   -1.0367   -9.4344    4.0958 H   0  0  0  0  0  0  0  0  0  0  0  0
    0.1825   -8.3742    1.6246 H   0  0  0  0  0  0  0  0  0  0  0  0
   -1.8701   -7.8015    2.3820 H   0  0  0  0  0  0  0  0  0  0  0  0
    0.1030   -5.9783    4.4645 H   0  0  0  0  0  0  0  0  0  0  0  0
    1.6764   -6.2601    5.1351 H   0  0  0  0  0  0  0  0  0  0  0  0
    0.4281   -7.4745    5.3151 H   0  0  0  0  0  0  0  0  0  0  0  0
    1.6227   -5.3265    2.7925 H   0  0  0  0  0  0  0  0  0  0  0  0
    2.6776   -7.0363    0.5227 H   0  0  0  0  0  0  0  0  0  0  0  0
    0.4550   -7.1459    0.5043 H   0  0  0  0  0  0  0  0  0  0  0  0
    2.3222   -4.3790   -0.3006 H   0  0  0  0  0  0  0  0  0  0  0  0
  1  2  1  0
  1 25  1  0
  1 26  1  0
  1 27  1  0
  2 24  1  0
  2  3  1  0
  2  4  1  0
  3 28  1  0
  3 29  1  0
  3 30  1  0
  4  5  1  0
  4 31  1  0
  4 32  1  0
  5  6  1  0
  5 33  1  0
  5 34  1  0
  6 24  1  0
  6  7  1  6
  6  8  1  0
  7 35  1  0
  7 36  1  0
  7 37  1  0
  8 20  1  0
  8  9  2  0
  9 10  1  0
  9 38  1  0
 10 11  1  0
 10 39  1  0
 10 40  1  0
 11 18  1  0
 11 12  1  6
 11 13  1  0
 12 41  1  0
 12 42  1  0
 12 43  1  0
 13 15  1  0
 13 14  1  0
 13 44  1  1
 14 15  1  0
 15 16  1  0
 15 45  1  1
 16 17  1  0
 16 18  1  0
 16 46  1  6
 17 47  1  0
 18 19  1  1
 18 20  1  0
 19 48  1  0
 19 49  1  0
 19 50  1  0
 20 21  1  0
 20 51  1  1
 21 22  1  0
 21 23  1  0
 21 52  1  6
 22 53  1  0
 23 24  2  0
 23 54  1  0
M  END
>  <i_m_ct_stereo_status>  (229) 
1

>  <s_m_source_file>  (229) 
/var/tmp/pbs.5076255.sched01/tmp5gbx45fw/500pp51iot.sdf

>  <i_m_source_file_index>  (229) 
41

>  <i_lp_mmshare_version>  (229) 
48012

>  <i_f3d_flags>  (229) 
0

>  <s_epik_input>  (229) 
W0NIMl0xW0NIMl1DKFtDSDNdKShbQ0gzXSlDMj1bQ0hdW0NASF0oW09IXSlbQ0BIXShDPTNbQ0BdMTJbQ0gzXSlbQ0BdNChbQ0gzXSlbQ0BAXShbQ0gzXSkoW0NIMl1bQ0hdMylbQ0BIXTVbQ0BIXShPNSlbQ0BIXTRbT0hd

>  <s_epik_cmdline>  (229) 
J2VwaWtfcHl0aG9uJywgJy1waHQnLCAnMi4wJywgJy1waCcsICc3LjAnLCAnLXRuJywgJzgnLCAnLW1hJywgJzIwMCcsICctaW1hZScsICc8aW5maWxlLm1hZT4nLCAnLW9tYWUnLCAnPG91dGZpbGUubWFlPic=

>  <r_lp_tautomer_probability>  (229) 
1

>  <r_epik_Ionization_Penalty>  (229) 
2.0787e-07

>  <r_epik_Ionization_Penalty_Charging>  (229) 
0

>  <r_epik_Ionization_Penalty_Neutral>  (229) 
2.0787e-07

>  <r_epik_State_Penalty>  (229) 
-0

>  <r_epik_Charging_Adjusted_Penalty>  (229) 
0

>  <i_epik_Tot_Q>  (229) 
0

>  <i_epik_Tot_abs_Q>  (229) 
0

>  <s_lp_Force_Field>  (229) 
OPLS3e

>  <r_lp_Energy>  (229) 
60.2424

>  <b_lp_Chiralities_Consistent>  (229) 
1

>  <s_lp_Variant>  (229) 
51:0-1

>  <s_i_glide_gridfile>  (229) 
pfpi4k_grid

>  <i_i_glide_lignum>  (229) 
41

>  <i_i_glide_rotatable_bonds>  (229) 
2

>  <r_i_docking_score>  (229) 
-3.66187

>  <r_i_glide_ligand_efficiency>  (229) 
-0.152578

>  <r_i_glide_ligand_efficiency_sa>  (229) 
-0.440111

>  <r_i_glide_ligand_efficiency_ln>  (229) 
-0.876455

>  <r_i_glide_gscore>  (229) 
-3.66187

>  <r_i_glide_lipo>  (229) 
-0.160883

>  <r_i_glide_hbond>  (229) 
0

>  <r_i_glide_metal>  (229) 
-0

>  <r_i_glide_rewards>  (229) 
-1.15595

>  <r_i_glide_evdw>  (229) 
-23.9038

>  <r_i_glide_ecoul>  (229) 
-7.66571

>  <r_i_glide_erotb>  (229) 
0

>  <r_i_glide_esite>  (229) 
0

>  <r_i_glide_emodel>  (229) 
-39.1203

>  <r_i_glide_energy>  (229) 
-31.5695

>  <r_i_glide_einternal>  (229) 
0.882991

>  <r_i_glide_intrahb_reward>  (229) 
-0

>  <i_i_glide_confnum>  (229) 
1

>  <i_i_glide_posenum>  (229) 
31

>  <r_i_glide_eff_state_penalty>  (229) 
0

>  <ligand_id>  (229) 
51

>  <original_smiles>  (229) 
CC1(C)CCC2(C)C3=CCC4(C)C5OC5C(O)C4(C)C3C(O)C=C12

>  <smiles>  (229) 
[H]OC1([H])C([H])=C2C(C([H])([H])[H])(C3=C([H])C([H])([H])C4(C([H])([H])[H])C5([H])OC5([H])C([H])(O[H])C4(C([H])([H])[H])C31[H])C([H])([H])C([H])([H])C2(C([H])([H])[H])C([H])([H])[H]

$$$$
51:0:2
     RDKit          3D

 54 58  0  0  1  0  0  0  0  0999 V2000
    3.8135   -1.3039   -0.5548 C   0  0  0  0  0  0  0  0  0  0  0  0
    4.9904   -2.2839   -0.4667 C   0  0  0  0  0  0  0  0  0  0  0  0
    5.6645   -2.3749   -1.8457 C   0  0  0  0  0  0  0  0  0  0  0  0
    5.9615   -1.7872    0.6269 C   0  0  0  0  0  0  0  0  0  0  0  0
    5.7442   -2.7192    1.8302 C   0  0  0  0  0  0  0  0  0  0  0  0
    5.4147   -4.0820    1.2182 C   0  0  1  0  0  0  0  0  0  0  0  0
    6.6925   -4.7697    0.6773 C   0  0  0  0  0  0  0  0  0  0  0  0
    4.6732   -5.0224    2.1934 C   0  0  0  0  0  0  0  0  0  0  0  0
    5.3580   -5.7125    3.1421 C   0  0  0  0  0  0  0  0  0  0  0  0
    4.7764   -6.8300    4.0008 C   0  0  0  0  0  0  0  0  0  0  0  0
    3.5237   -7.4152    3.3208 C   0  0  1  0  0  0  0  0  0  0  0  0
    3.9948   -8.2313    2.0854 C   0  0  0  0  0  0  0  0  0  0  0  0
    2.6861   -8.3677    4.1634 C   0  0  2  0  0  0  0  0  0  0  0  0
    1.8560   -9.3441    3.4974 O   0  0  0  0  0  0  0  0  0  0  0  0
    1.2374   -8.1021    3.8022 C   0  0  2  0  0  0  0  0  0  0  0  0
    1.2158   -7.0191    2.7388 C   0  0  1  0  0  0  0  0  0  0  0  0
    0.0214   -6.2638    2.8273 O   0  0  0  0  0  0  0  0  0  0  0  0
    2.5437   -6.2390    3.0039 C   0  0  1  0  0  0  0  0  0  0  0  0
    2.2988   -5.3469    4.2719 C   0  0  0  0  0  0  0  0  0  0  0  0
    3.1588   -5.2487    1.9414 C   0  0  2  0  0  0  0  0  0  0  0  0
    2.9111   -5.4891    0.4332 C   0  0  1  0  0  0  0  0  0  0  0  0
    1.5519   -5.6181    0.0859 O   0  0  0  0  0  0  0  0  0  0  0  0
    3.4502   -4.2969   -0.3263 C   0  0  0  0  0  0  0  0  0  0  0  0
    4.5663   -3.6614    0.0323 C   0  0  0  0  0  0  0  0  0  0  0  0
    4.1841   -0.3111   -0.8115 H   0  0  0  0  0  0  0  0  0  0  0  0
    3.2831   -1.2170    0.3941 H   0  0  0  0  0  0  0  0  0  0  0  0
    3.0871   -1.5895   -1.3156 H   0  0  0  0  0  0  0  0  0  0  0  0
    6.0180   -1.3922   -2.1570 H   0  0  0  0  0  0  0  0  0  0  0  0
    4.9557   -2.7231   -2.5984 H   0  0  0  0  0  0  0  0  0  0  0  0
    6.5132   -3.0610   -1.8547 H   0  0  0  0  0  0  0  0  0  0  0  0
    6.9947   -1.8794    0.2888 H   0  0  0  0  0  0  0  0  0  0  0  0
    5.8192   -0.7377    0.8937 H   0  0  0  0  0  0  0  0  0  0  0  0
    6.6136   -2.7538    2.4735 H   0  0  0  0  0  0  0  0  0  0  0  0
    4.8961   -2.3614    2.4171 H   0  0  0  0  0  0  0  0  0  0  0  0
    6.4416   -5.7176    0.1968 H   0  0  0  0  0  0  0  0  0  0  0  0
    7.4291   -4.9637    1.4578 H   0  0  0  0  0  0  0  0  0  0  0  0
    7.1977   -4.1628   -0.0706 H   0  0  0  0  0  0  0  0  0  0  0  0
    6.4131   -5.5409    3.2929 H   0  0  0  0  0  0  0  0  0  0  0  0
    5.5331   -7.6062    4.1019 H   0  0  0  0  0  0  0  0  0  0  0  0
    4.5906   -6.4655    5.0106 H   0  0  0  0  0  0  0  0  0  0  0  0
    3.1646   -8.5407    1.4502 H   0  0  0  0  0  0  0  0  0  0  0  0
    4.4984   -9.1465    2.4029 H   0  0  0  0  0  0  0  0  0  0  0  0
    4.7012   -7.6874    1.4567 H   0  0  0  0  0  0  0  0  0  0  0  0
    2.9609   -8.5754    5.1960 H   0  0  0  0  0  0  0  0  0  0  0  0
    0.4891   -8.1033    4.5942 H   0  0  0  0  0  0  0  0  0  0  0  0
    1.2226   -7.5214    1.7704 H   0  0  0  0  0  0  0  0  0  0  0  0
   -0.0646   -5.9706    3.7220 H   0  0  0  0  0  0  0  0  0  0  0  0
    1.5056   -4.6178    4.1040 H   0  0  0  0  0  0  0  0  0  0  0  0
    3.1713   -4.7505    4.5404 H   0  0  0  0  0  0  0  0  0  0  0  0
    2.0306   -5.9192    5.1625 H   0  0  0  0  0  0  0  0  0  0  0  0
    2.6888   -4.2809    2.1250 H   0  0  0  0  0  0  0  0  0  0  0  0
    3.4388   -6.3728    0.0791 H   0  0  0  0  0  0  0  0  0  0  0  0
    1.5425   -5.6610   -0.8612 H   0  0  0  0  0  0  0  0  0  0  0  0
    2.8433   -3.9170   -1.1364 H   0  0  0  0  0  0  0  0  0  0  0  0
  1  2  1  0
  1 25  1  0
  1 26  1  0
  1 27  1  0
  2 24  1  0
  2  3  1  0
  2  4  1  0
  3 28  1  0
  3 29  1  0
  3 30  1  0
  4  5  1  0
  4 31  1  0
  4 32  1  0
  5  6  1  0
  5 33  1  0
  5 34  1  0
  6 24  1  0
  6  7  1  6
  6  8  1  0
  7 35  1  0
  7 36  1  0
  7 37  1  0
  8 20  1  0
  8  9  2  0
  9 10  1  0
  9 38  1  0
 10 11  1  0
 10 39  1  0
 10 40  1  0
 11 18  1  0
 11 12  1  6
 11 13  1  0
 12 41  1  0
 12 42  1  0
 12 43  1  0
 13 15  1  0
 13 14  1  0
 13 44  1  1
 14 15  1  0
 15 16  1  0
 15 45  1  1
 16 17  1  0
 16 18  1  0
 16 46  1  6
 17 47  1  0
 18 19  1  1
 18 20  1  0
 19 48  1  0
 19 49  1  0
 19 50  1  0
 20 21  1  0
 20 51  1  1
 21 22  1  0
 21 23  1  0
 21 52  1  6
 22 53  1  0
 23 24  2  0
 23 54  1  0
M  END
>  <i_m_ct_stereo_status>  (230) 
1

>  <s_m_source_file>  (230) 
/var/tmp/pbs.5076255.sched01/tmp5gbx45fw/500pp51iot.sdf

>  <i_m_source_file_index>  (230) 
41

>  <i_lp_mmshare_version>  (230) 
48012

>  <i_f3d_flags>  (230) 
0

>  <s_epik_input>  (230) 
W0NIMl0xW0NIMl1DKFtDSDNdKShbQ0gzXSlDMj1bQ0hdW0NASF0oW09IXSlbQ0BIXShDPTNbQ0BdMTJbQ0gzXSlbQ0BdNChbQ0gzXSlbQ0BAXShbQ0gzXSkoW0NIMl1bQ0hdMylbQ0BIXTVbQ0BIXShPNSlbQ0BIXTRbT0hd

>  <s_epik_cmdline>  (230) 
J2VwaWtfcHl0aG9uJywgJy1waHQnLCAnMi4wJywgJy1waCcsICc3LjAnLCAnLXRuJywgJzgnLCAnLW1hJywgJzIwMCcsICctaW1hZScsICc8aW5maWxlLm1hZT4nLCAnLW9tYWUnLCAnPG91dGZpbGUubWFlPic=

>  <r_lp_tautomer_probability>  (230) 
1

>  <r_epik_Ionization_Penalty>  (230) 
2.0787e-07

>  <r_epik_Ionization_Penalty_Charging>  (230) 
0

>  <r_epik_Ionization_Penalty_Neutral>  (230) 
2.0787e-07

>  <r_epik_State_Penalty>  (230) 
-0

>  <r_epik_Charging_Adjusted_Penalty>  (230) 
0

>  <i_epik_Tot_Q>  (230) 
0

>  <i_epik_Tot_abs_Q>  (230) 
0

>  <s_lp_Force_Field>  (230) 
OPLS3e

>  <r_lp_Energy>  (230) 
60.2424

>  <b_lp_Chiralities_Consistent>  (230) 
1

>  <s_lp_Variant>  (230) 
51:0-1

>  <s_i_glide_gridfile>  (230) 
pfpi4k_grid

>  <i_i_glide_lignum>  (230) 
41

>  <i_i_glide_rotatable_bonds>  (230) 
2

>  <r_i_docking_score>  (230) 
-3.41126

>  <r_i_glide_ligand_efficiency>  (230) 
-0.142136

>  <r_i_glide_ligand_efficiency_sa>  (230) 
-0.409991

>  <r_i_glide_ligand_efficiency_ln>  (230) 
-0.816471

>  <r_i_glide_gscore>  (230) 
-3.41126

>  <r_i_glide_lipo>  (230) 
-0.366657

>  <r_i_glide_hbond>  (230) 
0

>  <r_i_glide_metal>  (230) 
-0

>  <r_i_glide_rewards>  (230) 
-1.15595

>  <r_i_glide_evdw>  (230) 
-20.0417

>  <r_i_glide_ecoul>  (230) 
-5.91046

>  <r_i_glide_erotb>  (230) 
0

>  <r_i_glide_esite>  (230) 
0

>  <r_i_glide_emodel>  (230) 
-33.0919

>  <r_i_glide_energy>  (230) 
-25.9522

>  <r_i_glide_einternal>  (230) 
0.47967

>  <r_i_glide_intrahb_reward>  (230) 
-0

>  <i_i_glide_confnum>  (230) 
1

>  <i_i_glide_posenum>  (230) 
29

>  <r_i_glide_eff_state_penalty>  (230) 
0

>  <ligand_id>  (230) 
51

>  <original_smiles>  (230) 
CC1(C)CCC2(C)C3=CCC4(C)C5OC5C(O)C4(C)C3C(O)C=C12

>  <smiles>  (230) 
[H]OC1([H])C([H])=C2C(C([H])([H])[H])(C3=C([H])C([H])([H])C4(C([H])([H])[H])C5([H])OC5([H])C([H])(O[H])C4(C([H])([H])[H])C31[H])C([H])([H])C([H])([H])C2(C([H])([H])[H])C([H])([H])[H]

$$$$
52:0:0
     RDKit          3D

 14 15  0  0  1  0  0  0  0  0999 V2000
    3.1283   -0.6792   -3.5431 C   0  0  0  0  0  0  0  0  0  0  0  0
    2.6389   -1.9834   -3.7931 C   0  0  0  0  0  0  0  0  0  0  0  0
    3.1884   -3.0929   -3.3192 N   0  0  0  0  0  0  0  0  0  0  0  0
    4.2541   -2.9514   -2.5162 C   0  0  0  0  0  0  0  0  0  0  0  0
    5.0511   -3.8362   -1.8455 C   0  0  0  0  0  0  0  0  0  0  0  0
    6.0164   -3.0363   -1.1888 C   0  0  0  0  0  0  0  0  0  0  0  0
    5.8726   -1.7468   -1.4010 N   0  0  0  0  0  0  0  0  0  0  0  0
    4.7785   -1.6754   -2.2164 N   0  0  0  0  0  0  0  0  0  0  0  0
    4.2184   -0.5442   -2.7226 C   0  0  0  0  0  0  0  0  0  0  0  0
    2.6305    0.1993   -3.9446 H   0  0  0  0  0  0  0  0  0  0  0  0
    1.7392   -2.1127   -4.3797 H   0  0  0  0  0  0  0  0  0  0  0  0
    4.9530   -4.9125   -1.8368 H   0  0  0  0  0  0  0  0  0  0  0  0
    6.8279   -3.3825   -0.5617 H   0  0  0  0  0  0  0  0  0  0  0  0
    4.6505    0.4105   -2.4485 H   0  0  0  0  0  0  0  0  0  0  0  0
  1  9  2  0
  1  2  1  0
  1 10  1  0
  2  3  2  0
  2 11  1  0
  3  4  1  0
  4  8  1  0
  4  5  2  0
  5  6  1  0
  5 12  1  0
  6  7  2  0
  6 13  1  0
  7  8  1  0
  8  9  1  0
  9 14  1  0
M  END
>  <i_m_ct_stereo_status>  (231) 
1

>  <s_m_source_file>  (231) 
/var/tmp/pbs.5076255.sched01/tmp5gbx45fw/500pp51iot.sdf

>  <i_m_source_file_index>  (231) 
42

>  <i_lp_mmshare_version>  (231) 
48012

>  <i_f3d_flags>  (231) 
0

>  <s_epik_input>  (231) 
bjFbY0hdW2NIXVtjSF1uKGMxMiluW2NIXVtjSF0y

>  <s_epik_cmdline>  (231) 
J2VwaWtfcHl0aG9uJywgJy1waHQnLCAnMi4wJywgJy1waCcsICc3LjAnLCAnLXRuJywgJzgnLCAnLW1hJywgJzIwMCcsICctaW1hZScsICc8aW5maWxlLm1hZT4nLCAnLW9tYWUnLCAnPG91dGZpbGUubWFlPic=

>  <r_lp_tautomer_probability>  (231) 
1

>  <r_epik_Ionization_Penalty>  (231) 
5.01424e-08

>  <r_epik_Ionization_Penalty_Charging>  (231) 
0

>  <r_epik_Ionization_Penalty_Neutral>  (231) 
5.01424e-08

>  <r_epik_State_Penalty>  (231) 
-0

>  <r_epik_Charging_Adjusted_Penalty>  (231) 
0

>  <i_epik_Tot_Q>  (231) 
0

>  <i_epik_Tot_abs_Q>  (231) 
0

>  <s_lp_Force_Field>  (231) 
OPLS3e

>  <r_lp_Energy>  (231) 
12.4622

>  <b_lp_Chiralities_Consistent>  (231) 
1

>  <s_lp_Variant>  (231) 
52:0-1

>  <s_i_glide_gridfile>  (231) 
pfpi4k_grid

>  <i_i_glide_lignum>  (231) 
42

>  <i_i_glide_rotatable_bonds>  (231) 
0

>  <r_i_docking_score>  (231) 
-4.0551

>  <r_i_glide_ligand_efficiency>  (231) 
-0.450566

>  <r_i_glide_ligand_efficiency_sa>  (231) 
-0.937216

>  <r_i_glide_ligand_efficiency_ln>  (231) 
-1.26832

>  <r_i_glide_gscore>  (231) 
-4.0551

>  <r_i_glide_lipo>  (231) 
-0.566882

>  <r_i_glide_hbond>  (231) 
-0.0664887

>  <r_i_glide_metal>  (231) 
-0

>  <r_i_glide_rewards>  (231) 
-2.25

>  <r_i_glide_evdw>  (231) 
-15.6262

>  <r_i_glide_ecoul>  (231) 
-2.42951

>  <r_i_glide_erotb>  (231) 
0

>  <r_i_glide_esite>  (231) 
-0.025987

>  <r_i_glide_emodel>  (231) 
-22.8961

>  <r_i_glide_energy>  (231) 
-18.0558

>  <r_i_glide_einternal>  (231) 
0

>  <r_i_glide_intrahb_reward>  (231) 
-0

>  <i_i_glide_confnum>  (231) 
1

>  <i_i_glide_posenum>  (231) 
6

>  <r_i_glide_eff_state_penalty>  (231) 
0

>  <ligand_id>  (231) 
52

>  <original_smiles>  (231) 
c1cnc2ccnn2c1

>  <smiles>  (231) 
[H]c1nc2c([H])c([H])nn2c([H])c1[H]

$$$$
52:0:1
     RDKit          3D

 14 15  0  0  1  0  0  0  0  0999 V2000
    6.8597   -2.5437   -1.1076 C   0  0  0  0  0  0  0  0  0  0  0  0
    5.9825   -1.7354   -0.3460 C   0  0  0  0  0  0  0  0  0  0  0  0
    4.7532   -1.4026   -0.7254 N   0  0  0  0  0  0  0  0  0  0  0  0
    4.3186   -1.9024   -1.8981 C   0  0  0  0  0  0  0  0  0  0  0  0
    3.1513   -1.7937   -2.5977 C   0  0  0  0  0  0  0  0  0  0  0  0
    3.3339   -2.5707   -3.7627 C   0  0  0  0  0  0  0  0  0  0  0  0
    4.5197   -3.1270   -3.8479 N   0  0  0  0  0  0  0  0  0  0  0  0
    5.1419   -2.7332   -2.6905 N   0  0  0  0  0  0  0  0  0  0  0  0
    6.4041   -3.0554   -2.3009 C   0  0  0  0  0  0  0  0  0  0  0  0
    7.8618   -2.7790   -0.7591 H   0  0  0  0  0  0  0  0  0  0  0  0
    6.3227   -1.3225    0.5995 H   0  0  0  0  0  0  0  0  0  0  0  0
    2.2648   -1.2506   -2.3053 H   0  0  0  0  0  0  0  0  0  0  0  0
    2.6156   -2.7307   -4.5541 H   0  0  0  0  0  0  0  0  0  0  0  0
    6.9884   -3.6884   -2.9575 H   0  0  0  0  0  0  0  0  0  0  0  0
  1  9  2  0
  1  2  1  0
  1 10  1  0
  2  3  2  0
  2 11  1  0
  3  4  1  0
  4  8  1  0
  4  5  2  0
  5  6  1  0
  5 12  1  0
  6  7  2  0
  6 13  1  0
  7  8  1  0
  8  9  1  0
  9 14  1  0
M  END
>  <i_m_ct_stereo_status>  (232) 
1

>  <s_m_source_file>  (232) 
/var/tmp/pbs.5076255.sched01/tmp5gbx45fw/500pp51iot.sdf

>  <i_m_source_file_index>  (232) 
42

>  <i_lp_mmshare_version>  (232) 
48012

>  <i_f3d_flags>  (232) 
0

>  <s_epik_input>  (232) 
bjFbY0hdW2NIXVtjSF1uKGMxMiluW2NIXVtjSF0y

>  <s_epik_cmdline>  (232) 
J2VwaWtfcHl0aG9uJywgJy1waHQnLCAnMi4wJywgJy1waCcsICc3LjAnLCAnLXRuJywgJzgnLCAnLW1hJywgJzIwMCcsICctaW1hZScsICc8aW5maWxlLm1hZT4nLCAnLW9tYWUnLCAnPG91dGZpbGUubWFlPic=

>  <r_lp_tautomer_probability>  (232) 
1

>  <r_epik_Ionization_Penalty>  (232) 
5.01424e-08

>  <r_epik_Ionization_Penalty_Charging>  (232) 
0

>  <r_epik_Ionization_Penalty_Neutral>  (232) 
5.01424e-08

>  <r_epik_State_Penalty>  (232) 
-0

>  <r_epik_Charging_Adjusted_Penalty>  (232) 
0

>  <i_epik_Tot_Q>  (232) 
0

>  <i_epik_Tot_abs_Q>  (232) 
0

>  <s_lp_Force_Field>  (232) 
OPLS3e

>  <r_lp_Energy>  (232) 
12.4622

>  <b_lp_Chiralities_Consistent>  (232) 
1

>  <s_lp_Variant>  (232) 
52:0-1

>  <s_i_glide_gridfile>  (232) 
pfpi4k_grid

>  <i_i_glide_lignum>  (232) 
42

>  <i_i_glide_rotatable_bonds>  (232) 
0

>  <r_i_docking_score>  (232) 
-4.04928

>  <r_i_glide_ligand_efficiency>  (232) 
-0.44992

>  <r_i_glide_ligand_efficiency_sa>  (232) 
-0.935872

>  <r_i_glide_ligand_efficiency_ln>  (232) 
-1.2665

>  <r_i_glide_gscore>  (232) 
-4.04928

>  <r_i_glide_lipo>  (232) 
-0.246358

>  <r_i_glide_hbond>  (232) 
-0.0140903

>  <r_i_glide_metal>  (232) 
-0

>  <r_i_glide_rewards>  (232) 
-2.49649

>  <r_i_glide_evdw>  (232) 
-16.5251

>  <r_i_glide_ecoul>  (232) 
-2.94355

>  <r_i_glide_erotb>  (232) 
0

>  <r_i_glide_esite>  (232) 
-0.0245602

>  <r_i_glide_emodel>  (232) 
-24.3064

>  <r_i_glide_energy>  (232) 
-19.4687

>  <r_i_glide_einternal>  (232) 
0

>  <r_i_glide_intrahb_reward>  (232) 
-0

>  <i_i_glide_confnum>  (232) 
1

>  <i_i_glide_posenum>  (232) 
1

>  <r_i_glide_eff_state_penalty>  (232) 
0

>  <ligand_id>  (232) 
52

>  <original_smiles>  (232) 
c1cnc2ccnn2c1

>  <smiles>  (232) 
[H]c1nc2c([H])c([H])nn2c([H])c1[H]

$$$$
52:0:2
     RDKit          3D

 14 15  0  0  1  0  0  0  0  0999 V2000
   -0.4464   -9.0716    2.7990 C   0  0  0  0  0  0  0  0  0  0  0  0
   -0.4774   -7.8456    2.0961 C   0  0  0  0  0  0  0  0  0  0  0  0
   -0.2798   -6.6576    2.6585 N   0  0  0  0  0  0  0  0  0  0  0  0
   -0.0227   -6.6530    3.9820 C   0  0  0  0  0  0  0  0  0  0  0  0
    0.2216   -5.6528    4.8805 C   0  0  0  0  0  0  0  0  0  0  0  0
    0.4055   -6.3101    6.1225 C   0  0  0  0  0  0  0  0  0  0  0  0
    0.2786   -7.6145    6.0568 N   0  0  0  0  0  0  0  0  0  0  0  0
    0.0209   -7.8489    4.7328 N   0  0  0  0  0  0  0  0  0  0  0  0
   -0.1866   -9.0571    4.1493 C   0  0  0  0  0  0  0  0  0  0  0  0
   -0.6217  -10.0102    2.2819 H   0  0  0  0  0  0  0  0  0  0  0  0
   -0.6781   -7.8445    1.0294 H   0  0  0  0  0  0  0  0  0  0  0  0
    0.2776   -4.5938    4.6865 H   0  0  0  0  0  0  0  0  0  0  0  0
    0.6282   -5.8551    7.0764 H   0  0  0  0  0  0  0  0  0  0  0  0
   -0.1574   -9.9439    4.7775 H   0  0  0  0  0  0  0  0  0  0  0  0
  1  9  2  0
  1  2  1  0
  1 10  1  0
  2  3  2  0
  2 11  1  0
  3  4  1  0
  4  8  1  0
  4  5  2  0
  5  6  1  0
  5 12  1  0
  6  7  2  0
  6 13  1  0
  7  8  1  0
  8  9  1  0
  9 14  1  0
M  END
>  <i_m_ct_stereo_status>  (233) 
1

>  <s_m_source_file>  (233) 
/var/tmp/pbs.5076255.sched01/tmp5gbx45fw/500pp51iot.sdf

>  <i_m_source_file_index>  (233) 
42

>  <i_lp_mmshare_version>  (233) 
48012

>  <i_f3d_flags>  (233) 
0

>  <s_epik_input>  (233) 
bjFbY0hdW2NIXVtjSF1uKGMxMiluW2NIXVtjSF0y

>  <s_epik_cmdline>  (233) 
J2VwaWtfcHl0aG9uJywgJy1waHQnLCAnMi4wJywgJy1waCcsICc3LjAnLCAnLXRuJywgJzgnLCAnLW1hJywgJzIwMCcsICctaW1hZScsICc8aW5maWxlLm1hZT4nLCAnLW9tYWUnLCAnPG91dGZpbGUubWFlPic=

>  <r_lp_tautomer_probability>  (233) 
1

>  <r_epik_Ionization_Penalty>  (233) 
5.01424e-08

>  <r_epik_Ionization_Penalty_Charging>  (233) 
0

>  <r_epik_Ionization_Penalty_Neutral>  (233) 
5.01424e-08

>  <r_epik_State_Penalty>  (233) 
-0

>  <r_epik_Charging_Adjusted_Penalty>  (233) 
0

>  <i_epik_Tot_Q>  (233) 
0

>  <i_epik_Tot_abs_Q>  (233) 
0

>  <s_lp_Force_Field>  (233) 
OPLS3e

>  <r_lp_Energy>  (233) 
12.4622

>  <b_lp_Chiralities_Consistent>  (233) 
1

>  <s_lp_Variant>  (233) 
52:0-1

>  <s_i_glide_gridfile>  (233) 
pfpi4k_grid

>  <i_i_glide_lignum>  (233) 
42

>  <i_i_glide_rotatable_bonds>  (233) 
0

>  <r_i_docking_score>  (233) 
-3.73499

>  <r_i_glide_ligand_efficiency>  (233) 
-0.414999

>  <r_i_glide_ligand_efficiency_sa>  (233) 
-0.863232

>  <r_i_glide_ligand_efficiency_ln>  (233) 
-1.1682

>  <r_i_glide_gscore>  (233) 
-3.73499

>  <r_i_glide_lipo>  (233) 
0

>  <r_i_glide_hbond>  (233) 
-0.16

>  <r_i_glide_metal>  (233) 
-0

>  <r_i_glide_rewards>  (233) 
-2.25

>  <r_i_glide_evdw>  (233) 
-10.8388

>  <r_i_glide_ecoul>  (233) 
-4.70672

>  <r_i_glide_erotb>  (233) 
0

>  <r_i_glide_esite>  (233) 
-0.0770376

>  <r_i_glide_emodel>  (233) 
-20.0085

>  <r_i_glide_energy>  (233) 
-15.5456

>  <r_i_glide_einternal>  (233) 
0

>  <r_i_glide_intrahb_reward>  (233) 
-0

>  <i_i_glide_confnum>  (233) 
1

>  <i_i_glide_posenum>  (233) 
2

>  <r_i_glide_eff_state_penalty>  (233) 
0

>  <ligand_id>  (233) 
52

>  <original_smiles>  (233) 
c1cnc2ccnn2c1

>  <smiles>  (233) 
[H]c1nc2c([H])c([H])nn2c([H])c1[H]

$$$$
53:0:0
     RDKit          3D

 29 31  0  0  1  0  0  0  0  0999 V2000
    3.7727    0.1431   -3.5249 O   0  0  0  0  0  0  0  0  0  0  0  0
    3.3125   -1.0517   -2.9578 C   0  0  2  0  0  0  0  0  0  0  0  0
    3.8545   -1.1738   -1.5203 C   0  0  0  0  0  0  0  0  0  0  0  0
    4.4476   -2.5799   -1.3918 C   0  0  1  0  0  0  0  0  0  0  0  0
    3.4723   -3.5330   -0.8747 N   0  0  0  0  0  0  0  0  0  0  0  0
    2.1763   -3.6689   -1.1985 C   0  0  0  0  0  0  0  0  0  0  0  0
    1.5216   -4.7235   -0.7161 N   0  0  0  0  0  0  0  0  0  0  0  0
    2.4617   -5.2447    0.1411 C   0  0  0  0  0  0  0  0  0  0  0  0
    2.2771   -6.2628    0.9698 N   0  0  0  0  0  0  0  0  0  0  0  0
    3.3693   -6.6072    1.6886 C   0  0  0  0  0  0  0  0  0  0  0  0
    4.6151   -5.9445    1.5672 C   0  0  0  0  0  0  0  0  0  0  0  0
    4.8214   -4.8968    0.7424 N   0  0  0  0  0  0  0  0  0  0  0  0
    3.6938   -4.5549    0.0442 C   0  0  0  0  0  0  0  0  0  0  0  0
    4.8849   -2.8909   -2.8326 C   0  0  1  0  0  0  0  0  0  0  0  0
    5.0385   -4.2553   -3.1089 O   0  0  0  0  0  0  0  0  0  0  0  0
    3.8551   -2.2350   -3.7639 C   0  0  1  0  0  0  0  0  0  0  0  0
    2.8250   -3.1511   -4.0750 O   0  0  0  0  0  0  0  0  0  0  0  0
    3.2339    0.8562   -3.1972 H   0  0  0  0  0  0  0  0  0  0  0  0
    2.2234   -1.0373   -2.9530 H   0  0  0  0  0  0  0  0  0  0  0  0
    4.6375   -0.4284   -1.3321 H   0  0  0  0  0  0  0  0  0  0  0  0
    3.0765   -0.9971   -0.7776 H   0  0  0  0  0  0  0  0  0  0  0  0
    5.3150   -2.5706   -0.7328 H   0  0  0  0  0  0  0  0  0  0  0  0
    1.6488   -2.9918   -1.8701 H   0  0  0  0  0  0  0  0  0  0  0  0
    3.2417   -7.4313    2.3657 H   0  0  0  0  0  0  0  0  0  0  0  0
    5.4511   -6.2505    2.1620 H   0  0  0  0  0  0  0  0  0  0  0  0
    5.8377   -2.3938   -3.0212 H   0  0  0  0  0  0  0  0  0  0  0  0
    4.2568   -4.7399   -2.8601 H   0  0  0  0  0  0  0  0  0  0  0  0
    4.2932   -1.9230   -4.7143 H   0  0  0  0  0  0  0  0  0  0  0  0
    2.4831   -3.5321   -3.2791 H   0  0  0  0  0  0  0  0  0  0  0  0
  1  2  1  0
  1 18  1  0
  2 16  1  0
  2  3  1  0
  2 19  1  1
  3  4  1  0
  3 20  1  0
  3 21  1  0
  4  5  1  0
  4 14  1  0
  4 22  1  1
  5 13  1  0
  5  6  1  0
  6  7  2  0
  6 23  1  0
  7  8  1  0
  8 13  2  0
  8  9  1  0
  9 10  2  0
 10 11  1  0
 10 24  1  0
 11 12  2  0
 11 25  1  0
 12 13  1  0
 14 15  1  0
 14 16  1  0
 14 26  1  6
 15 27  1  0
 16 17  1  0
 16 28  1  6
 17 29  1  0
M  END
>  <i_m_ct_stereo_status>  (234) 
1

>  <s_m_source_file>  (234) 
/var/tmp/pbs.5076255.sched01/tmp5gbx45fw/500pp51iot.sdf

>  <i_m_source_file_index>  (234) 
43

>  <i_lp_mmshare_version>  (234) 
48012

>  <i_f3d_flags>  (234) 
0

>  <s_epik_input>  (234) 
W09IXVtDQEBIXTFbQ0gyXVtDQEhdKFtDQEBIXShbT0hdKVtDQEhdMVtPSF0pbihbY0hdbjIpYyhjMjMpbltjSF1bY0hdbjM=

>  <s_epik_cmdline>  (234) 
J2VwaWtfcHl0aG9uJywgJy1waHQnLCAnMi4wJywgJy1waCcsICc3LjAnLCAnLXRuJywgJzgnLCAnLW1hJywgJzIwMCcsICctaW1hZScsICc8aW5maWxlLm1hZT4nLCAnLW9tYWUnLCAnPG91dGZpbGUubWFlPic=

>  <r_lp_tautomer_probability>  (234) 
1

>  <r_epik_Ionization_Penalty>  (234) 
1.87747e-06

>  <r_epik_Ionization_Penalty_Charging>  (234) 
0

>  <r_epik_Ionization_Penalty_Neutral>  (234) 
1.87747e-06

>  <r_epik_State_Penalty>  (234) 
-0

>  <r_epik_Charging_Adjusted_Penalty>  (234) 
0

>  <i_epik_Tot_Q>  (234) 
0

>  <i_epik_Tot_abs_Q>  (234) 
0

>  <s_lp_Force_Field>  (234) 
OPLS3e

>  <r_lp_Energy>  (234) 
24.8249

>  <b_lp_Chiralities_Consistent>  (234) 
1

>  <s_lp_Variant>  (234) 
53:0-1

>  <s_i_glide_gridfile>  (234) 
pfpi4k_grid

>  <i_i_glide_lignum>  (234) 
43

>  <i_i_glide_rotatable_bonds>  (234) 
4

>  <r_i_docking_score>  (234) 
-4.41817

>  <r_i_glide_ligand_efficiency>  (234) 
-0.259892

>  <r_i_glide_ligand_efficiency_sa>  (234) 
-0.668256

>  <r_i_glide_ligand_efficiency_ln>  (234) 
-1.1526

>  <r_i_glide_gscore>  (234) 
-4.41817

>  <r_i_glide_lipo>  (234) 
-0.379382

>  <r_i_glide_hbond>  (234) 
-0.0224016

>  <r_i_glide_metal>  (234) 
-0

>  <r_i_glide_rewards>  (234) 
-1.84066

>  <r_i_glide_evdw>  (234) 
-16.4488

>  <r_i_glide_ecoul>  (234) 
-10.4441

>  <r_i_glide_erotb>  (234) 
0.308463

>  <r_i_glide_esite>  (234) 
-0.0951435

>  <r_i_glide_emodel>  (234) 
-34.9877

>  <r_i_glide_energy>  (234) 
-26.8928

>  <r_i_glide_einternal>  (234) 
1.29244

>  <r_i_glide_intrahb_reward>  (234) 
-0

>  <i_i_glide_confnum>  (234) 
5

>  <i_i_glide_posenum>  (234) 
14

>  <r_i_glide_eff_state_penalty>  (234) 
0

>  <ligand_id>  (234) 
53

>  <original_smiles>  (234) 
OC1CC(n2cnc3nccnc32)C(O)C1O

>  <smiles>  (234) 
[H]OC1([H])C([H])([H])C([H])(n2c([H])nc3nc([H])c([H])nc32)C([H])(O[H])C1([H])O[H]

$$$$
53:0:1
     RDKit          3D

 29 31  0  0  1  0  0  0  0  0999 V2000
    3.8268    0.3233   -3.5351 O   0  0  0  0  0  0  0  0  0  0  0  0
    3.4686   -0.8493   -2.8396 C   0  0  2  0  0  0  0  0  0  0  0  0
    4.4961   -1.1205   -1.7196 C   0  0  0  0  0  0  0  0  0  0  0  0
    4.8924   -2.6009   -1.8320 C   0  0  1  0  0  0  0  0  0  0  0  0
    4.0757   -3.4658   -0.9732 N   0  0  0  0  0  0  0  0  0  0  0  0
    2.7506   -3.4305   -0.7938 C   0  0  0  0  0  0  0  0  0  0  0  0
    2.2168   -4.3761   -0.0140 N   0  0  0  0  0  0  0  0  0  0  0  0
    3.3435   -5.0546    0.3977 C   0  0  0  0  0  0  0  0  0  0  0  0
    3.3678   -6.0814    1.2468 N   0  0  0  0  0  0  0  0  0  0  0  0
    4.5994   -6.5484    1.5381 C   0  0  0  0  0  0  0  0  0  0  0  0
    5.7801   -6.0066    0.9713 C   0  0  0  0  0  0  0  0  0  0  0  0
    5.7774   -4.9658    0.1141 N   0  0  0  0  0  0  0  0  0  0  0  0
    4.5223   -4.5054   -0.1612 C   0  0  0  0  0  0  0  0  0  0  0  0
    4.7086   -2.8826   -3.3327 C   0  0  1  0  0  0  0  0  0  0  0  0
    4.6385   -4.2522   -3.6749 O   0  0  0  0  0  0  0  0  0  0  0  0
    3.4984   -2.0549   -3.8000 C   0  0  1  0  0  0  0  0  0  0  0  0
    2.3130   -2.8214   -3.6719 O   0  0  0  0  0  0  0  0  0  0  0  0
    3.2853    1.0374   -3.2140 H   0  0  0  0  0  0  0  0  0  0  0  0
    2.4739   -0.7086   -2.4197 H   0  0  0  0  0  0  0  0  0  0  0  0
    5.3799   -0.4950   -1.8613 H   0  0  0  0  0  0  0  0  0  0  0  0
    4.1051   -0.8732   -0.7344 H   0  0  0  0  0  0  0  0  0  0  0  0
    5.9428   -2.7250   -1.5645 H   0  0  0  0  0  0  0  0  0  0  0  0
    2.1254   -2.6795   -1.2678 H   0  0  0  0  0  0  0  0  0  0  0  0
    4.6322   -7.3641    2.2396 H   0  0  0  0  0  0  0  0  0  0  0  0
    6.7421   -6.4172    1.2266 H   0  0  0  0  0  0  0  0  0  0  0  0
    5.5749   -2.4872   -3.8521 H   0  0  0  0  0  0  0  0  0  0  0  0
    3.9272   -4.6613   -3.2077 H   0  0  0  0  0  0  0  0  0  0  0  0
    3.5779   -1.7565   -4.8511 H   0  0  0  0  0  0  0  0  0  0  0  0
    2.2114   -3.1441   -2.7838 H   0  0  0  0  0  0  0  0  0  0  0  0
  1  2  1  0
  1 18  1  0
  2 16  1  0
  2  3  1  0
  2 19  1  1
  3  4  1  0
  3 20  1  0
  3 21  1  0
  4  5  1  0
  4 14  1  0
  4 22  1  1
  5 13  1  0
  5  6  1  0
  6  7  2  0
  6 23  1  0
  7  8  1  0
  8 13  2  0
  8  9  1  0
  9 10  2  0
 10 11  1  0
 10 24  1  0
 11 12  2  0
 11 25  1  0
 12 13  1  0
 14 15  1  0
 14 16  1  0
 14 26  1  6
 15 27  1  0
 16 17  1  0
 16 28  1  6
 17 29  1  0
M  END
>  <i_m_ct_stereo_status>  (235) 
1

>  <s_m_source_file>  (235) 
/var/tmp/pbs.5076255.sched01/tmp5gbx45fw/500pp51iot.sdf

>  <i_m_source_file_index>  (235) 
43

>  <i_lp_mmshare_version>  (235) 
48012

>  <i_f3d_flags>  (235) 
0

>  <s_epik_input>  (235) 
W09IXVtDQEBIXTFbQ0gyXVtDQEhdKFtDQEBIXShbT0hdKVtDQEhdMVtPSF0pbihbY0hdbjIpYyhjMjMpbltjSF1bY0hdbjM=

>  <s_epik_cmdline>  (235) 
J2VwaWtfcHl0aG9uJywgJy1waHQnLCAnMi4wJywgJy1waCcsICc3LjAnLCAnLXRuJywgJzgnLCAnLW1hJywgJzIwMCcsICctaW1hZScsICc8aW5maWxlLm1hZT4nLCAnLW9tYWUnLCAnPG91dGZpbGUubWFlPic=

>  <r_lp_tautomer_probability>  (235) 
1

>  <r_epik_Ionization_Penalty>  (235) 
1.87747e-06

>  <r_epik_Ionization_Penalty_Charging>  (235) 
0

>  <r_epik_Ionization_Penalty_Neutral>  (235) 
1.87747e-06

>  <r_epik_State_Penalty>  (235) 
-0

>  <r_epik_Charging_Adjusted_Penalty>  (235) 
0

>  <i_epik_Tot_Q>  (235) 
0

>  <i_epik_Tot_abs_Q>  (235) 
0

>  <s_lp_Force_Field>  (235) 
OPLS3e

>  <r_lp_Energy>  (235) 
24.8249

>  <b_lp_Chiralities_Consistent>  (235) 
1

>  <s_lp_Variant>  (235) 
53:0-1

>  <s_i_glide_gridfile>  (235) 
pfpi4k_grid

>  <i_i_glide_lignum>  (235) 
43

>  <i_i_glide_rotatable_bonds>  (235) 
4

>  <r_i_docking_score>  (235) 
-4.4148

>  <r_i_glide_ligand_efficiency>  (235) 
-0.259694

>  <r_i_glide_ligand_efficiency_sa>  (235) 
-0.667747

>  <r_i_glide_ligand_efficiency_ln>  (235) 
-1.15172

>  <r_i_glide_gscore>  (235) 
-4.4148

>  <r_i_glide_lipo>  (235) 
-0.436552

>  <r_i_glide_hbond>  (235) 
-0.00148703

>  <r_i_glide_metal>  (235) 
-0

>  <r_i_glide_rewards>  (235) 
-1.79845

>  <r_i_glide_evdw>  (235) 
-22.7569

>  <r_i_glide_ecoul>  (235) 
-8.83014

>  <r_i_glide_erotb>  (235) 
0.308463

>  <r_i_glide_esite>  (235) 
-0.0244089

>  <r_i_glide_emodel>  (235) 
-39.2184

>  <r_i_glide_energy>  (235) 
-31.587

>  <r_i_glide_einternal>  (235) 
2.13107

>  <r_i_glide_intrahb_reward>  (235) 
-0

>  <i_i_glide_confnum>  (235) 
5

>  <i_i_glide_posenum>  (235) 
1

>  <r_i_glide_eff_state_penalty>  (235) 
0

>  <ligand_id>  (235) 
53

>  <original_smiles>  (235) 
OC1CC(n2cnc3nccnc32)C(O)C1O

>  <smiles>  (235) 
[H]OC1([H])C([H])([H])C([H])(n2c([H])nc3nc([H])c([H])nc32)C([H])(O[H])C1([H])O[H]

$$$$
53:0:2
     RDKit          3D

 29 31  0  0  1  0  0  0  0  0999 V2000
    3.6066    0.1015   -3.5181 O   0  0  0  0  0  0  0  0  0  0  0  0
    3.3755   -1.1252   -2.8524 C   0  0  2  0  0  0  0  0  0  0  0  0
    3.8530   -1.0378   -1.3873 C   0  0  0  0  0  0  0  0  0  0  0  0
    4.7034   -2.2723   -1.1096 C   0  0  1  0  0  0  0  0  0  0  0  0
    3.9567   -3.3836   -0.5435 N   0  0  0  0  0  0  0  0  0  0  0  0
    2.6394   -3.6529   -0.6439 C   0  0  0  0  0  0  0  0  0  0  0  0
    2.1979   -4.7595   -0.0551 N   0  0  0  0  0  0  0  0  0  0  0  0
    3.3605   -5.2903    0.4463 C   0  0  0  0  0  0  0  0  0  0  0  0
    3.4673   -6.4553    1.0931 N   0  0  0  0  0  0  0  0  0  0  0  0
    4.7241   -6.7601    1.4763 C   0  0  0  0  0  0  0  0  0  0  0  0
    5.8383   -5.9361    1.2002 C   0  0  0  0  0  0  0  0  0  0  0  0
    5.7679   -4.7534    0.5467 N   0  0  0  0  0  0  0  0  0  0  0  0
    4.4840   -4.4593    0.1633 C   0  0  0  0  0  0  0  0  0  0  0  0
    5.2798   -2.5743   -2.4933 C   0  0  1  0  0  0  0  0  0  0  0  0
    5.8129   -3.8460   -2.6568 O   0  0  0  0  0  0  0  0  0  0  0  0
    4.1945   -2.2253   -3.5320 C   0  0  1  0  0  0  0  0  0  0  0  0
    3.3697   -3.3348   -3.8158 O   0  0  0  0  0  0  0  0  0  0  0  0
    3.0140    0.7807   -3.2004 H   0  0  0  0  0  0  0  0  0  0  0  0
    2.3145   -1.3502   -2.9077 H   0  0  0  0  0  0  0  0  0  0  0  0
    4.5143   -0.1790   -1.2743 H   0  0  0  0  0  0  0  0  0  0  0  0
    3.0148   -0.9364   -0.6915 H   0  0  0  0  0  0  0  0  0  0  0  0
    5.5077   -2.0254   -0.4156 H   0  0  0  0  0  0  0  0  0  0  0  0
    1.9578   -3.0259   -1.1845 H   0  0  0  0  0  0  0  0  0  0  0  0
    4.8157   -7.6789    2.0217 H   0  0  0  0  0  0  0  0  0  0  0  0
    6.8212   -6.2157    1.5324 H   0  0  0  0  0  0  0  0  0  0  0  0
    6.0987   -1.8674   -2.6178 H   0  0  0  0  0  0  0  0  0  0  0  0
    6.2996   -3.8925   -3.4635 H   0  0  0  0  0  0  0  0  0  0  0  0
    4.6124   -1.9093   -4.4908 H   0  0  0  0  0  0  0  0  0  0  0  0
    3.2154   -3.8194   -3.0133 H   0  0  0  0  0  0  0  0  0  0  0  0
  1  2  1  0
  1 18  1  0
  2 16  1  0
  2  3  1  0
  2 19  1  1
  3  4  1  0
  3 20  1  0
  3 21  1  0
  4  5  1  0
  4 14  1  0
  4 22  1  1
  5 13  1  0
  5  6  1  0
  6  7  2  0
  6 23  1  0
  7  8  1  0
  8 13  2  0
  8  9  1  0
  9 10  2  0
 10 11  1  0
 10 24  1  0
 11 12  2  0
 11 25  1  0
 12 13  1  0
 14 15  1  0
 14 16  1  0
 14 26  1  6
 15 27  1  0
 16 17  1  0
 16 28  1  6
 17 29  1  0
M  END
>  <i_m_ct_stereo_status>  (236) 
1

>  <s_m_source_file>  (236) 
/var/tmp/pbs.5076255.sched01/tmp5gbx45fw/500pp51iot.sdf

>  <i_m_source_file_index>  (236) 
43

>  <i_lp_mmshare_version>  (236) 
48012

>  <i_f3d_flags>  (236) 
0

>  <s_epik_input>  (236) 
W09IXVtDQEBIXTFbQ0gyXVtDQEhdKFtDQEBIXShbT0hdKVtDQEhdMVtPSF0pbihbY0hdbjIpYyhjMjMpbltjSF1bY0hdbjM=

>  <s_epik_cmdline>  (236) 
J2VwaWtfcHl0aG9uJywgJy1waHQnLCAnMi4wJywgJy1waCcsICc3LjAnLCAnLXRuJywgJzgnLCAnLW1hJywgJzIwMCcsICctaW1hZScsICc8aW5maWxlLm1hZT4nLCAnLW9tYWUnLCAnPG91dGZpbGUubWFlPic=

>  <r_lp_tautomer_probability>  (236) 
1

>  <r_epik_Ionization_Penalty>  (236) 
1.87747e-06

>  <r_epik_Ionization_Penalty_Charging>  (236) 
0

>  <r_epik_Ionization_Penalty_Neutral>  (236) 
1.87747e-06

>  <r_epik_State_Penalty>  (236) 
-0

>  <r_epik_Charging_Adjusted_Penalty>  (236) 
0

>  <i_epik_Tot_Q>  (236) 
0

>  <i_epik_Tot_abs_Q>  (236) 
0

>  <s_lp_Force_Field>  (236) 
OPLS3e

>  <r_lp_Energy>  (236) 
24.8249

>  <b_lp_Chiralities_Consistent>  (236) 
1

>  <s_lp_Variant>  (236) 
53:0-1

>  <s_i_glide_gridfile>  (236) 
pfpi4k_grid

>  <i_i_glide_lignum>  (236) 
43

>  <i_i_glide_rotatable_bonds>  (236) 
4

>  <r_i_docking_score>  (236) 
-4.13319

>  <r_i_glide_ligand_efficiency>  (236) 
-0.243129

>  <r_i_glide_ligand_efficiency_sa>  (236) 
-0.625152

>  <r_i_glide_ligand_efficiency_ln>  (236) 
-1.07826

>  <r_i_glide_gscore>  (236) 
-4.13319

>  <r_i_glide_lipo>  (236) 
-0.474345

>  <r_i_glide_hbond>  (236) 
-0.00602597

>  <r_i_glide_metal>  (236) 
-0

>  <r_i_glide_rewards>  (236) 
-1.89087

>  <r_i_glide_evdw>  (236) 
-20.8188

>  <r_i_glide_ecoul>  (236) 
-6.54441

>  <r_i_glide_erotb>  (236) 
0.308463

>  <r_i_glide_esite>  (236) 
-0.0478085

>  <r_i_glide_emodel>  (236) 
-35.3489

>  <r_i_glide_energy>  (236) 
-27.3632

>  <r_i_glide_einternal>  (236) 
0.892594

>  <r_i_glide_intrahb_reward>  (236) 
-0

>  <i_i_glide_confnum>  (236) 
4

>  <i_i_glide_posenum>  (236) 
32

>  <r_i_glide_eff_state_penalty>  (236) 
0

>  <ligand_id>  (236) 
53

>  <original_smiles>  (236) 
OC1CC(n2cnc3nccnc32)C(O)C1O

>  <smiles>  (236) 
[H]OC1([H])C([H])([H])C([H])(n2c([H])nc3nc([H])c([H])nc32)C([H])(O[H])C1([H])O[H]

$$$$
54:0:0
     RDKit          3D

 49 51  0  0  1  0  0  0  0  0999 V2000
    3.9779    0.1485   -3.2613 C   0  0  0  0  0  0  0  0  0  0  0  0
    3.8744   -0.9645   -2.5330 C   0  0  0  0  0  0  0  0  0  0  0  0
    3.9655   -2.4114   -3.0328 C   0  0  1  0  0  0  0  0  0  0  0  0
    3.5728   -2.3821   -4.5252 C   0  0  0  0  0  0  0  0  0  0  0  0
    5.3893   -2.9726   -2.9540 C   0  0  0  0  0  0  0  0  0  0  0  0
    6.1416   -3.1652   -1.6207 C   0  0  1  0  0  0  0  0  0  0  0  0
    7.4484   -2.6284   -1.7781 O   0  0  0  0  0  0  0  0  0  0  0  0
    5.5093   -2.5746   -0.3610 C   0  0  2  0  0  0  0  0  0  0  0  0
    6.0505   -2.9808    1.0211 C   0  0  0  0  0  0  0  0  0  0  0  0
    7.2348   -3.9598    1.0789 C   0  0  0  0  0  0  0  0  0  0  0  0
    6.3928   -1.7795    1.8868 C   0  0  0  0  0  0  0  0  0  0  0  0
    4.7046   -3.6819    1.2827 C   0  0  1  0  0  0  0  0  0  0  0  0
    3.8931   -3.3102    2.4903 C   0  0  0  0  0  0  0  0  0  0  0  0
    3.9761   -3.6799    3.6601 O   0  0  0  0  0  0  0  0  0  0  0  0
    2.8059   -2.3335    2.0786 C   0  0  0  0  0  0  0  0  0  0  0  0
    3.1419   -1.9640    0.6403 C   0  0  0  0  0  0  0  0  0  0  0  0
    4.0953   -3.0176    0.0622 C   0  0  1  0  0  0  0  0  0  0  0  0
    3.3762   -3.9625   -0.9252 C   0  0  1  0  0  0  0  0  0  0  0  0
    2.2484   -4.7924   -0.2849 C   0  0  0  0  0  0  0  0  0  0  0  0
    3.0067   -3.3910   -2.3299 C   0  0  1  0  0  0  0  0  0  0  0  0
    1.7110   -2.8895   -2.3727 O   0  0  0  0  0  0  0  0  0  0  0  0
    4.1627    0.1972   -4.3249 H   0  0  0  0  0  0  0  0  0  0  0  0
    3.8652    1.0966   -2.7772 H   0  0  0  0  0  0  0  0  0  0  0  0
    3.6687   -0.8189   -1.4914 H   0  0  0  0  0  0  0  0  0  0  0  0
    3.5854   -3.3821   -4.9595 H   0  0  0  0  0  0  0  0  0  0  0  0
    4.2284   -1.7423   -5.1119 H   0  0  0  0  0  0  0  0  0  0  0  0
    2.5686   -1.9799   -4.6524 H   0  0  0  0  0  0  0  0  0  0  0  0
    5.4390   -3.9115   -3.5104 H   0  0  0  0  0  0  0  0  0  0  0  0
    5.9398   -2.2534   -3.5124 H   0  0  0  0  0  0  0  0  0  0  0  0
    6.2203   -4.2430   -1.4934 H   0  0  0  0  0  0  0  0  0  0  0  0
    7.8884   -3.0567   -2.5070 H   0  0  0  0  0  0  0  0  0  0  0  0
    5.5412   -1.4863   -0.4100 H   0  0  0  0  0  0  0  0  0  0  0  0
    7.4143   -4.3306    2.0778 H   0  0  0  0  0  0  0  0  0  0  0  0
    8.1605   -3.5153    0.7097 H   0  0  0  0  0  0  0  0  0  0  0  0
    7.0417   -4.8519    0.4815 H   0  0  0  0  0  0  0  0  0  0  0  0
    6.4999   -2.1314    2.8898 H   0  0  0  0  0  0  0  0  0  0  0  0
    5.6003   -1.0338    1.9449 H   0  0  0  0  0  0  0  0  0  0  0  0
    7.3141   -1.2767    1.5796 H   0  0  0  0  0  0  0  0  0  0  0  0
    4.7898   -4.7583    1.1234 H   0  0  0  0  0  0  0  0  0  0  0  0
    1.8440   -2.8369    2.1141 H   0  0  0  0  0  0  0  0  0  0  0  0
    2.7694   -1.4648    2.7273 H   0  0  0  0  0  0  0  0  0  0  0  0
    2.2178   -1.9337    0.0997 H   0  0  0  0  0  0  0  0  0  0  0  0
    3.5850   -0.9664    0.6515 H   0  0  0  0  0  0  0  0  0  0  0  0
    4.1100   -4.7292   -1.1446 H   0  0  0  0  0  0  0  0  0  0  0  0
    1.4459   -4.1498    0.0255 H   0  0  0  0  0  0  0  0  0  0  0  0
    2.5975   -5.3691    0.5722 H   0  0  0  0  0  0  0  0  0  0  0  0
    1.7933   -5.4847   -0.9808 H   0  0  0  0  0  0  0  0  0  0  0  0
    2.9016   -4.2216   -3.0195 H   0  0  0  0  0  0  0  0  0  0  0  0
    1.6099   -2.1556   -1.7690 H   0  0  0  0  0  0  0  0  0  0  0  0
  1  2  2  0
  1 22  1  0
  1 23  1  0
  2  3  1  0
  2 24  1  0
  3 20  1  0
  3  4  1  6
  3  5  1  0
  4 25  1  0
  4 26  1  0
  4 27  1  0
  5  6  1  0
  5 28  1  0
  5 29  1  0
  6  7  1  0
  6  8  1  0
  6 30  1  1
  7 31  1  0
  8 17  1  0
  8  9  1  0
  8 32  1  6
  9 10  1  0
  9 11  1  0
  9 12  1  0
 10 33  1  0
 10 34  1  0
 10 35  1  0
 11 36  1  0
 11 37  1  0
 11 38  1  0
 12 17  1  0
 12 13  1  0
 12 39  1  6
 13 14  2  0
 13 15  1  0
 15 16  1  0
 15 40  1  0
 15 41  1  0
 17 16  1  1
 16 42  1  0
 16 43  1  0
 17 18  1  0
 18 19  1  0
 18 20  1  0
 18 44  1  6
 19 45  1  0
 19 46  1  0
 19 47  1  0
 20 21  1  0
 20 48  1  6
 21 49  1  0
M  END
>  <i_m_ct_stereo_status>  (237) 
1

>  <s_m_source_file>  (237) 
/var/tmp/pbs.5076255.sched01/tmp5gbx45fw/500pp51iot.sdf

>  <i_m_source_file_index>  (237) 
44

>  <i_lp_mmshare_version>  (237) 
48012

>  <i_f3d_flags>  (237) 
0

>  <s_epik_input>  (237) 
W0NIM11bQ0BIXTFbQ0BASF0oW09IXSlbQ0BAXShbQ0gzXSkoW0NIXT1bQ0gyXSlbQ0gyXVtDQEBIXShbT0hdKVtDQEBIXShbQ0BAXTEyMylDKFtDSDNdKShbQ0gzXSlbQ0BIXTJDKD1PKVtDSDJdW0NIMl0z

>  <s_epik_cmdline>  (237) 
J2VwaWtfcHl0aG9uJywgJy1waHQnLCAnMi4wJywgJy1waCcsICc3LjAnLCAnLXRuJywgJzgnLCAnLW1hJywgJzIwMCcsICctaW1hZScsICc8aW5maWxlLm1hZT4nLCAnLW9tYWUnLCAnPG91dGZpbGUubWFlPic=

>  <r_lp_tautomer_probability>  (237) 
1

>  <r_epik_Ionization_Penalty>  (237) 
1.21614e-06

>  <r_epik_Ionization_Penalty_Charging>  (237) 
0

>  <r_epik_Ionization_Penalty_Neutral>  (237) 
1.21614e-06

>  <r_epik_State_Penalty>  (237) 
-0

>  <r_epik_Charging_Adjusted_Penalty>  (237) 
0

>  <i_epik_Tot_Q>  (237) 
0

>  <i_epik_Tot_abs_Q>  (237) 
0

>  <s_lp_Force_Field>  (237) 
OPLS3e

>  <r_lp_Energy>  (237) 
35.8702

>  <b_lp_Chiralities_Consistent>  (237) 
1

>  <s_lp_Variant>  (237) 
54:0-1

>  <s_i_glide_gridfile>  (237) 
pfpi4k_grid

>  <i_i_glide_lignum>  (237) 
44

>  <i_i_glide_rotatable_bonds>  (237) 
3

>  <r_i_docking_score>  (237) 
-3.76516

>  <r_i_glide_ligand_efficiency>  (237) 
-0.179294

>  <r_i_glide_ligand_efficiency_sa>  (237) 
-0.494657

>  <r_i_glide_ligand_efficiency_ln>  (237) 
-0.930929

>  <r_i_glide_gscore>  (237) 
-3.76516

>  <r_i_glide_lipo>  (237) 
-0.746633

>  <r_i_glide_hbond>  (237) 
-0.60242

>  <r_i_glide_metal>  (237) 
-0

>  <r_i_glide_rewards>  (237) 
-1.41789

>  <r_i_glide_evdw>  (237) 
-0.554314

>  <r_i_glide_ecoul>  (237) 
-7.89347

>  <r_i_glide_erotb>  (237) 
0.213514

>  <r_i_glide_esite>  (237) 
0

>  <r_i_glide_emodel>  (237) 
-7.22099

>  <r_i_glide_energy>  (237) 
-8.44778

>  <r_i_glide_einternal>  (237) 
1.4416

>  <r_i_glide_intrahb_reward>  (237) 
-0

>  <i_i_glide_confnum>  (237) 
5

>  <i_i_glide_posenum>  (237) 
7

>  <r_i_glide_eff_state_penalty>  (237) 
0

>  <ligand_id>  (237) 
54

>  <original_smiles>  (237) 
C=CC1(C)CC(O)C2C(C)(C)C3C(=O)CCC32C(C)C1O

>  <smiles>  (237) 
[H]OC1([H])C([H])([H])C(C([H])=C([H])[H])(C([H])([H])[H])C([H])(O[H])C([H])(C([H])([H])[H])C23C([H])([H])C([H])([H])C(=O)C2([H])C(C([H])([H])[H])(C([H])([H])[H])C13[H]

$$$$
55:0:0
     RDKit          3D

 39 43  0  0  1  0  0  0  0  0999 V2000
    1.4232   -4.2521   -1.1451 O   0  0  0  0  0  0  0  0  0  0  0  0
    2.2787   -3.4399   -1.5030 C   0  0  0  0  0  0  0  0  0  0  0  0
    2.4657   -3.0655   -2.9219 C   0  0  0  0  0  0  0  0  0  0  0  0
    3.4105   -2.1821   -3.2908 C   0  0  0  0  0  0  0  0  0  0  0  0
    4.3586   -1.4986   -2.3251 C   0  0  0  0  0  0  0  0  0  0  0  0
    4.3937   -2.1660   -0.9324 C   0  0  2  0  0  0  0  0  0  0  0  0
    4.9433   -3.8141   -0.9084 C   0  0  0  0  0  0  0  0  0  0  0  0
    4.2318   -4.6861    0.3452 C   0  0  2  0  0  0  0  0  0  0  0  0
    3.1404   -4.3708    1.5993 C   0  0  0  0  0  0  0  0  0  0  0  0
    2.9769   -2.8211    2.3114 C   0  0  1  0  0  0  0  0  0  0  0  0
    2.9627   -3.0049    3.7162 O   0  0  0  0  0  0  0  0  0  0  0  0
    4.1563   -1.7311    1.8234 C   0  0  1  0  0  0  0  0  0  0  0  0
    4.5096   -0.8100    2.8960 N   0  0  0  0  0  0  0  0  0  0  0  0
    3.7301    0.0032    3.6124 C   0  0  0  0  0  0  0  0  0  0  0  0
    4.4200    0.6759    4.5158 N   0  0  0  0  0  0  0  0  0  0  0  0
    5.7207    0.2548    4.2918 N   0  0  0  0  0  0  0  0  0  0  0  0
    5.7851   -0.5923    3.3042 N   0  0  0  0  0  0  0  0  0  0  0  0
    5.0969   -2.7917    1.5397 C   0  0  0  0  0  0  0  0  0  0  0  0
    4.2492   -3.3939    0.4027 N   0  0  2  0  0  0  0  0  0  0  0  0
    3.1686   -2.6772   -0.4460 C   0  0  2  0  0  0  0  0  0  0  0  0
    4.4203   -1.0337    0.3269 C   0  0  0  0  0  0  0  0  0  0  0  0
    1.8153   -3.5119   -3.6618 H   0  0  0  0  0  0  0  0  0  0  0  0
    3.5006   -1.9099   -4.3351 H   0  0  0  0  0  0  0  0  0  0  0  0
    5.3605   -1.5024   -2.7464 H   0  0  0  0  0  0  0  0  0  0  0  0
    4.0413   -0.4555   -2.2545 H   0  0  0  0  0  0  0  0  0  0  0  0
    4.7292   -4.3188   -1.8611 H   0  0  0  0  0  0  0  0  0  0  0  0
    6.0454   -3.8680   -0.8951 H   0  0  0  0  0  0  0  0  0  0  0  0
    3.6018   -5.3178   -0.2752 H   0  0  0  0  0  0  0  0  0  0  0  0
    2.1415   -4.6797    1.2948 H   0  0  0  0  0  0  0  0  0  0  0  0
    3.3810   -5.0799    2.3935 H   0  0  0  0  0  0  0  0  0  0  0  0
    2.0018   -2.4017    2.0586 H   0  0  0  0  0  0  0  0  0  0  0  0
    2.7533   -2.1826    4.1335 H   0  0  0  0  0  0  0  0  0  0  0  0
    2.6576    0.0749    3.4884 H   0  0  0  0  0  0  0  0  0  0  0  0
    6.0814   -2.4506    1.2034 H   0  0  0  0  0  0  0  0  0  0  0  0
    5.3065   -3.4588    2.3819 H   0  0  0  0  0  0  0  0  0  0  0  0
    2.5036   -1.9841    0.0624 H   0  0  0  0  0  0  0  0  0  0  0  0
    5.3735   -0.4996    0.3130 H   0  0  0  0  0  0  0  0  0  0  0  0
    3.6657   -0.2567    0.1691 H   0  0  0  0  0  0  0  0  0  0  0  0
    5.0040   -3.1077   -0.1952 H   0  0  0  0  0  0  0  0  0  0  0  0
  1  2  2  0
  2 20  1  0
  2  3  1  0
  3  4  2  0
  3 22  1  0
  4  5  1  0
  4 23  1  0
  6  5  1  6
  5 24  1  0
  5 25  1  0
  6 20  1  0
  6 21  1  0
  6  7  1  0
  7  8  1  0
  7 26  1  0
  7 27  1  0
  8 19  1  0
  8  9  1  0
  8 28  1  1
  9 10  1  0
  9 29  1  0
  9 30  1  0
 10 11  1  0
 10 12  1  0
 10 31  1  6
 11 32  1  0
 12 13  1  1
 12 18  1  0
 12 21  1  0
 13 17  1  0
 13 14  1  0
 14 15  2  0
 14 33  1  0
 15 16  1  0
 16 17  2  0
 18 19  1  0
 18 34  1  0
 18 35  1  0
 19 20  1  0
 19 39  1  6
 20 36  1  1
 21 37  1  0
 21 38  1  0
M  CHG  1  19   1
M  END
>  <i_m_ct_stereo_status>  (238) 
1

>  <s_m_source_file>  (238) 
/var/tmp/pbs.5076255.sched01/tmp5gbx45fw/500pp51iot.sdf

>  <i_m_source_file_index>  (238) 
45

>  <i_lp_mmshare_version>  (238) 
48012

>  <i_f3d_flags>  (238) 
0

>  <s_epik_input>  (238) 
W0NIMl0xW0NIXT1bQ0hdQyg9TylbQ0BIXShbQ0BdMTIzKU40W0NASF0oW0NIMl0yKVtDSDJdW0NAQEhdKFtPSF0pW0NAQF0oW0NIMl00KShbQ0gyXTMpbjVbY0hdbm5uNQ==

>  <s_epik_cmdline>  (238) 
J2VwaWtfcHl0aG9uJywgJy1waHQnLCAnMi4wJywgJy1waCcsICc3LjAnLCAnLXRuJywgJzgnLCAnLW1hJywgJzIwMCcsICctaW1hZScsICc8aW5maWxlLm1hZT4nLCAnLW9tYWUnLCAnPG91dGZpbGUubWFlPic=

>  <r_lp_tautomer_probability>  (238) 
1

>  <r_epik_Ionization_Penalty>  (238) 
0.162988

>  <r_epik_Ionization_Penalty_Charging>  (238) 
0.162858

>  <r_epik_Ionization_Penalty_Neutral>  (238) 
0.000129491

>  <r_epik_State_Penalty>  (238) 
0.152184

>  <r_epik_Charging_Adjusted_Penalty>  (238) 
0.315042

>  <i_epik_Tot_Q>  (238) 
1

>  <i_epik_Tot_abs_Q>  (238) 
1

>  <s_lp_Force_Field>  (238) 
OPLS3e

>  <r_lp_Energy>  (238) 
394.76

>  <b_lp_Chiralities_Consistent>  (238) 
1

>  <s_lp_Variant>  (238) 
55:0-1

>  <s_i_glide_gridfile>  (238) 
pfpi4k_grid

>  <i_i_glide_lignum>  (238) 
45

>  <i_i_glide_rotatable_bonds>  (238) 
2

>  <r_i_docking_score>  (238) 
-3.78464

>  <r_i_glide_ligand_efficiency>  (238) 
-0.180221

>  <r_i_glide_ligand_efficiency_sa>  (238) 
-0.497216

>  <r_i_glide_ligand_efficiency_ln>  (238) 
-0.935744

>  <r_i_glide_gscore>  (238) 
-3.78464

>  <r_i_glide_lipo>  (238) 
-0.358338

>  <r_i_glide_hbond>  (238) 
-0.00268894

>  <r_i_glide_metal>  (238) 
-0

>  <r_i_glide_rewards>  (238) 
-1.6728

>  <r_i_glide_evdw>  (238) 
-23.1186

>  <r_i_glide_ecoul>  (238) 
-5.42467

>  <r_i_glide_erotb>  (238) 
0.218821

>  <r_i_glide_esite>  (238) 
0

>  <r_i_glide_emodel>  (238) 
-34.99

>  <r_i_glide_energy>  (238) 
-28.5433

>  <r_i_glide_einternal>  (238) 
0.900387

>  <r_i_glide_intrahb_reward>  (238) 
-0

>  <i_i_glide_confnum>  (238) 
3

>  <i_i_glide_posenum>  (238) 
39

>  <r_i_glide_eff_state_penalty>  (238) 
0

>  <ligand_id>  (238) 
55

>  <original_smiles>  (238) 
O=C1C=CCC23CC4CC(O)C(n5cnnn5)(CN4C12)C3

>  <smiles>  (238) 
[H]OC1([H])C([H])([H])C2([H])C([H])([H])C34C([H])([H])C([H])=C([H])C(=O)C3([H])[N+]2([H])C([H])([H])C1(n1nnnc1[H])C4([H])[H]

$$$$
55:0:1
     RDKit          3D

 39 43  0  0  1  0  0  0  0  0999 V2000
    1.4099   -4.2442   -1.1547 O   0  0  0  0  0  0  0  0  0  0  0  0
    2.2807   -3.4524   -1.5166 C   0  0  0  0  0  0  0  0  0  0  0  0
    2.4609   -3.0628   -2.9278 C   0  0  0  0  0  0  0  0  0  0  0  0
    3.4070   -2.1770   -3.2902 C   0  0  0  0  0  0  0  0  0  0  0  0
    4.3549   -1.4980   -2.3207 C   0  0  0  0  0  0  0  0  0  0  0  0
    4.3899   -2.1744   -0.9327 C   0  0  2  0  0  0  0  0  0  0  0  0
    4.9405   -3.8245   -0.9230 C   0  0  0  0  0  0  0  0  0  0  0  0
    4.2327   -4.7093    0.3234 C   0  0  2  0  0  0  0  0  0  0  0  0
    3.1431   -4.4044    1.5810 C   0  0  0  0  0  0  0  0  0  0  0  0
    2.9839   -2.8649    2.3120 C   0  0  1  0  0  0  0  0  0  0  0  0
    2.9264   -3.0405    3.7189 O   0  0  0  0  0  0  0  0  0  0  0  0
    4.1561   -1.7667    1.8295 C   0  0  1  0  0  0  0  0  0  0  0  0
    4.5072   -0.8581    2.9147 N   0  0  0  0  0  0  0  0  0  0  0  0
    3.7195   -0.0830    3.6586 C   0  0  0  0  0  0  0  0  0  0  0  0
    4.4119    0.6130    4.5478 N   0  0  0  0  0  0  0  0  0  0  0  0
    5.7184    0.2352    4.2831 N   0  0  0  0  0  0  0  0  0  0  0  0
    5.7859   -0.6005    3.2852 N   0  0  0  0  0  0  0  0  0  0  0  0
    5.0969   -2.8209    1.5308 C   0  0  0  0  0  0  0  0  0  0  0  0
    4.2476   -3.4118    0.3893 N   0  0  2  0  0  0  0  0  0  0  0  0
    3.1688   -2.6912   -0.4521 C   0  0  2  0  0  0  0  0  0  0  0  0
    4.4180   -1.0556    0.3392 C   0  0  0  0  0  0  0  0  0  0  0  0
    1.8122   -3.5000   -3.6691 H   0  0  0  0  0  0  0  0  0  0  0  0
    3.4952   -1.8956   -4.3325 H   0  0  0  0  0  0  0  0  0  0  0  0
    5.3557   -1.4971   -2.7407 H   0  0  0  0  0  0  0  0  0  0  0  0
    4.0370   -0.4558   -2.2423 H   0  0  0  0  0  0  0  0  0  0  0  0
    4.7247   -4.3208   -1.8803 H   0  0  0  0  0  0  0  0  0  0  0  0
    6.0409   -3.8788   -0.9111 H   0  0  0  0  0  0  0  0  0  0  0  0
    3.5993   -5.3307   -0.3022 H   0  0  0  0  0  0  0  0  0  0  0  0
    2.1416   -4.7052    1.2747 H   0  0  0  0  0  0  0  0  0  0  0  0
    3.3775   -5.1238    2.3659 H   0  0  0  0  0  0  0  0  0  0  0  0
    2.0136   -2.4423    2.0575 H   0  0  0  0  0  0  0  0  0  0  0  0
    3.7406   -3.4053    4.0345 H   0  0  0  0  0  0  0  0  0  0  0  0
    2.6440   -0.0424    3.5647 H   0  0  0  0  0  0  0  0  0  0  0  0
    6.0821   -2.4765    1.1991 H   0  0  0  0  0  0  0  0  0  0  0  0
    5.3113   -3.4957    2.3636 H   0  0  0  0  0  0  0  0  0  0  0  0
    2.5037   -2.0007    0.0698 H   0  0  0  0  0  0  0  0  0  0  0  0
    5.3714   -0.5211    0.3257 H   0  0  0  0  0  0  0  0  0  0  0  0
    3.6681   -0.2728    0.1866 H   0  0  0  0  0  0  0  0  0  0  0  0
    5.0026   -3.1234   -0.2063 H   0  0  0  0  0  0  0  0  0  0  0  0
  1  2  2  0
  2 20  1  0
  2  3  1  0
  3  4  2  0
  3 22  1  0
  4  5  1  0
  4 23  1  0
  6  5  1  6
  5 24  1  0
  5 25  1  0
  6 20  1  0
  6 21  1  0
  6  7  1  0
  7  8  1  0
  7 26  1  0
  7 27  1  0
  8 19  1  0
  8  9  1  0
  8 28  1  1
  9 10  1  0
  9 29  1  0
  9 30  1  0
 10 11  1  0
 10 12  1  0
 10 31  1  6
 11 32  1  0
 12 13  1  1
 12 18  1  0
 12 21  1  0
 13 17  1  0
 13 14  1  0
 14 15  2  0
 14 33  1  0
 15 16  1  0
 16 17  2  0
 18 19  1  0
 18 34  1  0
 18 35  1  0
 19 20  1  0
 19 39  1  6
 20 36  1  1
 21 37  1  0
 21 38  1  0
M  CHG  1  19   1
M  END
>  <i_m_ct_stereo_status>  (239) 
1

>  <s_m_source_file>  (239) 
/var/tmp/pbs.5076255.sched01/tmp5gbx45fw/500pp51iot.sdf

>  <i_m_source_file_index>  (239) 
45

>  <i_lp_mmshare_version>  (239) 
48012

>  <i_f3d_flags>  (239) 
0

>  <s_epik_input>  (239) 
W0NIMl0xW0NIXT1bQ0hdQyg9TylbQ0BIXShbQ0BdMTIzKU40W0NASF0oW0NIMl0yKVtDSDJdW0NAQEhdKFtPSF0pW0NAQF0oW0NIMl00KShbQ0gyXTMpbjVbY0hdbm5uNQ==

>  <s_epik_cmdline>  (239) 
J2VwaWtfcHl0aG9uJywgJy1waHQnLCAnMi4wJywgJy1waCcsICc3LjAnLCAnLXRuJywgJzgnLCAnLW1hJywgJzIwMCcsICctaW1hZScsICc8aW5maWxlLm1hZT4nLCAnLW9tYWUnLCAnPG91dGZpbGUubWFlPic=

>  <r_lp_tautomer_probability>  (239) 
1

>  <r_epik_Ionization_Penalty>  (239) 
0.162988

>  <r_epik_Ionization_Penalty_Charging>  (239) 
0.162858

>  <r_epik_Ionization_Penalty_Neutral>  (239) 
0.000129491

>  <r_epik_State_Penalty>  (239) 
0.152184

>  <r_epik_Charging_Adjusted_Penalty>  (239) 
0.315042

>  <i_epik_Tot_Q>  (239) 
1

>  <i_epik_Tot_abs_Q>  (239) 
1

>  <s_lp_Force_Field>  (239) 
OPLS3e

>  <r_lp_Energy>  (239) 
394.76

>  <b_lp_Chiralities_Consistent>  (239) 
1

>  <s_lp_Variant>  (239) 
55:0-1

>  <s_i_glide_gridfile>  (239) 
pfpi4k_grid

>  <i_i_glide_lignum>  (239) 
45

>  <i_i_glide_rotatable_bonds>  (239) 
2

>  <r_i_docking_score>  (239) 
-3.72289

>  <r_i_glide_ligand_efficiency>  (239) 
-0.17728

>  <r_i_glide_ligand_efficiency_sa>  (239) 
-0.489103

>  <r_i_glide_ligand_efficiency_ln>  (239) 
-0.920476

>  <r_i_glide_gscore>  (239) 
-3.72289

>  <r_i_glide_lipo>  (239) 
-0.351146

>  <r_i_glide_hbond>  (239) 
-0.00307786

>  <r_i_glide_metal>  (239) 
-0

>  <r_i_glide_rewards>  (239) 
-1.67368

>  <r_i_glide_evdw>  (239) 
-23.2555

>  <r_i_glide_ecoul>  (239) 
-5.00685

>  <r_i_glide_erotb>  (239) 
0.218821

>  <r_i_glide_esite>  (239) 
0

>  <r_i_glide_emodel>  (239) 
-34.7661

>  <r_i_glide_energy>  (239) 
-28.2624

>  <r_i_glide_einternal>  (239) 
0.489875

>  <r_i_glide_intrahb_reward>  (239) 
-0

>  <i_i_glide_confnum>  (239) 
2

>  <i_i_glide_posenum>  (239) 
30

>  <r_i_glide_eff_state_penalty>  (239) 
0

>  <ligand_id>  (239) 
55

>  <original_smiles>  (239) 
O=C1C=CCC23CC4CC(O)C(n5cnnn5)(CN4C12)C3

>  <smiles>  (239) 
[H]OC1([H])C([H])([H])C2([H])C([H])([H])C34C([H])([H])C([H])=C([H])C(=O)C3([H])[N+]2([H])C([H])([H])C1(n1nnnc1[H])C4([H])[H]

$$$$
55:0:2
     RDKit          3D

 39 43  0  0  1  0  0  0  0  0999 V2000
    2.2102   -3.4826   -2.9329 O   0  0  0  0  0  0  0  0  0  0  0  0
    3.0024   -2.5875   -2.7382 C   0  0  0  0  0  0  0  0  0  0  0  0
    3.3443   -1.6953   -3.8423 C   0  0  0  0  0  0  0  0  0  0  0  0
    4.1519   -0.6530   -3.6381 C   0  0  0  0  0  0  0  0  0  0  0  0
    4.7641   -0.3754   -2.2884 C   0  0  0  0  0  0  0  0  0  0  0  0
    4.6874   -1.4927   -1.2669 C   0  0  2  0  0  0  0  0  0  0  0  0
    5.5610   -2.9006   -1.7415 C   0  0  0  0  0  0  0  0  0  0  0  0
    4.8648   -4.2812   -1.0959 C   0  0  2  0  0  0  0  0  0  0  0  0
    3.5453   -4.6326   -0.0993 C   0  0  0  0  0  0  0  0  0  0  0  0
    2.9676   -3.5475    1.0928 C   0  0  1  0  0  0  0  0  0  0  0  0
    2.7570   -4.2911    2.2768 O   0  0  0  0  0  0  0  0  0  0  0  0
    3.9580   -2.2215    1.3236 C   0  0  1  0  0  0  0  0  0  0  0  0
    3.9629   -1.7392    2.6932 N   0  0  0  0  0  0  0  0  0  0  0  0
    3.2120   -0.8043    3.2622 C   0  0  0  0  0  0  0  0  0  0  0  0
    3.4369   -0.6992    4.5565 N   0  0  0  0  0  0  0  0  0  0  0  0
    4.4007   -1.6659    4.7816 N   0  0  0  0  0  0  0  0  0  0  0  0
    4.7111   -2.3035    3.6840 N   0  0  0  0  0  0  0  0  0  0  0  0
    5.1191   -2.9444    0.8712 C   0  0  0  0  0  0  0  0  0  0  0  0
    4.5924   -3.1323   -0.5626 N   0  0  2  0  0  0  0  0  0  0  0  0
    3.5288   -2.2730   -1.2967 C   0  0  2  0  0  0  0  0  0  0  0  0
    4.2965   -0.9563    0.2884 C   0  0  0  0  0  0  0  0  0  0  0  0
    2.8634   -1.8611   -4.7796 H   0  0  0  0  0  0  0  0  0  0  0  0
    4.3027    0.0703   -4.4254 H   0  0  0  0  0  0  0  0  0  0  0  0
    5.7808   -0.0297   -2.3078 H   0  0  0  0  0  0  0  0  0  0  0  0
    4.2174    0.4710   -1.9185 H   0  0  0  0  0  0  0  0  0  0  0  0
    5.6011   -2.9766   -2.8351 H   0  0  0  0  0  0  0  0  0  0  0  0
    6.6317   -2.8010   -1.5031 H   0  0  0  0  0  0  0  0  0  0  0  0
    4.4952   -4.6548   -2.0384 H   0  0  0  0  0  0  0  0  0  0  0  0
    2.6889   -4.8972   -0.7195 H   0  0  0  0  0  0  0  0  0  0  0  0
    3.7927   -5.5756    0.3841 H   0  0  0  0  0  0  0  0  0  0  0  0
    1.9887   -3.1775    0.7966 H   0  0  0  0  0  0  0  0  0  0  0  0
    2.4713   -3.7083    2.9625 H   0  0  0  0  0  0  0  0  0  0  0  0
    2.4816   -0.2013    2.7320 H   0  0  0  0  0  0  0  0  0  0  0  0
    6.0513   -2.3777    0.9258 H   0  0  0  0  0  0  0  0  0  0  0  0
    5.3294   -3.8670    1.4172 H   0  0  0  0  0  0  0  0  0  0  0  0
    2.6687   -1.9224   -0.7257 H   0  0  0  0  0  0  0  0  0  0  0  0
    5.1100   -0.3489    0.6848 H   0  0  0  0  0  0  0  0  0  0  0  0
    3.4359   -0.2881    0.2744 H   0  0  0  0  0  0  0  0  0  0  0  0
    5.3489   -2.5394   -0.8289 H   0  0  0  0  0  0  0  0  0  0  0  0
  1  2  2  0
  2 20  1  0
  2  3  1  0
  3  4  2  0
  3 22  1  0
  4  5  1  0
  4 23  1  0
  6  5  1  6
  5 24  1  0
  5 25  1  0
  6 20  1  0
  6 21  1  0
  6  7  1  0
  7  8  1  0
  7 26  1  0
  7 27  1  0
  8 19  1  0
  8  9  1  0
  8 28  1  1
  9 10  1  0
  9 29  1  0
  9 30  1  0
 10 11  1  0
 10 12  1  0
 10 31  1  6
 11 32  1  0
 12 13  1  1
 12 18  1  0
 12 21  1  0
 13 17  1  0
 13 14  1  0
 14 15  2  0
 14 33  1  0
 15 16  1  0
 16 17  2  0
 18 19  1  0
 18 34  1  0
 18 35  1  0
 19 20  1  0
 19 39  1  6
 20 36  1  1
 21 37  1  0
 21 38  1  0
M  CHG  1  19   1
M  END
>  <i_m_ct_stereo_status>  (240) 
1

>  <s_m_source_file>  (240) 
/var/tmp/pbs.5076255.sched01/tmp5gbx45fw/500pp51iot.sdf

>  <i_m_source_file_index>  (240) 
45

>  <i_lp_mmshare_version>  (240) 
48012

>  <i_f3d_flags>  (240) 
0

>  <s_epik_input>  (240) 
W0NIMl0xW0NIXT1bQ0hdQyg9TylbQ0BIXShbQ0BdMTIzKU40W0NASF0oW0NIMl0yKVtDSDJdW0NAQEhdKFtPSF0pW0NAQF0oW0NIMl00KShbQ0gyXTMpbjVbY0hdbm5uNQ==

>  <s_epik_cmdline>  (240) 
J2VwaWtfcHl0aG9uJywgJy1waHQnLCAnMi4wJywgJy1waCcsICc3LjAnLCAnLXRuJywgJzgnLCAnLW1hJywgJzIwMCcsICctaW1hZScsICc8aW5maWxlLm1hZT4nLCAnLW9tYWUnLCAnPG91dGZpbGUubWFlPic=

>  <r_lp_tautomer_probability>  (240) 
1

>  <r_epik_Ionization_Penalty>  (240) 
0.162988

>  <r_epik_Ionization_Penalty_Charging>  (240) 
0.162858

>  <r_epik_Ionization_Penalty_Neutral>  (240) 
0.000129491

>  <r_epik_State_Penalty>  (240) 
0.152184

>  <r_epik_Charging_Adjusted_Penalty>  (240) 
0.315042

>  <i_epik_Tot_Q>  (240) 
1

>  <i_epik_Tot_abs_Q>  (240) 
1

>  <s_lp_Force_Field>  (240) 
OPLS3e

>  <r_lp_Energy>  (240) 
394.76

>  <b_lp_Chiralities_Consistent>  (240) 
1

>  <s_lp_Variant>  (240) 
55:0-1

>  <s_i_glide_gridfile>  (240) 
pfpi4k_grid

>  <i_i_glide_lignum>  (240) 
45

>  <i_i_glide_rotatable_bonds>  (240) 
2

>  <r_i_docking_score>  (240) 
-3.03571

>  <r_i_glide_ligand_efficiency>  (240) 
-0.144558

>  <r_i_glide_ligand_efficiency_sa>  (240) 
-0.398824

>  <r_i_glide_ligand_efficiency_ln>  (240) 
-0.750573

>  <r_i_glide_gscore>  (240) 
-3.03571

>  <r_i_glide_lipo>  (240) 
-0.467676

>  <r_i_glide_hbond>  (240) 
0

>  <r_i_glide_metal>  (240) 
-0

>  <r_i_glide_rewards>  (240) 
-1.44356

>  <r_i_glide_evdw>  (240) 
-18.3506

>  <r_i_glide_ecoul>  (240) 
-2.66227

>  <r_i_glide_erotb>  (240) 
0.218821

>  <r_i_glide_esite>  (240) 
-0.0264256

>  <r_i_glide_emodel>  (240) 
-26.1295

>  <r_i_glide_energy>  (240) 
-21.0129

>  <r_i_glide_einternal>  (240) 
0.43386

>  <r_i_glide_intrahb_reward>  (240) 
-0

>  <i_i_glide_confnum>  (240) 
3

>  <i_i_glide_posenum>  (240) 
5

>  <r_i_glide_eff_state_penalty>  (240) 
0

>  <ligand_id>  (240) 
55

>  <original_smiles>  (240) 
O=C1C=CCC23CC4CC(O)C(n5cnnn5)(CN4C12)C3

>  <smiles>  (240) 
[H]OC1([H])C([H])([H])C2([H])C([H])([H])C34C([H])([H])C([H])=C([H])C(=O)C3([H])[N+]2([H])C([H])([H])C1(n1nnnc1[H])C4([H])[H]

$$$$
55:1:0
     RDKit          3D

 38 42  0  0  1  0  0  0  0  0999 V2000
    7.1315   -1.8607   -0.2950 O   0  0  0  0  0  0  0  0  0  0  0  0
    6.0198   -2.3055   -0.5748 C   0  0  0  0  0  0  0  0  0  0  0  0
    5.0773   -1.5164   -1.3871 C   0  0  0  0  0  0  0  0  0  0  0  0
    3.8134   -1.9222   -1.5739 C   0  0  0  0  0  0  0  0  0  0  0  0
    3.2178   -3.1974   -1.0041 C   0  0  0  0  0  0  0  0  0  0  0  0
    4.0682   -3.8499    0.1158 C   0  0  2  0  0  0  0  0  0  0  0  0
    3.9935   -3.1007    1.4585 C   0  0  0  0  0  0  0  0  0  0  0  0
    5.2627   -3.5616    2.2032 C   0  0  1  0  0  0  0  0  0  0  0  0
    4.9914   -4.5016    3.4075 C   0  0  0  0  0  0  0  0  0  0  0  0
    4.8071   -5.9996    3.0121 C   0  0  1  0  0  0  0  0  0  0  0  0
    4.2301   -6.7006    4.1260 O   0  0  0  0  0  0  0  0  0  0  0  0
    4.3554   -6.3051    1.4525 C   0  0  2  0  0  0  0  0  0  0  0  0
    2.9536   -6.3485    1.9959 N   0  0  0  0  0  0  0  0  0  0  0  0
    2.1748   -7.4403    2.0189 C   0  0  0  0  0  0  0  0  0  0  0  0
    0.9693   -7.1925    2.5030 N   0  0  0  0  0  0  0  0  0  0  0  0
    1.0163   -5.8503    2.8056 N   0  0  0  0  0  0  0  0  0  0  0  0
    2.1690   -5.3401    2.4945 N   0  0  0  0  0  0  0  0  0  0  0  0
    5.8273   -5.6559    1.1598 C   0  0  0  0  0  0  0  0  0  0  0  0
    6.0823   -4.2038    1.1606 N   0  0  0  0  0  0  0  0  0  0  0  0
    5.5630   -3.7257   -0.1354 C   0  0  2  0  0  0  0  0  0  0  0  0
    3.7862   -5.4033    0.2163 C   0  0  0  0  0  0  0  0  0  0  0  0
    5.4297   -0.6027   -1.8421 H   0  0  0  0  0  0  0  0  0  0  0  0
    3.1480   -1.3358   -2.1942 H   0  0  0  0  0  0  0  0  0  0  0  0
    2.2142   -2.9883   -0.6380 H   0  0  0  0  0  0  0  0  0  0  0  0
    3.1044   -3.8691   -1.8530 H   0  0  0  0  0  0  0  0  0  0  0  0
    4.0674   -2.0247    1.2952 H   0  0  0  0  0  0  0  0  0  0  0  0
    3.0666   -3.1922    2.0103 H   0  0  0  0  0  0  0  0  0  0  0  0
    5.7866   -2.6718    2.5606 H   0  0  0  0  0  0  0  0  0  0  0  0
    5.8328   -4.4404    4.0984 H   0  0  0  0  0  0  0  0  0  0  0  0
    4.1338   -4.1312    3.9732 H   0  0  0  0  0  0  0  0  0  0  0  0
    5.7379   -6.5100    3.2616 H   0  0  0  0  0  0  0  0  0  0  0  0
    3.3271   -6.4363    4.2279 H   0  0  0  0  0  0  0  0  0  0  0  0
    2.4971   -8.4154    1.6725 H   0  0  0  0  0  0  0  0  0  0  0  0
    6.6940   -6.0997    1.6623 H   0  0  0  0  0  0  0  0  0  0  0  0
    6.1426   -6.0561    0.1941 H   0  0  0  0  0  0  0  0  0  0  0  0
    5.8715   -4.3939   -0.9367 H   0  0  0  0  0  0  0  0  0  0  0  0
    2.7267   -5.5448   -0.0320 H   0  0  0  0  0  0  0  0  0  0  0  0
    4.2079   -5.8409   -0.6917 H   0  0  0  0  0  0  0  0  0  0  0  0
  1  2  2  0
  2 20  1  0
  2  3  1  0
  3  4  2  0
  3 22  1  0
  4  5  1  0
  4 23  1  0
  6  5  1  6
  5 24  1  0
  5 25  1  0
  6 20  1  0
  6 21  1  0
  6  7  1  0
  7  8  1  0
  7 26  1  0
  7 27  1  0
  8 19  1  0
  8  9  1  0
  8 28  1  1
  9 10  1  0
  9 29  1  0
  9 30  1  0
 10 11  1  0
 10 12  1  0
 10 31  1  6
 11 32  1  0
 12 13  1  6
 12 18  1  0
 12 21  1  0
 13 17  1  0
 13 14  1  0
 14 15  2  0
 14 33  1  0
 15 16  1  0
 16 17  2  0
 18 19  1  0
 18 34  1  0
 18 35  1  0
 19 20  1  0
 20 36  1  6
 21 37  1  0
 21 38  1  0
M  END
>  <i_m_ct_stereo_status>  (241) 
1

>  <s_m_source_file>  (241) 
/var/tmp/pbs.5076255.sched01/tmp5gbx45fw/500pp51iot.sdf

>  <i_m_source_file_index>  (241) 
46

>  <i_lp_mmshare_version>  (241) 
48012

>  <i_f3d_flags>  (241) 
0

>  <s_epik_input>  (241) 
W0NIMl0xW0NIXT1bQ0hdQyg9TylbQ0BIXShbQ0BdMTIzKU40W0NASF0oW0NIMl0yKVtDSDJdW0NAQEhdKFtPSF0pW0NAQF0oW0NIMl00KShbQ0gyXTMpbjVbY0hdbm5uNQ==

>  <s_epik_cmdline>  (241) 
J2VwaWtfcHl0aG9uJywgJy1waHQnLCAnMi4wJywgJy1waCcsICc3LjAnLCAnLXRuJywgJzgnLCAnLW1hJywgJzIwMCcsICctaW1hZScsICc8aW5maWxlLm1hZT4nLCAnLW9tYWUnLCAnPG91dGZpbGUubWFlPic=

>  <r_lp_tautomer_probability>  (241) 
1

>  <r_epik_Ionization_Penalty>  (241) 
0.844729

>  <r_epik_Ionization_Penalty_Charging>  (241) 
0

>  <r_epik_Ionization_Penalty_Neutral>  (241) 
0.844729

>  <r_epik_State_Penalty>  (241) 
0.879794

>  <r_epik_Charging_Adjusted_Penalty>  (241) 
0.879794

>  <i_epik_Tot_Q>  (241) 
0

>  <i_epik_Tot_abs_Q>  (241) 
0

>  <s_lp_Force_Field>  (241) 
OPLS3e

>  <r_lp_Energy>  (241) 
201.236

>  <b_lp_Chiralities_Consistent>  (241) 
1

>  <s_lp_Variant>  (241) 
55:0-2

>  <s_i_glide_gridfile>  (241) 
pfpi4k_grid

>  <i_i_glide_lignum>  (241) 
46

>  <i_i_glide_rotatable_bonds>  (241) 
2

>  <r_i_docking_score>  (241) 
-3.36863

>  <r_i_glide_ligand_efficiency>  (241) 
-0.160411

>  <r_i_glide_ligand_efficiency_sa>  (241) 
-0.442561

>  <r_i_glide_ligand_efficiency_ln>  (241) 
-0.832887

>  <r_i_glide_gscore>  (241) 
-3.36863

>  <r_i_glide_lipo>  (241) 
-0.305756

>  <r_i_glide_hbond>  (241) 
-0.15

>  <r_i_glide_metal>  (241) 
-0

>  <r_i_glide_rewards>  (241) 
-1.46139

>  <r_i_glide_evdw>  (241) 
-22.9835

>  <r_i_glide_ecoul>  (241) 
-2.58431

>  <r_i_glide_erotb>  (241) 
0.22016

>  <r_i_glide_esite>  (241) 
-0.134817

>  <r_i_glide_emodel>  (241) 
-31.5064

>  <r_i_glide_energy>  (241) 
-25.5678

>  <r_i_glide_einternal>  (241) 
0.0119426

>  <r_i_glide_intrahb_reward>  (241) 
-0

>  <i_i_glide_confnum>  (241) 
1

>  <i_i_glide_posenum>  (241) 
7

>  <r_i_glide_eff_state_penalty>  (241) 
0

>  <ligand_id>  (241) 
55

>  <original_smiles>  (241) 
O=C1C=CCC23CC4CC(O)C(n5cnnn5)(CN4C12)C3

>  <smiles>  (241) 
[H]OC1([H])C([H])([H])C2([H])N3C([H])([H])C1(n1nnnc1[H])C([H])([H])C1(C([H])([H])C([H])=C([H])C(=O)C31[H])C2([H])[H]

$$$$
55:1:1
     RDKit          3D

 38 42  0  0  1  0  0  0  0  0999 V2000
    6.9335   -1.4750    0.0959 O   0  0  0  0  0  0  0  0  0  0  0  0
    5.9126   -2.0253   -0.3204 C   0  0  0  0  0  0  0  0  0  0  0  0
    4.9947   -1.3178   -1.2256 C   0  0  0  0  0  0  0  0  0  0  0  0
    3.8122   -1.8576   -1.5778 C   0  0  0  0  0  0  0  0  0  0  0  0
    3.3050   -3.2085   -1.1116 C   0  0  0  0  0  0  0  0  0  0  0  0
    4.0845   -3.8001    0.0916 C   0  0  2  0  0  0  0  0  0  0  0  0
    3.7627   -3.1110    1.4307 C   0  0  0  0  0  0  0  0  0  0  0  0
    4.9783   -3.4509    2.3167 C   0  0  1  0  0  0  0  0  0  0  0  0
    4.6773   -4.4573    3.4572 C   0  0  0  0  0  0  0  0  0  0  0  0
    4.7207   -5.9505    3.0104 C   0  0  1  0  0  0  0  0  0  0  0  0
    4.0898   -6.7417    4.0279 O   0  0  0  0  0  0  0  0  0  0  0  0
    4.4905   -6.2503    1.4031 C   0  0  2  0  0  0  0  0  0  0  0  0
    3.0444   -6.4695    1.7679 N   0  0  0  0  0  0  0  0  0  0  0  0
    2.4104   -7.6471    1.6896 C   0  0  0  0  0  0  0  0  0  0  0  0
    1.1334   -7.5624    2.0204 N   0  0  0  0  0  0  0  0  0  0  0  0
    0.9723   -6.2306    2.3215 N   0  0  0  0  0  0  0  0  0  0  0  0
    2.0831   -5.5729    2.1577 N   0  0  0  0  0  0  0  0  0  0  0  0
    5.9032   -5.4300    1.3061 C   0  0  0  0  0  0  0  0  0  0  0  0
    5.9863   -3.9599    1.3700 N   0  0  0  0  0  0  0  0  0  0  0  0
    5.5747   -3.4996    0.0318 C   0  0  2  0  0  0  0  0  0  0  0  0
    3.9754   -5.3775    0.1242 C   0  0  0  0  0  0  0  0  0  0  0  0
    5.2923   -0.3551   -1.6121 H   0  0  0  0  0  0  0  0  0  0  0  0
    3.1662   -1.3268   -2.2627 H   0  0  0  0  0  0  0  0  0  0  0  0
    2.2448   -3.1265   -0.8736 H   0  0  0  0  0  0  0  0  0  0  0  0
    3.3786   -3.8634   -1.9786 H   0  0  0  0  0  0  0  0  0  0  0  0
    3.7304   -2.0281    1.3006 H   0  0  0  0  0  0  0  0  0  0  0  0
    2.7930   -3.3248    1.8636 H   0  0  0  0  0  0  0  0  0  0  0  0
    5.3476   -2.5221    2.7561 H   0  0  0  0  0  0  0  0  0  0  0  0
    5.4171   -4.3250    4.2478 H   0  0  0  0  0  0  0  0  0  0  0  0
    3.7183   -4.2149    3.9181 H   0  0  0  0  0  0  0  0  0  0  0  0
    5.6673   -6.3616    3.3657 H   0  0  0  0  0  0  0  0  0  0  0  0
    4.3361   -7.6476    3.9082 H   0  0  0  0  0  0  0  0  0  0  0  0
    2.8919   -8.5670    1.3830 H   0  0  0  0  0  0  0  0  0  0  0  0
    6.7503   -5.7886    1.9010 H   0  0  0  0  0  0  0  0  0  0  0  0
    6.3788   -5.7602    0.3800 H   0  0  0  0  0  0  0  0  0  0  0  0
    6.0562   -4.0984   -0.7387 H   0  0  0  0  0  0  0  0  0  0  0  0
    2.9783   -5.6283   -0.2570 H   0  0  0  0  0  0  0  0  0  0  0  0
    4.5468   -5.7369   -0.7339 H   0  0  0  0  0  0  0  0  0  0  0  0
  1  2  2  0
  2 20  1  0
  2  3  1  0
  3  4  2  0
  3 22  1  0
  4  5  1  0
  4 23  1  0
  6  5  1  6
  5 24  1  0
  5 25  1  0
  6 20  1  0
  6 21  1  0
  6  7  1  0
  7  8  1  0
  7 26  1  0
  7 27  1  0
  8 19  1  0
  8  9  1  0
  8 28  1  1
  9 10  1  0
  9 29  1  0
  9 30  1  0
 10 11  1  0
 10 12  1  0
 10 31  1  1
 11 32  1  0
 12 13  1  6
 12 18  1  0
 12 21  1  0
 13 17  1  0
 13 14  1  0
 14 15  2  0
 14 33  1  0
 15 16  1  0
 16 17  2  0
 18 19  1  0
 18 34  1  0
 18 35  1  0
 19 20  1  0
 20 36  1  6
 21 37  1  0
 21 38  1  0
M  END
>  <i_m_ct_stereo_status>  (242) 
1

>  <s_m_source_file>  (242) 
/var/tmp/pbs.5076255.sched01/tmp5gbx45fw/500pp51iot.sdf

>  <i_m_source_file_index>  (242) 
46

>  <i_lp_mmshare_version>  (242) 
48012

>  <i_f3d_flags>  (242) 
0

>  <s_epik_input>  (242) 
W0NIMl0xW0NIXT1bQ0hdQyg9TylbQ0BIXShbQ0BdMTIzKU40W0NASF0oW0NIMl0yKVtDSDJdW0NAQEhdKFtPSF0pW0NAQF0oW0NIMl00KShbQ0gyXTMpbjVbY0hdbm5uNQ==

>  <s_epik_cmdline>  (242) 
J2VwaWtfcHl0aG9uJywgJy1waHQnLCAnMi4wJywgJy1waCcsICc3LjAnLCAnLXRuJywgJzgnLCAnLW1hJywgJzIwMCcsICctaW1hZScsICc8aW5maWxlLm1hZT4nLCAnLW9tYWUnLCAnPG91dGZpbGUubWFlPic=

>  <r_lp_tautomer_probability>  (242) 
1

>  <r_epik_Ionization_Penalty>  (242) 
0.844729

>  <r_epik_Ionization_Penalty_Charging>  (242) 
0

>  <r_epik_Ionization_Penalty_Neutral>  (242) 
0.844729

>  <r_epik_State_Penalty>  (242) 
0.879794

>  <r_epik_Charging_Adjusted_Penalty>  (242) 
0.879794

>  <i_epik_Tot_Q>  (242) 
0

>  <i_epik_Tot_abs_Q>  (242) 
0

>  <s_lp_Force_Field>  (242) 
OPLS3e

>  <r_lp_Energy>  (242) 
201.236

>  <b_lp_Chiralities_Consistent>  (242) 
1

>  <s_lp_Variant>  (242) 
55:0-2

>  <s_i_glide_gridfile>  (242) 
pfpi4k_grid

>  <i_i_glide_lignum>  (242) 
46

>  <i_i_glide_rotatable_bonds>  (242) 
2

>  <r_i_docking_score>  (242) 
-3.26603

>  <r_i_glide_ligand_efficiency>  (242) 
-0.155525

>  <r_i_glide_ligand_efficiency_sa>  (242) 
-0.429082

>  <r_i_glide_ligand_efficiency_ln>  (242) 
-0.807519

>  <r_i_glide_gscore>  (242) 
-3.26603

>  <r_i_glide_lipo>  (242) 
-0.298835

>  <r_i_glide_hbond>  (242) 
-0.0769961

>  <r_i_glide_metal>  (242) 
-0

>  <r_i_glide_rewards>  (242) 
-1.48742

>  <r_i_glide_evdw>  (242) 
-23.7882

>  <r_i_glide_ecoul>  (242) 
-1.87931

>  <r_i_glide_erotb>  (242) 
0.22016

>  <r_i_glide_esite>  (242) 
-0.151623

>  <r_i_glide_emodel>  (242) 
-31.2786

>  <r_i_glide_energy>  (242) 
-25.6676

>  <r_i_glide_einternal>  (242) 
0.330669

>  <r_i_glide_intrahb_reward>  (242) 
-0

>  <i_i_glide_confnum>  (242) 
3

>  <i_i_glide_posenum>  (242) 
33

>  <r_i_glide_eff_state_penalty>  (242) 
0

>  <ligand_id>  (242) 
55

>  <original_smiles>  (242) 
O=C1C=CCC23CC4CC(O)C(n5cnnn5)(CN4C12)C3

>  <smiles>  (242) 
[H]OC1([H])C([H])([H])C2([H])N3C([H])([H])C1(n1nnnc1[H])C([H])([H])C1(C([H])([H])C([H])=C([H])C(=O)C31[H])C2([H])[H]

$$$$
55:1:2
     RDKit          3D

 38 42  0  0  1  0  0  0  0  0999 V2000
    6.7237   -1.4721   -0.0217 O   0  0  0  0  0  0  0  0  0  0  0  0
    5.6951   -2.0236   -0.4175 C   0  0  0  0  0  0  0  0  0  0  0  0
    4.7617   -1.3226   -1.3118 C   0  0  0  0  0  0  0  0  0  0  0  0
    3.5682   -1.8592   -1.6274 C   0  0  0  0  0  0  0  0  0  0  0  0
    3.0628   -3.1989   -1.1285 C   0  0  0  0  0  0  0  0  0  0  0  0
    3.8678   -3.7810    0.0631 C   0  0  2  0  0  0  0  0  0  0  0  0
    3.5839   -3.0735    1.4003 C   0  0  0  0  0  0  0  0  0  0  0  0
    4.8214   -3.4096    2.2574 C   0  0  1  0  0  0  0  0  0  0  0  0
    4.5470   -4.3983    3.4192 C   0  0  0  0  0  0  0  0  0  0  0  0
    4.5710   -5.8976    2.9911 C   0  0  1  0  0  0  0  0  0  0  0  0
    3.9573   -6.6691    4.0321 O   0  0  0  0  0  0  0  0  0  0  0  0
    4.2926   -6.2178    1.3967 C   0  0  2  0  0  0  0  0  0  0  0  0
    2.8548   -6.4242    1.8003 N   0  0  0  0  0  0  0  0  0  0  0  0
    2.2047   -7.5940    1.7236 C   0  0  0  0  0  0  0  0  0  0  0  0
    0.9351   -7.4970    2.0791 N   0  0  0  0  0  0  0  0  0  0  0  0
    0.8010   -6.1699    2.4126 N   0  0  0  0  0  0  0  0  0  0  0  0
    1.9138   -5.5220    2.2255 N   0  0  0  0  0  0  0  0  0  0  0  0
    5.7070   -5.4085    1.2483 C   0  0  0  0  0  0  0  0  0  0  0  0
    5.8020   -3.9383    1.2925 N   0  0  0  0  0  0  0  0  0  0  0  0
    5.3580   -3.4918   -0.0405 C   0  0  2  0  0  0  0  0  0  0  0  0
    3.7464   -5.3557    0.1257 C   0  0  0  0  0  0  0  0  0  0  0  0
    5.0520   -0.3648   -1.7146 H   0  0  0  0  0  0  0  0  0  0  0  0
    2.9058   -1.3317   -2.3002 H   0  0  0  0  0  0  0  0  0  0  0  0
    2.0090   -3.1086   -0.8671 H   0  0  0  0  0  0  0  0  0  0  0  0
    3.1103   -3.8580   -1.9927 H   0  0  0  0  0  0  0  0  0  0  0  0
    3.5541   -1.9927    1.2563 H   0  0  0  0  0  0  0  0  0  0  0  0
    2.6242   -3.2796    1.8577 H   0  0  0  0  0  0  0  0  0  0  0  0
    5.2077   -2.4782    2.6751 H   0  0  0  0  0  0  0  0  0  0  0  0
    5.3078   -4.2579    4.1887 H   0  0  0  0  0  0  0  0  0  0  0  0
    3.5997   -4.1436    3.8992 H   0  0  0  0  0  0  0  0  0  0  0  0
    5.5225   -6.3195    3.3217 H   0  0  0  0  0  0  0  0  0  0  0  0
    4.4216   -6.5114    4.8398 H   0  0  0  0  0  0  0  0  0  0  0  0
    2.6639   -8.5126    1.3816 H   0  0  0  0  0  0  0  0  0  0  0  0
    6.5690   -5.7670    1.8229 H   0  0  0  0  0  0  0  0  0  0  0  0
    6.1543   -5.7539    0.3141 H   0  0  0  0  0  0  0  0  0  0  0  0
    5.8148   -4.1025   -0.8169 H   0  0  0  0  0  0  0  0  0  0  0  0
    2.7405   -5.6078   -0.2316 H   0  0  0  0  0  0  0  0  0  0  0  0
    4.2994   -5.7325   -0.7339 H   0  0  0  0  0  0  0  0  0  0  0  0
  1  2  2  0
  2 20  1  0
  2  3  1  0
  3  4  2  0
  3 22  1  0
  4  5  1  0
  4 23  1  0
  6  5  1  6
  5 24  1  0
  5 25  1  0
  6 20  1  0
  6 21  1  0
  6  7  1  0
  7  8  1  0
  7 26  1  0
  7 27  1  0
  8 19  1  0
  8  9  1  0
  8 28  1  1
  9 10  1  0
  9 29  1  0
  9 30  1  0
 10 11  1  0
 10 12  1  0
 10 31  1  6
 11 32  1  0
 12 13  1  6
 12 18  1  0
 12 21  1  0
 13 17  1  0
 13 14  1  0
 14 15  2  0
 14 33  1  0
 15 16  1  0
 16 17  2  0
 18 19  1  0
 18 34  1  0
 18 35  1  0
 19 20  1  0
 20 36  1  6
 21 37  1  0
 21 38  1  0
M  END
>  <i_m_ct_stereo_status>  (243) 
1

>  <s_m_source_file>  (243) 
/var/tmp/pbs.5076255.sched01/tmp5gbx45fw/500pp51iot.sdf

>  <i_m_source_file_index>  (243) 
46

>  <i_lp_mmshare_version>  (243) 
48012

>  <i_f3d_flags>  (243) 
0

>  <s_epik_input>  (243) 
W0NIMl0xW0NIXT1bQ0hdQyg9TylbQ0BIXShbQ0BdMTIzKU40W0NASF0oW0NIMl0yKVtDSDJdW0NAQEhdKFtPSF0pW0NAQF0oW0NIMl00KShbQ0gyXTMpbjVbY0hdbm5uNQ==

>  <s_epik_cmdline>  (243) 
J2VwaWtfcHl0aG9uJywgJy1waHQnLCAnMi4wJywgJy1waCcsICc3LjAnLCAnLXRuJywgJzgnLCAnLW1hJywgJzIwMCcsICctaW1hZScsICc8aW5maWxlLm1hZT4nLCAnLW9tYWUnLCAnPG91dGZpbGUubWFlPic=

>  <r_lp_tautomer_probability>  (243) 
1

>  <r_epik_Ionization_Penalty>  (243) 
0.844729

>  <r_epik_Ionization_Penalty_Charging>  (243) 
0

>  <r_epik_Ionization_Penalty_Neutral>  (243) 
0.844729

>  <r_epik_State_Penalty>  (243) 
0.879794

>  <r_epik_Charging_Adjusted_Penalty>  (243) 
0.879794

>  <i_epik_Tot_Q>  (243) 
0

>  <i_epik_Tot_abs_Q>  (243) 
0

>  <s_lp_Force_Field>  (243) 
OPLS3e

>  <r_lp_Energy>  (243) 
201.236

>  <b_lp_Chiralities_Consistent>  (243) 
1

>  <s_lp_Variant>  (243) 
55:0-2

>  <s_i_glide_gridfile>  (243) 
pfpi4k_grid

>  <i_i_glide_lignum>  (243) 
46

>  <i_i_glide_rotatable_bonds>  (243) 
2

>  <r_i_docking_score>  (243) 
-3.24823

>  <r_i_glide_ligand_efficiency>  (243) 
-0.154678

>  <r_i_glide_ligand_efficiency_sa>  (243) 
-0.426744

>  <r_i_glide_ligand_efficiency_ln>  (243) 
-0.803119

>  <r_i_glide_gscore>  (243) 
-3.24823

>  <r_i_glide_lipo>  (243) 
-0.272231

>  <r_i_glide_hbond>  (243) 
-0.0801112

>  <r_i_glide_metal>  (243) 
-0

>  <r_i_glide_rewards>  (243) 
-1.46018

>  <r_i_glide_evdw>  (243) 
-22.9794

>  <r_i_glide_ecoul>  (243) 
-2.18664

>  <r_i_glide_erotb>  (243) 
0.22016

>  <r_i_glide_esite>  (243) 
-0.178907

>  <r_i_glide_emodel>  (243) 
-30.6321

>  <r_i_glide_energy>  (243) 
-25.1661

>  <r_i_glide_einternal>  (243) 
0.377646

>  <r_i_glide_intrahb_reward>  (243) 
-0

>  <i_i_glide_confnum>  (243) 
3

>  <i_i_glide_posenum>  (243) 
1

>  <r_i_glide_eff_state_penalty>  (243) 
0

>  <ligand_id>  (243) 
55

>  <original_smiles>  (243) 
O=C1C=CCC23CC4CC(O)C(n5cnnn5)(CN4C12)C3

>  <smiles>  (243) 
[H]OC1([H])C([H])([H])C2([H])N3C([H])([H])C1(n1nnnc1[H])C([H])([H])C1(C([H])([H])C([H])=C([H])C(=O)C31[H])C2([H])[H]

$$$$
56:0:0
     RDKit          3D

 73 79  0  0  1  0  0  0  0  0999 V2000
   -1.7888    0.9972    7.2750 C   0  0  0  0  0  0  0  0  0  0  0  0
   -1.0902    0.4164    6.2688 C   0  0  0  0  0  0  0  0  0  0  0  0
   -1.5447    0.5227    4.8218 C   0  0  0  0  0  0  0  0  0  0  0  0
   -0.3612    0.5762    3.8322 C   0  0  1  0  0  0  0  0  0  0  0  0
    0.6174    1.6879    4.2457 C   0  0  0  0  0  0  0  0  0  0  0  0
    1.8369    1.0840    4.9534 C   0  0  2  0  0  0  0  0  0  0  0  0
    2.6035    0.2438    3.8964 C   0  0  0  0  0  0  0  0  0  0  0  0
    3.7157    0.5729    3.5185 O   0  0  0  0  0  0  0  0  0  0  0  0
    1.8910   -0.9452    3.3103 C   0  0  2  0  0  0  0  0  0  0  0  0
    2.6900   -2.2853    3.4616 C   0  0  0  0  0  0  0  0  0  0  0  0
    3.8812   -2.7041    2.5158 C   0  0  1  0  0  0  0  0  0  0  0  0
    4.9142   -1.7610    2.6954 O   0  0  0  0  0  0  0  0  0  0  0  0
    4.5155   -4.0305    2.9557 C   0  0  1  0  0  0  0  0  0  0  0  0
    4.0551   -5.3892    3.5408 C   0  0  0  0  0  0  0  0  0  0  0  0
    5.1332   -6.3189    4.0906 C   0  0  0  0  0  0  0  0  0  0  0  0
    2.8438   -5.5233    4.4475 C   0  0  0  0  0  0  0  0  0  0  0  0
    3.9652   -5.1433    2.0640 C   0  0  2  0  0  0  0  0  0  0  0  0
    4.9456   -5.5078    1.0158 C   0  0  0  0  0  0  0  0  0  0  0  0
    5.4421   -6.6444    0.9543 O   0  0  0  0  0  0  0  0  0  0  0  0
    5.3089   -4.4944    0.1861 O   0  0  0  0  0  0  0  0  0  0  0  0
    4.6701   -3.2090    0.0035 C   0  0  1  0  0  0  0  0  0  0  0  0
    4.2314   -3.1023   -1.4563 C   0  0  0  0  0  0  0  0  0  0  0  0
    4.3356   -2.0250   -2.2435 C   0  0  0  0  0  0  0  0  0  0  0  0
    4.8990   -0.6911   -1.7927 C   0  0  0  0  0  0  0  0  0  0  0  0
    3.8712   -2.0607   -3.6818 C   0  0  0  0  0  0  0  0  0  0  0  0
    3.4940   -2.8070    0.9767 C   0  0  2  0  0  0  0  0  0  0  0  0
    3.0621   -1.5294    0.5838 O   0  0  0  0  0  0  0  0  0  0  0  0
    2.4686   -3.7493    0.8021 O   0  0  0  0  0  0  0  0  0  0  0  0
    2.6224   -4.9713    1.3963 C   0  0  0  0  0  0  0  0  0  0  0  0
    1.7788   -5.8636    1.3966 O   0  0  0  0  0  0  0  0  0  0  0  0
    0.8961   -0.8635    2.2085 C   0  0  0  0  0  0  0  0  0  0  0  0
    0.3650   -0.7759    3.5986 C   0  0  2  0  0  0  0  0  0  0  0  0
   -0.0264   -1.8863    4.4786 C   0  0  0  0  0  0  0  0  0  0  0  0
    0.0007   -1.7515    5.8110 C   0  0  0  0  0  0  0  0  0  0  0  0
    0.1539   -0.4190    6.5329 C   0  0  1  0  0  0  0  0  0  0  0  0
    1.4941    0.3888    6.3302 C   0  0  1  0  0  0  0  0  0  0  0  0
    2.6966   -0.3650    6.9244 C   0  0  0  0  0  0  0  0  0  0  0  0
   -1.4566    0.9255    8.2977 H   0  0  0  0  0  0  0  0  0  0  0  0
   -2.6746    1.5753    7.0711 H   0  0  0  0  0  0  0  0  0  0  0  0
   -2.2357   -0.2799    4.5572 H   0  0  0  0  0  0  0  0  0  0  0  0
   -2.1062    1.4485    4.7152 H   0  0  0  0  0  0  0  0  0  0  0  0
   -0.7936    0.8720    2.8747 H   0  0  0  0  0  0  0  0  0  0  0  0
    0.9514    2.2232    3.3556 H   0  0  0  0  0  0  0  0  0  0  0  0
    0.1285    2.4454    4.8606 H   0  0  0  0  0  0  0  0  0  0  0  0
    2.4910    1.9214    5.2000 H   0  0  0  0  0  0  0  0  0  0  0  0
    3.0441   -2.3322    4.4858 H   0  0  0  0  0  0  0  0  0  0  0  0
    1.9635   -3.0794    3.3662 H   0  0  0  0  0  0  0  0  0  0  0  0
    4.5364   -0.8988    2.5562 H   0  0  0  0  0  0  0  0  0  0  0  0
    5.6016   -3.9758    2.9690 H   0  0  0  0  0  0  0  0  0  0  0  0
    4.8226   -7.3678    4.0336 H   0  0  0  0  0  0  0  0  0  0  0  0
    5.3524   -6.0679    5.1318 H   0  0  0  0  0  0  0  0  0  0  0  0
    6.0589   -6.2111    3.5251 H   0  0  0  0  0  0  0  0  0  0  0  0
    2.5899   -6.5765    4.6030 H   0  0  0  0  0  0  0  0  0  0  0  0
    1.9624   -5.0476    4.0288 H   0  0  0  0  0  0  0  0  0  0  0  0
    3.0591   -5.0685    5.4167 H   0  0  0  0  0  0  0  0  0  0  0  0
    5.4680   -2.4802    0.1629 H   0  0  0  0  0  0  0  0  0  0  0  0
    3.7927   -4.0083   -1.8612 H   0  0  0  0  0  0  0  0  0  0  0  0
    4.2218    0.1156   -2.0467 H   0  0  0  0  0  0  0  0  0  0  0  0
    5.8174   -0.4716   -2.3142 H   0  0  0  0  0  0  0  0  0  0  0  0
    5.0989   -0.6305   -0.7253 H   0  0  0  0  0  0  0  0  0  0  0  0
    4.7027   -1.8049   -4.3242 H   0  0  0  0  0  0  0  0  0  0  0  0
    3.0756   -1.3360   -3.8454 H   0  0  0  0  0  0  0  0  0  0  0  0
    3.4990   -3.0462   -3.9597 H   0  0  0  0  0  0  0  0  0  0  0  0
    2.3949   -1.5907   -0.0986 H   0  0  0  0  0  0  0  0  0  0  0  0
    0.9460    0.0381    1.5949 H   0  0  0  0  0  0  0  0  0  0  0  0
    0.6927   -1.7843    1.6809 H   0  0  0  0  0  0  0  0  0  0  0  0
   -0.1977   -2.8428    4.0192 H   0  0  0  0  0  0  0  0  0  0  0  0
   -0.1799   -2.6130    6.4315 H   0  0  0  0  0  0  0  0  0  0  0  0
    0.1239   -0.6844    7.5928 H   0  0  0  0  0  0  0  0  0  0  0  0
    1.3637    1.2340    7.0101 H   0  0  0  0  0  0  0  0  0  0  0  0
    2.9132   -1.2838    6.3842 H   0  0  0  0  0  0  0  0  0  0  0  0
    2.5162   -0.6421    7.9640 H   0  0  0  0  0  0  0  0  0  0  0  0
    3.5933    0.2564    6.9015 H   0  0  0  0  0  0  0  0  0  0  0  0
  1  2  2  0
  1 38  1  0
  1 39  1  0
  2 35  1  0
  2  3  1  0
  3  4  1  0
  3 40  1  0
  3 41  1  0
  4 32  1  0
  4  5  1  0
  4 42  1  6
  5  6  1  0
  5 43  1  0
  5 44  1  0
  6 36  1  0
  6  7  1  0
  6 45  1  1
  7  8  2  0
  7  9  1  0
  9 32  1  0
  9 10  1  1
  9 31  1  0
 10 11  1  0
 10 46  1  0
 10 47  1  0
 11 26  1  0
 11 12  1  6
 11 13  1  0
 12 48  1  0
 13 17  1  0
 13 14  1  0
 13 49  1  6
 14 15  1  0
 14 16  1  0
 17 14  1  1
 15 50  1  0
 15 51  1  0
 15 52  1  0
 16 53  1  0
 16 54  1  0
 16 55  1  0
 17 29  1  0
 17 18  1  0
 18 19  2  0
 18 20  1  0
 20 21  1  0
 21 22  1  0
 21 26  1  0
 21 56  1  6
 22 23  2  3
 22 57  1  0
 23 24  1  0
 23 25  1  0
 24 58  1  0
 24 59  1  0
 24 60  1  0
 25 61  1  0
 25 62  1  0
 25 63  1  0
 26 27  1  6
 26 28  1  0
 27 64  1  0
 28 29  1  0
 29 30  2  0
 32 31  1  6
 31 65  1  0
 31 66  1  0
 32 33  1  0
 33 34  2  0
 33 67  1  0
 34 35  1  0
 34 68  1  0
 35 36  1  0
 35 69  1  1
 36 37  1  0
 36 70  1  1
 37 71  1  0
 37 72  1  0
 37 73  1  0
M  END
>  <i_m_ct_stereo_status>  (244) 
1

>  <s_m_source_file>  (244) 
/var/tmp/pbs.5076255.sched01/tmp5gbx45fw/500pp51iot.sdf

>  <i_m_source_file_index>  (244) 
47

>  <i_lp_mmshare_version>  (244) 
48012

>  <i_f3d_flags>  (244) 
0

>  <s_epik_input>  (244) 
W0NAQF0xMjNbQ0BIXTRbQ0gyXUMoPVtDSDJdKVtDQEBIXShbQ0hdPVtDSF0zKVtDQEBIXShbQ0gzXSlbQ0BIXShbQ0gyXTQpQyg9TylbQ0BAXTEoW0NIMl0yKVtDSDJdW0NAQF0oW09IXSkoW0NASF0oQzU2NylDNShbQ0gzXSlbQ0gzXSlbQ0BdKFtPSF0pKE9DNz1PKVtDQEBIXShPQzY9TylbQ0hdPUMoW0NIM10pW0NIM10=

>  <s_epik_cmdline>  (244) 
J2VwaWtfcHl0aG9uJywgJy1waHQnLCAnMi4wJywgJy1waCcsICc3LjAnLCAnLXRuJywgJzgnLCAnLW1hJywgJzIwMCcsICctaW1hZScsICc8aW5maWxlLm1hZT4nLCAnLW9tYWUnLCAnPG91dGZpbGUubWFlPic=

>  <r_epik_Ionization_Penalty>  (244) 
0.000322122

>  <r_epik_Ionization_Penalty_Charging>  (244) 
0

>  <r_epik_Ionization_Penalty_Neutral>  (244) 
0.000322122

>  <r_epik_State_Penalty>  (244) 
0.000192789

>  <r_epik_Charging_Adjusted_Penalty>  (244) 
0.000192789

>  <i_epik_Tot_Q>  (244) 
0

>  <i_epik_Tot_abs_Q>  (244) 
0

>  <s_epik_Chemistry_Notes>  (244) 
This compound has an ester and may undergo hydrolysis at high or low pH.

>  <s_lp_Force_Field>  (244) 
OPLS3e

>  <r_lp_Energy>  (244) 
100.945

>  <b_lp_Chiralities_Consistent>  (244) 
1

>  <s_lp_Variant>  (244) 
56:0-1

>  <s_i_glide_gridfile>  (244) 
pfpi4k_grid

>  <i_i_glide_lignum>  (244) 
47

>  <i_i_glide_rotatable_bonds>  (244) 
5

>  <r_i_docking_score>  (244) 
-2.93265

>  <r_i_glide_ligand_efficiency>  (244) 
-0.0792609

>  <r_i_glide_ligand_efficiency_sa>  (244) 
-0.264115

>  <r_i_glide_ligand_efficiency_ln>  (244) 
-0.636024

>  <r_i_glide_gscore>  (244) 
-2.93265

>  <r_i_glide_lipo>  (244) 
-0.24867

>  <r_i_glide_hbond>  (244) 
-0.0381409

>  <r_i_glide_metal>  (244) 
-0

>  <r_i_glide_rewards>  (244) 
-0.592583

>  <r_i_glide_evdw>  (244) 
-26.7305

>  <r_i_glide_ecoul>  (244) 
-6.15496

>  <r_i_glide_erotb>  (244) 
0.237451

>  <r_i_glide_esite>  (244) 
-0.0309432

>  <r_i_glide_emodel>  (244) 
-41.8513

>  <r_i_glide_energy>  (244) 
-32.8854

>  <r_i_glide_einternal>  (244) 
3.02342

>  <r_i_glide_intrahb_reward>  (244) 
-0.5

>  <i_i_glide_confnum>  (244) 
6

>  <i_i_glide_posenum>  (244) 
23

>  <r_i_glide_eff_state_penalty>  (244) 
0

>  <ligand_id>  (244) 
56

>  <original_smiles>  (244) 
C=C1CC2CC3C(=O)C4(CC5(O)C6C(C)(C)C67C(=O)OC(C=C(C)C)C5(O)OC7=O)CC24C=CC1C3C

>  <smiles>  (244) 
[H]OC12OC(=O)C3(C(=O)OC1([H])C([H])=C(C([H])([H])[H])C([H])([H])[H])C([H])(C2(O[H])C([H])([H])C12C(=O)C4([H])C([H])([H])C5([H])C([H])([H])C(=C([H])[H])C([H])(C([H])=C([H])C51C2([H])[H])C4([H])C([H])([H])[H])C3(C([H])([H])[H])C([H])([H])[H]

$$$$
56:0:1
     RDKit          3D

 73 79  0  0  1  0  0  0  0  0999 V2000
   -1.9520    1.0268    7.5532 C   0  0  0  0  0  0  0  0  0  0  0  0
   -1.2475    0.5480    6.5195 C   0  0  0  0  0  0  0  0  0  0  0  0
   -1.8019    0.5779    5.1040 C   0  0  0  0  0  0  0  0  0  0  0  0
   -0.7327    0.8064    4.0266 C   0  0  1  0  0  0  0  0  0  0  0  0
    0.0703    2.0612    4.3824 C   0  0  0  0  0  0  0  0  0  0  0  0
    1.4118    1.6754    5.0067 C   0  0  2  0  0  0  0  0  0  0  0  0
    2.2183    0.9762    3.9011 C   0  0  0  0  0  0  0  0  0  0  0  0
    3.2486    1.4754    3.4593 O   0  0  0  0  0  0  0  0  0  0  0  0
    1.6841   -0.3053    3.3596 C   0  0  2  0  0  0  0  0  0  0  0  0
    2.6861   -1.4894    3.4517 C   0  0  0  0  0  0  0  0  0  0  0  0
    3.9881   -1.5835    2.5772 C   0  0  1  0  0  0  0  0  0  0  0  0
    4.8763   -0.5535    2.9572 O   0  0  0  0  0  0  0  0  0  0  0  0
    4.7722   -2.8763    2.9052 C   0  0  1  0  0  0  0  0  0  0  0  0
    4.4637   -4.3628    3.2100 C   0  0  0  0  0  0  0  0  0  0  0  0
    5.5986   -5.2572    3.6815 C   0  0  0  0  0  0  0  0  0  0  0  0
    3.2083   -4.8254    3.9399 C   0  0  0  0  0  0  0  0  0  0  0  0
    4.4619   -3.8761    1.8141 C   0  0  2  0  0  0  0  0  0  0  0  0
    5.5877   -3.9348    0.8542 C   0  0  0  0  0  0  0  0  0  0  0  0
    6.1961   -4.9764    0.6728 O   0  0  0  0  0  0  0  0  0  0  0  0
    5.8848   -2.7381    0.2542 O   0  0  0  0  0  0  0  0  0  0  0  0
    4.9948   -1.6038    0.0926 C   0  0  1  0  0  0  0  0  0  0  0  0
    4.6772   -1.3292   -1.3820 C   0  0  0  0  0  0  0  0  0  0  0  0
    4.2556   -2.1338   -2.3918 C   0  0  0  0  0  0  0  0  0  0  0  0
    3.9764   -3.6241   -2.3289 C   0  0  0  0  0  0  0  0  0  0  0  0
    3.9790   -1.5749   -3.7613 C   0  0  0  0  0  0  0  0  0  0  0  0
    3.7165   -1.5209    1.0233 C   0  0  2  0  0  0  0  0  0  0  0  0
    3.1074   -0.2832    0.7644 O   0  0  0  0  0  0  0  0  0  0  0  0
    2.8374   -2.5494    0.6589 O   0  0  0  0  0  0  0  0  0  0  0  0
    3.1732   -3.8179    1.0651 C   0  0  0  0  0  0  0  0  0  0  0  0
    2.5149   -4.8246    0.8199 O   0  0  0  0  0  0  0  0  0  0  0  0
    0.6459   -0.4019    2.2866 C   0  0  0  0  0  0  0  0  0  0  0  0
    0.1707   -0.4108    3.7111 C   0  0  2  0  0  0  0  0  0  0  0  0
    0.0474   -1.5582    4.6215 C   0  0  0  0  0  0  0  0  0  0  0  0
    0.1456   -1.4101    5.9537 C   0  0  0  0  0  0  0  0  0  0  0  0
    0.1280   -0.0719    6.6937 C   0  0  1  0  0  0  0  0  0  0  0  0
    1.2859    0.9488    6.4029 C   0  0  1  0  0  0  0  0  0  0  0  0
    2.6354    0.4108    6.9000 C   0  0  0  0  0  0  0  0  0  0  0  0
   -1.5569    1.0143    8.5589 H   0  0  0  0  0  0  0  0  0  0  0  0
   -2.9367    1.4525    7.4160 H   0  0  0  0  0  0  0  0  0  0  0  0
   -2.4056   -0.3099    4.8834 H   0  0  0  0  0  0  0  0  0  0  0  0
   -2.4420    1.4452    5.0431 H   0  0  0  0  0  0  0  0  0  0  0  0
   -1.2749    1.0133    3.1120 H   0  0  0  0  0  0  0  0  0  0  0  0
    0.2510    2.6463    3.4803 H   0  0  0  0  0  0  0  0  0  0  0  0
   -0.4950    2.7274    5.0407 H   0  0  0  0  0  0  0  0  0  0  0  0
    1.9364    2.6067    5.2003 H   0  0  0  0  0  0  0  0  0  0  0  0
    2.9767   -1.5823    4.4907 H   0  0  0  0  0  0  0  0  0  0  0  0
    2.1131   -2.3674    3.2045 H   0  0  0  0  0  0  0  0  0  0  0  0
    4.3873    0.2675    2.8887 H   0  0  0  0  0  0  0  0  0  0  0  0
    5.8346   -2.6683    3.0262 H   0  0  0  0  0  0  0  0  0  0  0  0
    5.4155   -6.3038    3.4131 H   0  0  0  0  0  0  0  0  0  0  0  0
    5.7144   -5.1604    4.7632 H   0  0  0  0  0  0  0  0  0  0  0  0
    6.5298   -4.9520    3.2116 H   0  0  0  0  0  0  0  0  0  0  0  0
    3.1234   -5.9180    3.8904 H   0  0  0  0  0  0  0  0  0  0  0  0
    2.3160   -4.4133    3.4965 H   0  0  0  0  0  0  0  0  0  0  0  0
    3.2852   -4.5090    4.9803 H   0  0  0  0  0  0  0  0  0  0  0  0
    5.6370   -0.7637    0.3601 H   0  0  0  0  0  0  0  0  0  0  0  0
    4.8027   -0.2744   -1.6137 H   0  0  0  0  0  0  0  0  0  0  0  0
    4.5275   -4.1457   -3.1146 H   0  0  0  0  0  0  0  0  0  0  0  0
    2.9081   -3.7807   -2.4993 H   0  0  0  0  0  0  0  0  0  0  0  0
    4.2447   -4.1000   -1.3860 H   0  0  0  0  0  0  0  0  0  0  0  0
    2.9424   -1.7885   -4.0173 H   0  0  0  0  0  0  0  0  0  0  0  0
    4.6039   -2.1047   -4.4774 H   0  0  0  0  0  0  0  0  0  0  0  0
    4.1538   -0.4979   -3.8531 H   0  0  0  0  0  0  0  0  0  0  0  0
    2.4111   -0.4064    0.1349 H   0  0  0  0  0  0  0  0  0  0  0  0
    0.4786    0.4985    1.6943 H   0  0  0  0  0  0  0  0  0  0  0  0
    0.6220   -1.3421    1.7439 H   0  0  0  0  0  0  0  0  0  0  0  0
   -0.0256   -2.5240    4.1530 H   0  0  0  0  0  0  0  0  0  0  0  0
    0.1272   -2.2782    6.5799 H   0  0  0  0  0  0  0  0  0  0  0  0
    0.2116   -0.3329    7.7524 H   0  0  0  0  0  0  0  0  0  0  0  0
    1.0612    1.7730    7.0892 H   0  0  0  0  0  0  0  0  0  0  0  0
    2.9581   -0.4616    6.3333 H   0  0  0  0  0  0  0  0  0  0  0  0
    2.5710    0.1119    7.9475 H   0  0  0  0  0  0  0  0  0  0  0  0
    3.4091    1.1767    6.8137 H   0  0  0  0  0  0  0  0  0  0  0  0
  1  2  2  0
  1 38  1  0
  1 39  1  0
  2 35  1  0
  2  3  1  0
  3  4  1  0
  3 40  1  0
  3 41  1  0
  4 32  1  0
  4  5  1  0
  4 42  1  6
  5  6  1  0
  5 43  1  0
  5 44  1  0
  6 36  1  0
  6  7  1  0
  6 45  1  1
  7  8  2  0
  7  9  1  0
  9 32  1  0
  9 10  1  1
  9 31  1  0
 10 11  1  0
 10 46  1  0
 10 47  1  0
 11 26  1  0
 11 12  1  1
 11 13  1  0
 12 48  1  0
 13 17  1  0
 13 14  1  0
 13 49  1  6
 14 15  1  0
 14 16  1  0
 17 14  1  1
 15 50  1  0
 15 51  1  0
 15 52  1  0
 16 53  1  0
 16 54  1  0
 16 55  1  0
 17 29  1  0
 17 18  1  0
 18 19  2  0
 18 20  1  0
 20 21  1  0
 21 22  1  0
 21 26  1  0
 21 56  1  1
 22 23  2  3
 22 57  1  0
 23 24  1  0
 23 25  1  0
 24 58  1  0
 24 59  1  0
 24 60  1  0
 25 61  1  0
 25 62  1  0
 25 63  1  0
 26 27  1  1
 26 28  1  0
 27 64  1  0
 28 29  1  0
 29 30  2  0
 32 31  1  6
 31 65  1  0
 31 66  1  0
 32 33  1  0
 33 34  2  0
 33 67  1  0
 34 35  1  0
 34 68  1  0
 35 36  1  0
 35 69  1  1
 36 37  1  0
 36 70  1  1
 37 71  1  0
 37 72  1  0
 37 73  1  0
M  END
>  <i_m_ct_stereo_status>  (245) 
1

>  <s_m_source_file>  (245) 
/var/tmp/pbs.5076255.sched01/tmp5gbx45fw/500pp51iot.sdf

>  <i_m_source_file_index>  (245) 
47

>  <i_lp_mmshare_version>  (245) 
48012

>  <i_f3d_flags>  (245) 
0

>  <s_epik_input>  (245) 
W0NAQF0xMjNbQ0BIXTRbQ0gyXUMoPVtDSDJdKVtDQEBIXShbQ0hdPVtDSF0zKVtDQEBIXShbQ0gzXSlbQ0BIXShbQ0gyXTQpQyg9TylbQ0BAXTEoW0NIMl0yKVtDSDJdW0NAQF0oW09IXSkoW0NASF0oQzU2NylDNShbQ0gzXSlbQ0gzXSlbQ0BdKFtPSF0pKE9DNz1PKVtDQEBIXShPQzY9TylbQ0hdPUMoW0NIM10pW0NIM10=

>  <s_epik_cmdline>  (245) 
J2VwaWtfcHl0aG9uJywgJy1waHQnLCAnMi4wJywgJy1waCcsICc3LjAnLCAnLXRuJywgJzgnLCAnLW1hJywgJzIwMCcsICctaW1hZScsICc8aW5maWxlLm1hZT4nLCAnLW9tYWUnLCAnPG91dGZpbGUubWFlPic=

>  <r_epik_Ionization_Penalty>  (245) 
0.000322122

>  <r_epik_Ionization_Penalty_Charging>  (245) 
0

>  <r_epik_Ionization_Penalty_Neutral>  (245) 
0.000322122

>  <r_epik_State_Penalty>  (245) 
0.000192789

>  <r_epik_Charging_Adjusted_Penalty>  (245) 
0.000192789

>  <i_epik_Tot_Q>  (245) 
0

>  <i_epik_Tot_abs_Q>  (245) 
0

>  <s_epik_Chemistry_Notes>  (245) 
This compound has an ester and may undergo hydrolysis at high or low pH.

>  <s_lp_Force_Field>  (245) 
OPLS3e

>  <r_lp_Energy>  (245) 
100.945

>  <b_lp_Chiralities_Consistent>  (245) 
1

>  <s_lp_Variant>  (245) 
56:0-1

>  <s_i_glide_gridfile>  (245) 
pfpi4k_grid

>  <i_i_glide_lignum>  (245) 
47

>  <i_i_glide_rotatable_bonds>  (245) 
5

>  <r_i_docking_score>  (245) 
-2.67387

>  <r_i_glide_ligand_efficiency>  (245) 
-0.0722668

>  <r_i_glide_ligand_efficiency_sa>  (245) 
-0.240809

>  <r_i_glide_ligand_efficiency_ln>  (245) 
-0.5799

>  <r_i_glide_gscore>  (245) 
-2.67387

>  <r_i_glide_lipo>  (245) 
-0.253142

>  <r_i_glide_hbond>  (245) 
0

>  <r_i_glide_metal>  (245) 
-0

>  <r_i_glide_rewards>  (245) 
-0.58475

>  <r_i_glide_evdw>  (245) 
-27.9436

>  <r_i_glide_ecoul>  (245) 
-4.27875

>  <r_i_glide_erotb>  (245) 
0.237451

>  <r_i_glide_esite>  (245) 
-0.0344374

>  <r_i_glide_emodel>  (245) 
-38.5554

>  <r_i_glide_energy>  (245) 
-32.2223

>  <r_i_glide_einternal>  (245) 
5.08175

>  <r_i_glide_intrahb_reward>  (245) 
-0.5

>  <i_i_glide_confnum>  (245) 
2

>  <i_i_glide_posenum>  (245) 
14

>  <r_i_glide_eff_state_penalty>  (245) 
0

>  <ligand_id>  (245) 
56

>  <original_smiles>  (245) 
C=C1CC2CC3C(=O)C4(CC5(O)C6C(C)(C)C67C(=O)OC(C=C(C)C)C5(O)OC7=O)CC24C=CC1C3C

>  <smiles>  (245) 
[H]OC12OC(=O)C3(C(=O)OC1([H])C([H])=C(C([H])([H])[H])C([H])([H])[H])C([H])(C2(O[H])C([H])([H])C12C(=O)C4([H])C([H])([H])C5([H])C([H])([H])C(=C([H])[H])C([H])(C([H])=C([H])C51C2([H])[H])C4([H])C([H])([H])[H])C3(C([H])([H])[H])C([H])([H])[H]

$$$$
56:0:2
     RDKit          3D

 73 79  0  0  1  0  0  0  0  0999 V2000
   -1.7381    3.8683    7.6319 C   0  0  0  0  0  0  0  0  0  0  0  0
   -1.1974    2.9761    6.7769 C   0  0  0  0  0  0  0  0  0  0  0  0
   -2.0099    2.3471    5.6565 C   0  0  0  0  0  0  0  0  0  0  0  0
   -1.1676    2.0432    4.3972 C   0  0  1  0  0  0  0  0  0  0  0  0
   -0.4080    3.3100    3.9733 C   0  0  0  0  0  0  0  0  0  0  0  0
    1.0578    3.2287    4.4179 C   0  0  2  0  0  0  0  0  0  0  0  0
    1.7087    2.0802    3.6126 C   0  0  0  0  0  0  0  0  0  0  0  0
    2.5909    2.3107    2.8024 O   0  0  0  0  0  0  0  0  0  0  0  0
    1.1753    0.6963    3.8345 C   0  0  2  0  0  0  0  0  0  0  0  0
    2.2718   -0.3263    4.2568 C   0  0  0  0  0  0  0  0  0  0  0  0
    3.3796   -0.8889    3.2829 C   0  0  1  0  0  0  0  0  0  0  0  0
    4.3072    0.1490    3.0730 O   0  0  0  0  0  0  0  0  0  0  0  0
    4.2159   -1.9903    3.9387 C   0  0  1  0  0  0  0  0  0  0  0  0
    3.9992   -3.1966    4.8848 C   0  0  0  0  0  0  0  0  0  0  0  0
    5.2391   -3.8577    5.4809 C   0  0  0  0  0  0  0  0  0  0  0  0
    2.9284   -3.2188    5.9606 C   0  0  0  0  0  0  0  0  0  0  0  0
    3.7007   -3.3188    3.4157 C   0  0  2  0  0  0  0  0  0  0  0  0
    4.5909   -3.8604    2.3707 C   0  0  0  0  0  0  0  0  0  0  0  0
    5.2232   -4.9157    2.5119 O   0  0  0  0  0  0  0  0  0  0  0  0
    4.7063   -3.0707    1.2760 O   0  0  0  0  0  0  0  0  0  0  0  0
    3.9278   -1.9230    0.8845 C   0  0  1  0  0  0  0  0  0  0  0  0
    3.3421   -2.2244   -0.4902 C   0  0  0  0  0  0  0  0  0  0  0  0
    3.7298   -1.7131   -1.6697 C   0  0  0  0  0  0  0  0  0  0  0  0
    4.8732   -0.7365   -1.8494 C   0  0  0  0  0  0  0  0  0  0  0  0
    3.0419   -2.1173   -2.9569 C   0  0  0  0  0  0  0  0  0  0  0  0
    2.8314   -1.3970    1.8863 C   0  0  2  0  0  0  0  0  0  0  0  0
    2.2099   -0.3032    1.2908 O   0  0  0  0  0  0  0  0  0  0  0  0
    1.9019   -2.4263    2.1083 O   0  0  0  0  0  0  0  0  0  0  0  0
    2.2852   -3.4462    2.9295 C   0  0  0  0  0  0  0  0  0  0  0  0
    1.5829   -4.3985    3.2742 O   0  0  0  0  0  0  0  0  0  0  0  0
   -0.0359    0.1390    3.1712 C   0  0  0  0  0  0  0  0  0  0  0  0
   -0.2249    0.8130    4.5006 C   0  0  2  0  0  0  0  0  0  0  0  0
   -0.1047    0.2077    5.8369 C   0  0  0  0  0  0  0  0  0  0  0  0
    0.2145    0.9495    6.9063 C   0  0  0  0  0  0  0  0  0  0  0  0
    0.2291    2.4729    6.9293 C   0  0  1  0  0  0  0  0  0  0  0  0
    1.2462    3.2208    5.9865 C   0  0  1  0  0  0  0  0  0  0  0  0
    2.7023    2.9452    6.4017 C   0  0  0  0  0  0  0  0  0  0  0  0
   -1.1608    4.2777    8.4456 H   0  0  0  0  0  0  0  0  0  0  0  0
   -2.7614    4.1901    7.5331 H   0  0  0  0  0  0  0  0  0  0  0  0
   -2.5375    1.4574    6.0106 H   0  0  0  0  0  0  0  0  0  0  0  0
   -2.7801    3.0592    5.3788 H   0  0  0  0  0  0  0  0  0  0  0  0
   -1.8874    1.8212    3.6098 H   0  0  0  0  0  0  0  0  0  0  0  0
   -0.4428    3.4058    2.8868 H   0  0  0  0  0  0  0  0  0  0  0  0
   -0.8919    4.2163    4.3491 H   0  0  0  0  0  0  0  0  0  0  0  0
    1.5308    4.1497    4.0698 H   0  0  0  0  0  0  0  0  0  0  0  0
    2.7576    0.0504    5.1529 H   0  0  0  0  0  0  0  0  0  0  0  0
    1.7120   -1.1883    4.5727 H   0  0  0  0  0  0  0  0  0  0  0  0
    3.8213    0.8873    2.7266 H   0  0  0  0  0  0  0  0  0  0  0  0
    5.2765   -1.8423    3.7752 H   0  0  0  0  0  0  0  0  0  0  0  0
    5.0516   -4.9089    5.7176 H   0  0  0  0  0  0  0  0  0  0  0  0
    5.5401   -3.3302    6.3877 H   0  0  0  0  0  0  0  0  0  0  0  0
    6.0694   -3.8136    4.7843 H   0  0  0  0  0  0  0  0  0  0  0  0
    2.8443   -4.2176    6.4001 H   0  0  0  0  0  0  0  0  0  0  0  0
    1.9480   -2.9794    5.5687 H   0  0  0  0  0  0  0  0  0  0  0  0
    3.1901   -2.5034    6.7413 H   0  0  0  0  0  0  0  0  0  0  0  0
    4.6525   -1.1157    0.8017 H   0  0  0  0  0  0  0  0  0  0  0  0
    2.5261   -2.9323   -0.4855 H   0  0  0  0  0  0  0  0  0  0  0  0
    4.5389    0.1285   -2.4185 H   0  0  0  0  0  0  0  0  0  0  0  0
    5.6711   -1.2354   -2.3920 H   0  0  0  0  0  0  0  0  0  0  0  0
    5.3020   -0.3723   -0.9211 H   0  0  0  0  0  0  0  0  0  0  0  0
    3.7522   -2.5818   -3.6400 H   0  0  0  0  0  0  0  0  0  0  0  0
    2.6170   -1.2420   -3.4441 H   0  0  0  0  0  0  0  0  0  0  0  0
    2.2333   -2.8266   -2.7763 H   0  0  0  0  0  0  0  0  0  0  0  0
    1.7130   -0.5885    0.5115 H   0  0  0  0  0  0  0  0  0  0  0  0
   -0.3621    0.6531    2.2644 H   0  0  0  0  0  0  0  0  0  0  0  0
   -0.1172   -0.9428    3.1608 H   0  0  0  0  0  0  0  0  0  0  0  0
   -0.1395   -0.8623    5.8970 H   0  0  0  0  0  0  0  0  0  0  0  0
    0.4067    0.4708    7.8520 H   0  0  0  0  0  0  0  0  0  0  0  0
    0.5240    2.7218    7.9506 H   0  0  0  0  0  0  0  0  0  0  0  0
    1.0982    4.2673    6.2666 H   0  0  0  0  0  0  0  0  0  0  0  0
    2.9867    1.9069    6.2451 H   0  0  0  0  0  0  0  0  0  0  0  0
    2.8614    3.1627    7.4590 H   0  0  0  0  0  0  0  0  0  0  0  0
    3.3924    3.5691    5.8305 H   0  0  0  0  0  0  0  0  0  0  0  0
  1  2  2  0
  1 38  1  0
  1 39  1  0
  2 35  1  0
  2  3  1  0
  3  4  1  0
  3 40  1  0
  3 41  1  0
  4 32  1  0
  4  5  1  0
  4 42  1  6
  5  6  1  0
  5 43  1  0
  5 44  1  0
  6 36  1  0
  6  7  1  0
  6 45  1  6
  7  8  2  0
  7  9  1  0
  9 32  1  0
  9 10  1  1
  9 31  1  0
 10 11  1  0
 10 46  1  0
 10 47  1  0
 11 26  1  0
 11 12  1  6
 11 13  1  0
 12 48  1  0
 13 17  1  0
 13 14  1  0
 13 49  1  6
 14 15  1  0
 14 16  1  0
 17 14  1  1
 15 50  1  0
 15 51  1  0
 15 52  1  0
 16 53  1  0
 16 54  1  0
 16 55  1  0
 17 29  1  0
 17 18  1  0
 18 19  2  0
 18 20  1  0
 20 21  1  0
 21 22  1  0
 21 26  1  0
 21 56  1  6
 22 23  2  3
 22 57  1  0
 23 24  1  0
 23 25  1  0
 24 58  1  0
 24 59  1  0
 24 60  1  0
 25 61  1  0
 25 62  1  0
 25 63  1  0
 26 27  1  6
 26 28  1  0
 27 64  1  0
 28 29  1  0
 29 30  2  0
 32 31  1  6
 31 65  1  0
 31 66  1  0
 32 33  1  0
 33 34  2  0
 33 67  1  0
 34 35  1  0
 34 68  1  0
 35 36  1  0
 35 69  1  1
 36 37  1  0
 36 70  1  1
 37 71  1  0
 37 72  1  0
 37 73  1  0
M  END
>  <i_m_ct_stereo_status>  (246) 
1

>  <s_m_source_file>  (246) 
/var/tmp/pbs.5076255.sched01/tmp5gbx45fw/500pp51iot.sdf

>  <i_m_source_file_index>  (246) 
47

>  <i_lp_mmshare_version>  (246) 
48012

>  <i_f3d_flags>  (246) 
0

>  <s_epik_input>  (246) 
W0NAQF0xMjNbQ0BIXTRbQ0gyXUMoPVtDSDJdKVtDQEBIXShbQ0hdPVtDSF0zKVtDQEBIXShbQ0gzXSlbQ0BIXShbQ0gyXTQpQyg9TylbQ0BAXTEoW0NIMl0yKVtDSDJdW0NAQF0oW09IXSkoW0NASF0oQzU2NylDNShbQ0gzXSlbQ0gzXSlbQ0BdKFtPSF0pKE9DNz1PKVtDQEBIXShPQzY9TylbQ0hdPUMoW0NIM10pW0NIM10=

>  <s_epik_cmdline>  (246) 
J2VwaWtfcHl0aG9uJywgJy1waHQnLCAnMi4wJywgJy1waCcsICc3LjAnLCAnLXRuJywgJzgnLCAnLW1hJywgJzIwMCcsICctaW1hZScsICc8aW5maWxlLm1hZT4nLCAnLW9tYWUnLCAnPG91dGZpbGUubWFlPic=

>  <r_epik_Ionization_Penalty>  (246) 
0.000322122

>  <r_epik_Ionization_Penalty_Charging>  (246) 
0

>  <r_epik_Ionization_Penalty_Neutral>  (246) 
0.000322122

>  <r_epik_State_Penalty>  (246) 
0.000192789

>  <r_epik_Charging_Adjusted_Penalty>  (246) 
0.000192789

>  <i_epik_Tot_Q>  (246) 
0

>  <i_epik_Tot_abs_Q>  (246) 
0

>  <s_epik_Chemistry_Notes>  (246) 
This compound has an ester and may undergo hydrolysis at high or low pH.

>  <s_lp_Force_Field>  (246) 
OPLS3e

>  <r_lp_Energy>  (246) 
100.945

>  <b_lp_Chiralities_Consistent>  (246) 
1

>  <s_lp_Variant>  (246) 
56:0-1

>  <s_i_glide_gridfile>  (246) 
pfpi4k_grid

>  <i_i_glide_lignum>  (246) 
47

>  <i_i_glide_rotatable_bonds>  (246) 
5

>  <r_i_docking_score>  (246) 
-2.29567

>  <r_i_glide_ligand_efficiency>  (246) 
-0.0620452

>  <r_i_glide_ligand_efficiency_sa>  (246) 
-0.206748

>  <r_i_glide_ligand_efficiency_ln>  (246) 
-0.497877

>  <r_i_glide_gscore>  (246) 
-2.29567

>  <r_i_glide_lipo>  (246) 
-0.0776966

>  <r_i_glide_hbond>  (246) 
0

>  <r_i_glide_metal>  (246) 
-0

>  <r_i_glide_rewards>  (246) 
-0.52568

>  <r_i_glide_evdw>  (246) 
-24.5064

>  <r_i_glide_ecoul>  (246) 
-4.34872

>  <r_i_glide_erotb>  (246) 
0.237451

>  <r_i_glide_esite>  (246) 
-0.0521185

>  <r_i_glide_emodel>  (246) 
-38.0356

>  <r_i_glide_energy>  (246) 
-28.8551

>  <r_i_glide_einternal>  (246) 
0.793581

>  <r_i_glide_intrahb_reward>  (246) 
-0.5

>  <i_i_glide_confnum>  (246) 
6

>  <i_i_glide_posenum>  (246) 
34

>  <r_i_glide_eff_state_penalty>  (246) 
0

>  <ligand_id>  (246) 
56

>  <original_smiles>  (246) 
C=C1CC2CC3C(=O)C4(CC5(O)C6C(C)(C)C67C(=O)OC(C=C(C)C)C5(O)OC7=O)CC24C=CC1C3C

>  <smiles>  (246) 
[H]OC12OC(=O)C3(C(=O)OC1([H])C([H])=C(C([H])([H])[H])C([H])([H])[H])C([H])(C2(O[H])C([H])([H])C12C(=O)C4([H])C([H])([H])C5([H])C([H])([H])C(=C([H])[H])C([H])(C([H])=C([H])C51C2([H])[H])C4([H])C([H])([H])[H])C3(C([H])([H])[H])C([H])([H])[H]

$$$$
58:0:0
     RDKit          3D

 28 30  0  0  1  0  0  0  0  0999 V2000
   -1.2779   -9.2137    2.2236 C   0  0  0  0  0  0  0  0  0  0  0  0
   -0.3791   -8.0556    2.4860 C   0  0  0  0  0  0  0  0  0  0  0  0
   -0.1996   -7.0881    1.5890 N   0  0  0  0  0  0  0  0  0  0  0  0
    0.6924   -6.2149    2.2287 O   0  0  0  0  0  0  0  0  0  0  0  0
    0.9178   -6.7516    3.4547 C   0  0  0  0  0  0  0  0  0  0  0  0
    1.7961   -6.0338    4.4233 C   0  0  0  0  0  0  0  0  0  0  0  0
    1.0758   -5.0536    5.2444 N   0  0  0  0  0  0  0  0  0  0  0  0
    1.8245   -4.7824    6.4880 C   0  0  0  0  0  0  0  0  0  0  0  0
    0.9882   -3.8997    7.4601 C   0  0  0  0  0  0  0  0  0  0  0  0
    0.4058   -2.7757    6.6953 C   0  0  0  0  0  0  0  0  0  0  0  0
   -0.1366   -1.6943    7.2941 O   0  0  0  0  0  0  0  0  0  0  0  0
   -0.5909   -0.8462    6.2699 N   0  0  0  0  0  0  0  0  0  0  0  0
   -0.2954   -1.4490    5.1240 C   0  0  0  0  0  0  0  0  0  0  0  0
    0.3071   -2.7164    5.3499 C   0  0  0  0  0  0  0  0  0  0  0  0
    0.8462   -3.8144    4.4724 C   0  0  0  0  0  0  0  0  0  0  0  0
    0.2786   -7.8973    3.6634 N   0  0  0  0  0  0  0  0  0  0  0  0
   -1.8841   -9.0530    1.3349 H   0  0  0  0  0  0  0  0  0  0  0  0
   -1.9387   -9.3800    3.0755 H   0  0  0  0  0  0  0  0  0  0  0  0
   -0.6915  -10.1181    2.0654 H   0  0  0  0  0  0  0  0  0  0  0  0
    2.2491   -6.7945    5.0601 H   0  0  0  0  0  0  0  0  0  0  0  0
    2.6175   -5.5546    3.8876 H   0  0  0  0  0  0  0  0  0  0  0  0
    2.0706   -5.7158    6.9948 H   0  0  0  0  0  0  0  0  0  0  0  0
    2.7647   -4.2843    6.2424 H   0  0  0  0  0  0  0  0  0  0  0  0
    0.1798   -4.4913    7.8911 H   0  0  0  0  0  0  0  0  0  0  0  0
    1.5996   -3.5383    8.2887 H   0  0  0  0  0  0  0  0  0  0  0  0
   -0.5310   -0.9540    4.1958 H   0  0  0  0  0  0  0  0  0  0  0  0
    1.7737   -3.4903    3.9944 H   0  0  0  0  0  0  0  0  0  0  0  0
    0.1548   -4.0367    3.6660 H   0  0  0  0  0  0  0  0  0  0  0  0
  1  2  1  0
  1 17  1  0
  1 18  1  0
  1 19  1  0
  2 16  1  0
  2  3  2  0
  3  4  1  0
  4  5  1  0
  5  6  1  0
  5 16  2  0
  6  7  1  0
  6 20  1  0
  6 21  1  0
  7 15  1  0
  7  8  1  0
  8  9  1  0
  8 22  1  0
  8 23  1  0
  9 10  1  0
  9 24  1  0
  9 25  1  0
 10 14  2  0
 10 11  1  0
 11 12  1  0
 12 13  2  0
 13 14  1  0
 13 26  1  0
 14 15  1  0
 15 27  1  0
 15 28  1  0
M  END
>  <i_m_ct_stereo_status>  (247) 
1

>  <s_m_source_file>  (247) 
/var/tmp/pbs.5076255.sched01/tmp5gbx45fw/500pp51iot.sdf

>  <i_m_source_file_index>  (247) 
49

>  <i_lp_mmshare_version>  (247) 
48012

>  <i_f3d_flags>  (247) 
0

>  <s_epik_input>  (247) 
W0NIM11jMW5vYyhuMSlbQ0gyXU4oW0NIMl1bQ0gyXTIpW0NIMl1jKGMyMylbY0hdbm8z

>  <s_epik_cmdline>  (247) 
J2VwaWtfcHl0aG9uJywgJy1waHQnLCAnMi4wJywgJy1waCcsICc3LjAnLCAnLXRuJywgJzgnLCAnLW1hJywgJzIwMCcsICctaW1hZScsICc8aW5maWxlLm1hZT4nLCAnLW9tYWUnLCAnPG91dGZpbGUubWFlPic=

>  <r_lp_tautomer_probability>  (247) 
1

>  <r_epik_Ionization_Penalty>  (247) 
0.167662

>  <r_epik_Ionization_Penalty_Charging>  (247) 
0

>  <r_epik_Ionization_Penalty_Neutral>  (247) 
0.167662

>  <r_epik_State_Penalty>  (247) 
0.15702

>  <r_epik_Charging_Adjusted_Penalty>  (247) 
0.15702

>  <i_epik_Tot_Q>  (247) 
0

>  <i_epik_Tot_abs_Q>  (247) 
0

>  <s_lp_Force_Field>  (247) 
OPLS3e

>  <r_lp_Energy>  (247) 
0.259681

>  <b_lp_Chiralities_Consistent>  (247) 
1

>  <s_lp_Variant>  (247) 
58:0-1

>  <s_i_glide_gridfile>  (247) 
pfpi4k_grid

>  <i_i_glide_lignum>  (247) 
49

>  <i_i_glide_rotatable_bonds>  (247) 
2

>  <r_i_docking_score>  (247) 
-3.3832

>  <r_i_glide_ligand_efficiency>  (247) 
-0.21145

>  <r_i_glide_ligand_efficiency_sa>  (247) 
-0.532821

>  <r_i_glide_ligand_efficiency_ln>  (247) 
-0.896785

>  <r_i_glide_gscore>  (247) 
-3.3832

>  <r_i_glide_lipo>  (247) 
-0.223

>  <r_i_glide_hbond>  (247) 
0

>  <r_i_glide_metal>  (247) 
-0

>  <r_i_glide_rewards>  (247) 
-1.90754

>  <r_i_glide_evdw>  (247) 
-15.2322

>  <r_i_glide_ecoul>  (247) 
-5.5808

>  <r_i_glide_erotb>  (247) 
0.694808

>  <r_i_glide_esite>  (247) 
-0.348745

>  <r_i_glide_emodel>  (247) 
-24.9405

>  <r_i_glide_energy>  (247) 
-20.813

>  <r_i_glide_einternal>  (247) 
1.79854

>  <r_i_glide_intrahb_reward>  (247) 
-0

>  <i_i_glide_confnum>  (247) 
5

>  <i_i_glide_posenum>  (247) 
33

>  <r_i_glide_eff_state_penalty>  (247) 
0

>  <ligand_id>  (247) 
58

>  <original_smiles>  (247) 
Cc1noc(CN2CCc3oncc3C2)n1

>  <smiles>  (247) 
[H]c1noc2c1C([H])([H])N(C([H])([H])c1nc(C([H])([H])[H])no1)C([H])([H])C2([H])[H]

$$$$
58:0:1
     RDKit          3D

 28 30  0  0  1  0  0  0  0  0999 V2000
    0.0382   -7.1126    3.9575 C   0  0  0  0  0  0  0  0  0  0  0  0
    0.8680   -6.8614    2.7504 C   0  0  0  0  0  0  0  0  0  0  0  0
    0.3301   -6.3898    1.6312 N   0  0  0  0  0  0  0  0  0  0  0  0
    1.4317   -6.2633    0.7731 O   0  0  0  0  0  0  0  0  0  0  0  0
    2.5105   -6.6752    1.4921 C   0  0  0  0  0  0  0  0  0  0  0  0
    3.8739   -6.6438    0.8768 C   0  0  0  0  0  0  0  0  0  0  0  0
    4.4897   -5.3135    0.8836 N   0  0  0  0  0  0  0  0  0  0  0  0
    5.9504   -5.4266    0.6918 C   0  0  0  0  0  0  0  0  0  0  0  0
    6.6440   -4.0464    0.8839 C   0  0  0  0  0  0  0  0  0  0  0  0
    5.8879   -3.0251    0.1279 C   0  0  0  0  0  0  0  0  0  0  0  0
    6.3895   -1.8025   -0.1530 O   0  0  0  0  0  0  0  0  0  0  0  0
    5.4085   -1.1216   -0.8904 N   0  0  0  0  0  0  0  0  0  0  0  0
    4.3689   -1.9424   -0.9895 C   0  0  0  0  0  0  0  0  0  0  0  0
    4.6284   -3.1773   -0.3348 C   0  0  0  0  0  0  0  0  0  0  0  0
    3.8690   -4.4631   -0.1548 C   0  0  0  0  0  0  0  0  0  0  0  0
    2.2109   -7.0635    2.7270 N   0  0  0  0  0  0  0  0  0  0  0  0
   -0.9506   -6.6656    3.8579 H   0  0  0  0  0  0  0  0  0  0  0  0
    0.5218   -6.6880    4.8385 H   0  0  0  0  0  0  0  0  0  0  0  0
   -0.0915   -8.1842    4.1072 H   0  0  0  0  0  0  0  0  0  0  0  0
    4.4934   -7.3410    1.4446 H   0  0  0  0  0  0  0  0  0  0  0  0
    3.8331   -7.0391   -0.1394 H   0  0  0  0  0  0  0  0  0  0  0  0
    6.3778   -6.1316    1.4072 H   0  0  0  0  0  0  0  0  0  0  0  0
    6.1534   -5.8143   -0.3085 H   0  0  0  0  0  0  0  0  0  0  0  0
    6.6374   -3.7780    1.9406 H   0  0  0  0  0  0  0  0  0  0  0  0
    7.6867   -4.0777    0.5636 H   0  0  0  0  0  0  0  0  0  0  0  0
    3.4927   -1.6249   -1.5324 H   0  0  0  0  0  0  0  0  0  0  0  0
    3.8444   -5.0027   -1.1006 H   0  0  0  0  0  0  0  0  0  0  0  0
    2.8352   -4.2549    0.1208 H   0  0  0  0  0  0  0  0  0  0  0  0
  1  2  1  0
  1 17  1  0
  1 18  1  0
  1 19  1  0
  2 16  1  0
  2  3  2  0
  3  4  1  0
  4  5  1  0
  5  6  1  0
  5 16  2  0
  6  7  1  0
  6 20  1  0
  6 21  1  0
  7 15  1  0
  7  8  1  0
  8  9  1  0
  8 22  1  0
  8 23  1  0
  9 10  1  0
  9 24  1  0
  9 25  1  0
 10 14  2  0
 10 11  1  0
 11 12  1  0
 12 13  2  0
 13 14  1  0
 13 26  1  0
 14 15  1  0
 15 27  1  0
 15 28  1  0
M  END
>  <i_m_ct_stereo_status>  (248) 
1

>  <s_m_source_file>  (248) 
/var/tmp/pbs.5076255.sched01/tmp5gbx45fw/500pp51iot.sdf

>  <i_m_source_file_index>  (248) 
49

>  <i_lp_mmshare_version>  (248) 
48012

>  <i_f3d_flags>  (248) 
0

>  <s_epik_input>  (248) 
W0NIM11jMW5vYyhuMSlbQ0gyXU4oW0NIMl1bQ0gyXTIpW0NIMl1jKGMyMylbY0hdbm8z

>  <s_epik_cmdline>  (248) 
J2VwaWtfcHl0aG9uJywgJy1waHQnLCAnMi4wJywgJy1waCcsICc3LjAnLCAnLXRuJywgJzgnLCAnLW1hJywgJzIwMCcsICctaW1hZScsICc8aW5maWxlLm1hZT4nLCAnLW9tYWUnLCAnPG91dGZpbGUubWFlPic=

>  <r_lp_tautomer_probability>  (248) 
1

>  <r_epik_Ionization_Penalty>  (248) 
0.167662

>  <r_epik_Ionization_Penalty_Charging>  (248) 
0

>  <r_epik_Ionization_Penalty_Neutral>  (248) 
0.167662

>  <r_epik_State_Penalty>  (248) 
0.15702

>  <r_epik_Charging_Adjusted_Penalty>  (248) 
0.15702

>  <i_epik_Tot_Q>  (248) 
0

>  <i_epik_Tot_abs_Q>  (248) 
0

>  <s_lp_Force_Field>  (248) 
OPLS3e

>  <r_lp_Energy>  (248) 
0.259681

>  <b_lp_Chiralities_Consistent>  (248) 
1

>  <s_lp_Variant>  (248) 
58:0-1

>  <s_i_glide_gridfile>  (248) 
pfpi4k_grid

>  <i_i_glide_lignum>  (248) 
49

>  <i_i_glide_rotatable_bonds>  (248) 
2

>  <r_i_docking_score>  (248) 
-3.36005

>  <r_i_glide_ligand_efficiency>  (248) 
-0.210003

>  <r_i_glide_ligand_efficiency_sa>  (248) 
-0.529175

>  <r_i_glide_ligand_efficiency_ln>  (248) 
-0.890648

>  <r_i_glide_gscore>  (248) 
-3.36005

>  <r_i_glide_lipo>  (248) 
-0.38608

>  <r_i_glide_hbond>  (248) 
0

>  <r_i_glide_metal>  (248) 
-0

>  <r_i_glide_rewards>  (248) 
-1.90754

>  <r_i_glide_evdw>  (248) 
-16.3891

>  <r_i_glide_ecoul>  (248) 
-4.30034

>  <r_i_glide_erotb>  (248) 
0.694808

>  <r_i_glide_esite>  (248) 
-0.296732

>  <r_i_glide_emodel>  (248) 
-24.7349

>  <r_i_glide_energy>  (248) 
-20.6895

>  <r_i_glide_einternal>  (248) 
1.93992

>  <r_i_glide_intrahb_reward>  (248) 
-0

>  <i_i_glide_confnum>  (248) 
5

>  <i_i_glide_posenum>  (248) 
18

>  <r_i_glide_eff_state_penalty>  (248) 
0

>  <ligand_id>  (248) 
58

>  <original_smiles>  (248) 
Cc1noc(CN2CCc3oncc3C2)n1

>  <smiles>  (248) 
[H]c1noc2c1C([H])([H])N(C([H])([H])c1nc(C([H])([H])[H])no1)C([H])([H])C2([H])[H]

$$$$
58:0:2
     RDKit          3D

 28 30  0  0  1  0  0  0  0  0999 V2000
    7.4045   -8.4346    2.5512 C   0  0  0  0  0  0  0  0  0  0  0  0
    6.0114   -8.8408    2.2310 C   0  0  0  0  0  0  0  0  0  0  0  0
    5.4154   -8.4475    1.1139 N   0  0  0  0  0  0  0  0  0  0  0  0
    4.1552   -9.0557    1.1859 O   0  0  0  0  0  0  0  0  0  0  0  0
    4.1417   -9.7293    2.3636 C   0  0  0  0  0  0  0  0  0  0  0  0
    2.9112  -10.4703    2.7691 C   0  0  0  0  0  0  0  0  0  0  0  0
    1.7011   -9.6503    2.8109 N   0  0  0  0  0  0  0  0  0  0  0  0
    0.5001  -10.5070    2.8831 C   0  0  0  0  0  0  0  0  0  0  0  0
   -0.7982   -9.6709    2.7199 C   0  0  0  0  0  0  0  0  0  0  0  0
   -0.6933   -8.4852    3.5896 C   0  0  0  0  0  0  0  0  0  0  0  0
   -1.7589   -7.7074    3.8774 O   0  0  0  0  0  0  0  0  0  0  0  0
   -1.2892   -6.6773    4.7047 N   0  0  0  0  0  0  0  0  0  0  0  0
    0.0087   -6.8898    4.8810 C   0  0  0  0  0  0  0  0  0  0  0  0
    0.4530   -8.0171    4.1397 C   0  0  0  0  0  0  0  0  0  0  0  0
    1.7701   -8.7108    3.9477 C   0  0  0  0  0  0  0  0  0  0  0  0
    5.2684   -9.6177    3.0595 N   0  0  0  0  0  0  0  0  0  0  0  0
    7.9077   -8.0050    1.6817 H   0  0  0  0  0  0  0  0  0  0  0  0
    7.9687   -9.3039    2.8991 H   0  0  0  0  0  0  0  0  0  0  0  0
    7.3984   -7.6743    3.3334 H   0  0  0  0  0  0  0  0  0  0  0  0
    2.7934  -11.2984    2.0780 H   0  0  0  0  0  0  0  0  0  0  0  0
    3.0836  -10.9369    3.7405 H   0  0  0  0  0  0  0  0  0  0  0  0
    0.5149  -11.2526    2.0945 H   0  0  0  0  0  0  0  0  0  0  0  0
    0.4910  -11.0428    3.8337 H   0  0  0  0  0  0  0  0  0  0  0  0
   -0.8979   -9.3260    1.6928 H   0  0  0  0  0  0  0  0  0  0  0  0
   -1.6917  -10.2432    2.9407 H   0  0  0  0  0  0  0  0  0  0  0  0
    0.5642   -6.2255    5.5279 H   0  0  0  0  0  0  0  0  0  0  0  0
    2.0449   -9.2463    4.8579 H   0  0  0  0  0  0  0  0  0  0  0  0
    2.5604   -7.9817    3.7575 H   0  0  0  0  0  0  0  0  0  0  0  0
  1  2  1  0
  1 17  1  0
  1 18  1  0
  1 19  1  0
  2 16  1  0
  2  3  2  0
  3  4  1  0
  4  5  1  0
  5  6  1  0
  5 16  2  0
  6  7  1  0
  6 20  1  0
  6 21  1  0
  7 15  1  0
  7  8  1  0
  8  9  1  0
  8 22  1  0
  8 23  1  0
  9 10  1  0
  9 24  1  0
  9 25  1  0
 10 14  2  0
 10 11  1  0
 11 12  1  0
 12 13  2  0
 13 14  1  0
 13 26  1  0
 14 15  1  0
 15 27  1  0
 15 28  1  0
M  END
>  <i_m_ct_stereo_status>  (249) 
1

>  <s_m_source_file>  (249) 
/var/tmp/pbs.5076255.sched01/tmp5gbx45fw/500pp51iot.sdf

>  <i_m_source_file_index>  (249) 
49

>  <i_lp_mmshare_version>  (249) 
48012

>  <i_f3d_flags>  (249) 
0

>  <s_epik_input>  (249) 
W0NIM11jMW5vYyhuMSlbQ0gyXU4oW0NIMl1bQ0gyXTIpW0NIMl1jKGMyMylbY0hdbm8z

>  <s_epik_cmdline>  (249) 
J2VwaWtfcHl0aG9uJywgJy1waHQnLCAnMi4wJywgJy1waCcsICc3LjAnLCAnLXRuJywgJzgnLCAnLW1hJywgJzIwMCcsICctaW1hZScsICc8aW5maWxlLm1hZT4nLCAnLW9tYWUnLCAnPG91dGZpbGUubWFlPic=

>  <r_lp_tautomer_probability>  (249) 
1

>  <r_epik_Ionization_Penalty>  (249) 
0.167662

>  <r_epik_Ionization_Penalty_Charging>  (249) 
0

>  <r_epik_Ionization_Penalty_Neutral>  (249) 
0.167662

>  <r_epik_State_Penalty>  (249) 
0.15702

>  <r_epik_Charging_Adjusted_Penalty>  (249) 
0.15702

>  <i_epik_Tot_Q>  (249) 
0

>  <i_epik_Tot_abs_Q>  (249) 
0

>  <s_lp_Force_Field>  (249) 
OPLS3e

>  <r_lp_Energy>  (249) 
0.259681

>  <b_lp_Chiralities_Consistent>  (249) 
1

>  <s_lp_Variant>  (249) 
58:0-1

>  <s_i_glide_gridfile>  (249) 
pfpi4k_grid

>  <i_i_glide_lignum>  (249) 
49

>  <i_i_glide_rotatable_bonds>  (249) 
2

>  <r_i_docking_score>  (249) 
-2.93162

>  <r_i_glide_ligand_efficiency>  (249) 
-0.183226

>  <r_i_glide_ligand_efficiency_sa>  (249) 
-0.461701

>  <r_i_glide_ligand_efficiency_ln>  (249) 
-0.777084

>  <r_i_glide_gscore>  (249) 
-2.93162

>  <r_i_glide_lipo>  (249) 
-0.135628

>  <r_i_glide_hbond>  (249) 
0

>  <r_i_glide_metal>  (249) 
-0

>  <r_i_glide_rewards>  (249) 
-1.92972

>  <r_i_glide_evdw>  (249) 
-17.6523

>  <r_i_glide_ecoul>  (249) 
-3.35595

>  <r_i_glide_erotb>  (249) 
0.694808

>  <r_i_glide_esite>  (249) 
-0.175067

>  <r_i_glide_emodel>  (249) 
-24.6837

>  <r_i_glide_energy>  (249) 
-21.0083

>  <r_i_glide_einternal>  (249) 
1.41152

>  <r_i_glide_intrahb_reward>  (249) 
-0

>  <i_i_glide_confnum>  (249) 
4

>  <i_i_glide_posenum>  (249) 
12

>  <r_i_glide_eff_state_penalty>  (249) 
0

>  <ligand_id>  (249) 
58

>  <original_smiles>  (249) 
Cc1noc(CN2CCc3oncc3C2)n1

>  <smiles>  (249) 
[H]c1noc2c1C([H])([H])N(C([H])([H])c1nc(C([H])([H])[H])no1)C([H])([H])C2([H])[H]

$$$$
58:1:0
     RDKit          3D

 29 31  0  0  1  0  0  0  0  0999 V2000
    3.1524    0.2383   -4.4182 C   0  0  0  0  0  0  0  0  0  0  0  0
    3.5709   -0.9741   -3.6817 C   0  0  0  0  0  0  0  0  0  0  0  0
    4.2025   -1.9767   -4.2627 N   0  0  0  0  0  0  0  0  0  0  0  0
    4.4212   -2.8847   -3.2175 O   0  0  0  0  0  0  0  0  0  0  0  0
    3.8945   -2.3011   -2.1127 C   0  0  0  0  0  0  0  0  0  0  0  0
    4.0115   -3.0039   -0.7906 C   0  0  0  0  0  0  0  0  0  0  0  0
    3.2203   -2.2533    0.2398 N   0  0  1  0  0  0  0  0  0  0  0  0
    3.0278   -3.1007    1.4698 C   0  0  0  0  0  0  0  0  0  0  0  0
    2.0320   -2.4989    2.5037 C   0  0  0  0  0  0  0  0  0  0  0  0
    2.3259   -1.0619    2.6476 C   0  0  0  0  0  0  0  0  0  0  0  0
    1.7582   -0.3114    3.6305 O   0  0  0  0  0  0  0  0  0  0  0  0
    2.1860    1.0103    3.4368 N   0  0  0  0  0  0  0  0  0  0  0  0
    2.9492    0.9833    2.3437 C   0  0  0  0  0  0  0  0  0  0  0  0
    3.0796   -0.3268    1.8110 C   0  0  0  0  0  0  0  0  0  0  0  0
    3.7821   -0.8999    0.6025 C   0  0  0  0  0  0  0  0  0  0  0  0
    3.3741   -1.1041   -2.3535 N   0  0  0  0  0  0  0  0  0  0  0  0
    3.1298    0.0928   -5.5027 H   0  0  0  0  0  0  0  0  0  0  0  0
    3.8280    1.0631   -4.2027 H   0  0  0  0  0  0  0  0  0  0  0  0
    2.1630    0.5446   -4.0969 H   0  0  0  0  0  0  0  0  0  0  0  0
    3.6438   -4.0160   -0.9015 H   0  0  0  0  0  0  0  0  0  0  0  0
    5.0553   -3.0823   -0.4925 H   0  0  0  0  0  0  0  0  0  0  0  0
    2.6996   -4.1066    1.2241 H   0  0  0  0  0  0  0  0  0  0  0  0
    4.0026   -3.1986    1.9588 H   0  0  0  0  0  0  0  0  0  0  0  0
    1.0070   -2.6025    2.1453 H   0  0  0  0  0  0  0  0  0  0  0  0
    2.0882   -3.0055    3.4720 H   0  0  0  0  0  0  0  0  0  0  0  0
    3.3816    1.9035    1.9781 H   0  0  0  0  0  0  0  0  0  0  0  0
    4.8494   -0.9802    0.8202 H   0  0  0  0  0  0  0  0  0  0  0  0
    3.7099   -0.1898   -0.1971 H   0  0  0  0  0  0  0  0  0  0  0  0
    2.3064   -2.0496   -0.1662 H   0  0  0  0  0  0  0  0  0  0  0  0
  1  2  1  0
  1 17  1  0
  1 18  1  0
  1 19  1  0
  2 16  1  0
  2  3  2  0
  3  4  1  0
  4  5  1  0
  5  6  1  0
  5 16  2  0
  6  7  1  0
  6 20  1  0
  6 21  1  0
  7 15  1  0
  7  8  1  0
  7 29  1  6
  8  9  1  0
  8 22  1  0
  8 23  1  0
  9 10  1  0
  9 24  1  0
  9 25  1  0
 10 14  2  0
 10 11  1  0
 11 12  1  0
 12 13  2  0
 13 14  1  0
 13 26  1  0
 14 15  1  0
 15 27  1  0
 15 28  1  0
M  CHG  1   7   1
M  END
>  <i_m_ct_stereo_status>  (250) 
1

>  <s_m_source_file>  (250) 
/var/tmp/pbs.5076255.sched01/tmp5gbx45fw/500pp51iot.sdf

>  <i_m_source_file_index>  (250) 
50

>  <i_lp_mmshare_version>  (250) 
48012

>  <i_f3d_flags>  (250) 
0

>  <s_epik_input>  (250) 
W0NIM11jMW5vYyhuMSlbQ0gyXU4oW0NIMl1bQ0gyXTIpW0NIMl1jKGMyMylbY0hdbm8z

>  <s_epik_cmdline>  (250) 
J2VwaWtfcHl0aG9uJywgJy1waHQnLCAnMi4wJywgJy1waCcsICc3LjAnLCAnLXRuJywgJzgnLCAnLW1hJywgJzIwMCcsICctaW1hZScsICc8aW5maWxlLm1hZT4nLCAnLW9tYWUnLCAnPG91dGZpbGUubWFlPic=

>  <r_lp_tautomer_probability>  (250) 
1

>  <r_epik_Ionization_Penalty>  (250) 
0.829796

>  <r_epik_Ionization_Penalty_Charging>  (250) 
0.829796

>  <r_epik_Ionization_Penalty_Neutral>  (250) 
5.89539e-12

>  <r_epik_State_Penalty>  (250) 
0.863571

>  <r_epik_Charging_Adjusted_Penalty>  (250) 
1.69337

>  <i_epik_Tot_Q>  (250) 
1

>  <i_epik_Tot_abs_Q>  (250) 
1

>  <s_lp_Force_Field>  (250) 
OPLS3e

>  <r_lp_Energy>  (250) 
6.72674

>  <b_lp_Chiralities_Consistent>  (250) 
1

>  <s_lp_Variant>  (250) 
58:0-2

>  <s_i_glide_gridfile>  (250) 
pfpi4k_grid

>  <i_i_glide_lignum>  (250) 
50

>  <i_i_glide_rotatable_bonds>  (250) 
2

>  <r_i_docking_score>  (250) 
-4.01641

>  <r_i_glide_ligand_efficiency>  (250) 
-0.251026

>  <r_i_glide_ligand_efficiency_sa>  (250) 
-0.632545

>  <r_i_glide_ligand_efficiency_ln>  (250) 
-1.06463

>  <r_i_glide_gscore>  (250) 
-4.01641

>  <r_i_glide_lipo>  (250) 
-0.049528

>  <r_i_glide_hbond>  (250) 
-0.2

>  <r_i_glide_metal>  (250) 
-0

>  <r_i_glide_rewards>  (250) 
-2.21438

>  <r_i_glide_evdw>  (250) 
-18.3095

>  <r_i_glide_ecoul>  (250) 
-8.12631

>  <r_i_glide_erotb>  (250) 
0.689472

>  <r_i_glide_esite>  (250) 
-0.107557

>  <r_i_glide_emodel>  (250) 
-35.0098

>  <r_i_glide_energy>  (250) 
-26.4358

>  <r_i_glide_einternal>  (250) 
1.78037

>  <r_i_glide_intrahb_reward>  (250) 
-0

>  <i_i_glide_confnum>  (250) 
2

>  <i_i_glide_posenum>  (250) 
8

>  <r_i_glide_eff_state_penalty>  (250) 
0

>  <ligand_id>  (250) 
58

>  <original_smiles>  (250) 
Cc1noc(CN2CCc3oncc3C2)n1

>  <smiles>  (250) 
[H]c1noc2c1C([H])([H])[N+]([H])(C([H])([H])c1nc(C([H])([H])[H])no1)C([H])([H])C2([H])[H]

$$$$
58:1:1
     RDKit          3D

 29 31  0  0  1  0  0  0  0  0999 V2000
    2.3609   -5.7656    0.5833 C   0  0  0  0  0  0  0  0  0  0  0  0
    1.4842   -6.7519    1.2962 C   0  0  0  0  0  0  0  0  0  0  0  0
    0.1617   -6.6571    1.2737 N   0  0  0  0  0  0  0  0  0  0  0  0
   -0.2673   -7.7384    2.0572 O   0  0  0  0  0  0  0  0  0  0  0  0
    0.8681   -8.3885    2.4401 C   0  0  0  0  0  0  0  0  0  0  0  0
    0.7998   -9.5862    3.3269 C   0  0  0  0  0  0  0  0  0  0  0  0
    0.4047   -9.1001    4.7022 N   0  0  1  0  0  0  0  0  0  0  0  0
    0.4594  -10.2472    5.6761 C   0  0  0  0  0  0  0  0  0  0  0  0
   -0.2057   -9.9141    7.0356 C   0  0  0  0  0  0  0  0  0  0  0  0
    0.2565   -8.5998    7.4628 C   0  0  0  0  0  0  0  0  0  0  0  0
    0.0435   -8.1466    8.7088 O   0  0  0  0  0  0  0  0  0  0  0  0
    0.5228   -6.8272    8.7368 N   0  0  0  0  0  0  0  0  0  0  0  0
    0.9887   -6.5558    7.5306 C   0  0  0  0  0  0  0  0  0  0  0  0
    0.8112   -7.6463    6.6634 C   0  0  0  0  0  0  0  0  0  0  0  0
    1.1072   -7.8693    5.2155 C   0  0  0  0  0  0  0  0  0  0  0  0
    1.9868   -7.7975    2.0136 N   0  0  0  0  0  0  0  0  0  0  0  0
    1.8029   -4.8945    0.2461 H   0  0  0  0  0  0  0  0  0  0  0  0
    2.7744   -6.2248   -0.3165 H   0  0  0  0  0  0  0  0  0  0  0  0
    3.1713   -5.4427    1.2381 H   0  0  0  0  0  0  0  0  0  0  0  0
    0.1009  -10.3180    2.9240 H   0  0  0  0  0  0  0  0  0  0  0  0
    1.7920  -10.0346    3.3453 H   0  0  0  0  0  0  0  0  0  0  0  0
    0.0166  -11.1450    5.2577 H   0  0  0  0  0  0  0  0  0  0  0  0
    1.5074  -10.5001    5.8388 H   0  0  0  0  0  0  0  0  0  0  0  0
   -1.2870   -9.8751    6.9059 H   0  0  0  0  0  0  0  0  0  0  0  0
    0.0231  -10.6346    7.8086 H   0  0  0  0  0  0  0  0  0  0  0  0
    1.4054   -5.5763    7.3342 H   0  0  0  0  0  0  0  0  0  0  0  0
    2.1811   -8.0285    5.0838 H   0  0  0  0  0  0  0  0  0  0  0  0
    0.8455   -6.9619    4.6535 H   0  0  0  0  0  0  0  0  0  0  0  0
   -0.5797   -8.8691    4.6254 H   0  0  0  0  0  0  0  0  0  0  0  0
  1  2  1  0
  1 17  1  0
  1 18  1  0
  1 19  1  0
  2 16  1  0
  2  3  2  0
  3  4  1  0
  4  5  1  0
  5  6  1  0
  5 16  2  0
  6  7  1  0
  6 20  1  0
  6 21  1  0
  7 15  1  0
  7  8  1  0
  7 29  1  6
  8  9  1  0
  8 22  1  0
  8 23  1  0
  9 10  1  0
  9 24  1  0
  9 25  1  0
 10 14  2  0
 10 11  1  0
 11 12  1  0
 12 13  2  0
 13 14  1  0
 13 26  1  0
 14 15  1  0
 15 27  1  0
 15 28  1  0
M  CHG  1   7   1
M  END
>  <i_m_ct_stereo_status>  (251) 
1

>  <s_m_source_file>  (251) 
/var/tmp/pbs.5076255.sched01/tmp5gbx45fw/500pp51iot.sdf

>  <i_m_source_file_index>  (251) 
50

>  <i_lp_mmshare_version>  (251) 
48012

>  <i_f3d_flags>  (251) 
0

>  <s_epik_input>  (251) 
W0NIM11jMW5vYyhuMSlbQ0gyXU4oW0NIMl1bQ0gyXTIpW0NIMl1jKGMyMylbY0hdbm8z

>  <s_epik_cmdline>  (251) 
J2VwaWtfcHl0aG9uJywgJy1waHQnLCAnMi4wJywgJy1waCcsICc3LjAnLCAnLXRuJywgJzgnLCAnLW1hJywgJzIwMCcsICctaW1hZScsICc8aW5maWxlLm1hZT4nLCAnLW9tYWUnLCAnPG91dGZpbGUubWFlPic=

>  <r_lp_tautomer_probability>  (251) 
1

>  <r_epik_Ionization_Penalty>  (251) 
0.829796

>  <r_epik_Ionization_Penalty_Charging>  (251) 
0.829796

>  <r_epik_Ionization_Penalty_Neutral>  (251) 
5.89539e-12

>  <r_epik_State_Penalty>  (251) 
0.863571

>  <r_epik_Charging_Adjusted_Penalty>  (251) 
1.69337

>  <i_epik_Tot_Q>  (251) 
1

>  <i_epik_Tot_abs_Q>  (251) 
1

>  <s_lp_Force_Field>  (251) 
OPLS3e

>  <r_lp_Energy>  (251) 
6.72674

>  <b_lp_Chiralities_Consistent>  (251) 
1

>  <s_lp_Variant>  (251) 
58:0-2

>  <s_i_glide_gridfile>  (251) 
pfpi4k_grid

>  <i_i_glide_lignum>  (251) 
50

>  <i_i_glide_rotatable_bonds>  (251) 
2

>  <r_i_docking_score>  (251) 
-3.66155

>  <r_i_glide_ligand_efficiency>  (251) 
-0.228847

>  <r_i_glide_ligand_efficiency_sa>  (251) 
-0.576657

>  <r_i_glide_ligand_efficiency_ln>  (251) 
-0.970566

>  <r_i_glide_gscore>  (251) 
-3.66155

>  <r_i_glide_lipo>  (251) 
0

>  <r_i_glide_hbond>  (251) 
0

>  <r_i_glide_metal>  (251) 
-0

>  <r_i_glide_rewards>  (251) 
-1.90066

>  <r_i_glide_evdw>  (251) 
-16.5526

>  <r_i_glide_ecoul>  (251) 
-8.52696

>  <r_i_glide_erotb>  (251) 
0.689472

>  <r_i_glide_esite>  (251) 
-0.343676

>  <r_i_glide_emodel>  (251) 
-33.1489

>  <r_i_glide_energy>  (251) 
-25.0796

>  <r_i_glide_einternal>  (251) 
1.85967

>  <r_i_glide_intrahb_reward>  (251) 
-0

>  <i_i_glide_confnum>  (251) 
1

>  <i_i_glide_posenum>  (251) 
2

>  <r_i_glide_eff_state_penalty>  (251) 
0

>  <ligand_id>  (251) 
58

>  <original_smiles>  (251) 
Cc1noc(CN2CCc3oncc3C2)n1

>  <smiles>  (251) 
[H]c1noc2c1C([H])([H])[N+]([H])(C([H])([H])c1nc(C([H])([H])[H])no1)C([H])([H])C2([H])[H]

$$$$
58:1:2
     RDKit          3D

 29 31  0  0  1  0  0  0  0  0999 V2000
   -0.3819   -8.1251    2.7750 C   0  0  0  0  0  0  0  0  0  0  0  0
    0.6756   -7.4538    1.9762 C   0  0  0  0  0  0  0  0  0  0  0  0
    0.3678   -6.6576    0.9608 N   0  0  0  0  0  0  0  0  0  0  0  0
    1.6180   -6.2406    0.4891 O   0  0  0  0  0  0  0  0  0  0  0  0
    2.5402   -6.8358    1.2891 C   0  0  0  0  0  0  0  0  0  0  0  0
    4.0089   -6.6974    1.0079 C   0  0  0  0  0  0  0  0  0  0  0  0
    4.3215   -5.2394    0.9238 N   0  0  1  0  0  0  0  0  0  0  0  0
    5.7116   -4.9640    1.4197 C   0  0  0  0  0  0  0  0  0  0  0  0
    6.0171   -3.4488    1.5418 C   0  0  0  0  0  0  0  0  0  0  0  0
    5.5351   -2.7654    0.3244 C   0  0  0  0  0  0  0  0  0  0  0  0
    5.8989   -1.5008    0.0160 O   0  0  0  0  0  0  0  0  0  0  0  0
    5.2330   -1.1606   -1.1722 N   0  0  0  0  0  0  0  0  0  0  0  0
    4.4818   -2.2082   -1.4925 C   0  0  0  0  0  0  0  0  0  0  0  0
    4.6523   -3.2728   -0.5628 C   0  0  0  0  0  0  0  0  0  0  0  0
    4.0888   -4.6631   -0.4489 C   0  0  0  0  0  0  0  0  0  0  0  0
    2.0025   -7.5819    2.2467 N   0  0  0  0  0  0  0  0  0  0  0  0
   -1.3510   -8.0652    2.2779 H   0  0  0  0  0  0  0  0  0  0  0  0
   -0.4764   -7.6439    3.7485 H   0  0  0  0  0  0  0  0  0  0  0  0
   -0.1383   -9.1786    2.9253 H   0  0  0  0  0  0  0  0  0  0  0  0
    4.5502   -7.1694    1.8297 H   0  0  0  0  0  0  0  0  0  0  0  0
    4.2929   -7.2337    0.1011 H   0  0  0  0  0  0  0  0  0  0  0  0
    5.8861   -5.4264    2.3930 H   0  0  0  0  0  0  0  0  0  0  0  0
    6.4165   -5.4211    0.7183 H   0  0  0  0  0  0  0  0  0  0  0  0
    5.4965   -3.0384    2.4101 H   0  0  0  0  0  0  0  0  0  0  0  0
    7.0850   -3.2766    1.6821 H   0  0  0  0  0  0  0  0  0  0  0  0
    3.8664   -2.1599   -2.3772 H   0  0  0  0  0  0  0  0  0  0  0  0
    4.5996   -5.3084   -1.1668 H   0  0  0  0  0  0  0  0  0  0  0  0
    3.0324   -4.6583   -0.7162 H   0  0  0  0  0  0  0  0  0  0  0  0
    3.7008   -4.7633    1.5631 H   0  0  0  0  0  0  0  0  0  0  0  0
  1  2  1  0
  1 17  1  0
  1 18  1  0
  1 19  1  0
  2 16  1  0
  2  3  2  0
  3  4  1  0
  4  5  1  0
  5  6  1  0
  5 16  2  0
  6  7  1  0
  6 20  1  0
  6 21  1  0
  7 15  1  0
  7  8  1  0
  7 29  1  1
  8  9  1  0
  8 22  1  0
  8 23  1  0
  9 10  1  0
  9 24  1  0
  9 25  1  0
 10 14  2  0
 10 11  1  0
 11 12  1  0
 12 13  2  0
 13 14  1  0
 13 26  1  0
 14 15  1  0
 15 27  1  0
 15 28  1  0
M  CHG  1   7   1
M  END
>  <i_m_ct_stereo_status>  (252) 
1

>  <s_m_source_file>  (252) 
/var/tmp/pbs.5076255.sched01/tmp5gbx45fw/500pp51iot.sdf

>  <i_m_source_file_index>  (252) 
50

>  <i_lp_mmshare_version>  (252) 
48012

>  <i_f3d_flags>  (252) 
0

>  <s_epik_input>  (252) 
W0NIM11jMW5vYyhuMSlbQ0gyXU4oW0NIMl1bQ0gyXTIpW0NIMl1jKGMyMylbY0hdbm8z

>  <s_epik_cmdline>  (252) 
J2VwaWtfcHl0aG9uJywgJy1waHQnLCAnMi4wJywgJy1waCcsICc3LjAnLCAnLXRuJywgJzgnLCAnLW1hJywgJzIwMCcsICctaW1hZScsICc8aW5maWxlLm1hZT4nLCAnLW9tYWUnLCAnPG91dGZpbGUubWFlPic=

>  <r_lp_tautomer_probability>  (252) 
1

>  <r_epik_Ionization_Penalty>  (252) 
0.829796

>  <r_epik_Ionization_Penalty_Charging>  (252) 
0.829796

>  <r_epik_Ionization_Penalty_Neutral>  (252) 
5.89539e-12

>  <r_epik_State_Penalty>  (252) 
0.863571

>  <r_epik_Charging_Adjusted_Penalty>  (252) 
1.69337

>  <i_epik_Tot_Q>  (252) 
1

>  <i_epik_Tot_abs_Q>  (252) 
1

>  <s_lp_Force_Field>  (252) 
OPLS3e

>  <r_lp_Energy>  (252) 
6.72674

>  <b_lp_Chiralities_Consistent>  (252) 
1

>  <s_lp_Variant>  (252) 
58:0-2

>  <s_i_glide_gridfile>  (252) 
pfpi4k_grid

>  <i_i_glide_lignum>  (252) 
50

>  <i_i_glide_rotatable_bonds>  (252) 
2

>  <r_i_docking_score>  (252) 
-3.64925

>  <r_i_glide_ligand_efficiency>  (252) 
-0.228078

>  <r_i_glide_ligand_efficiency_sa>  (252) 
-0.574721

>  <r_i_glide_ligand_efficiency_ln>  (252) 
-0.967307

>  <r_i_glide_gscore>  (252) 
-3.64925

>  <r_i_glide_lipo>  (252) 
-0.3175

>  <r_i_glide_hbond>  (252) 
0

>  <r_i_glide_metal>  (252) 
-0

>  <r_i_glide_rewards>  (252) 
-1.90066

>  <r_i_glide_evdw>  (252) 
-18.8783

>  <r_i_glide_ecoul>  (252) 
-6.01834

>  <r_i_glide_erotb>  (252) 
0.689472

>  <r_i_glide_esite>  (252) 
-0.273893

>  <r_i_glide_emodel>  (252) 
-32.5252

>  <r_i_glide_energy>  (252) 
-24.8967

>  <r_i_glide_einternal>  (252) 
2.82756

>  <r_i_glide_intrahb_reward>  (252) 
-0

>  <i_i_glide_confnum>  (252) 
6

>  <i_i_glide_posenum>  (252) 
37

>  <r_i_glide_eff_state_penalty>  (252) 
0

>  <ligand_id>  (252) 
58

>  <original_smiles>  (252) 
Cc1noc(CN2CCc3oncc3C2)n1

>  <smiles>  (252) 
[H]c1noc2c1C([H])([H])[N+]([H])(C([H])([H])c1nc(C([H])([H])[H])no1)C([H])([H])C2([H])[H]

$$$$
59:0:0
     RDKit          3D

 51 56  0  0  1  0  0  0  0  0999 V2000
    7.8951   -3.3485    0.7154 C   0  0  0  0  0  0  0  0  0  0  0  0
    6.5942   -2.8412    1.2922 C   0  0  0  0  0  0  0  0  0  0  0  0
    6.2640   -1.5719    1.6799 C   0  0  0  0  0  0  0  0  0  0  0  0
    4.8669   -1.6658    2.2614 C   0  0  0  0  0  0  0  0  0  0  0  0
    5.2232   -2.9201    2.5874 O   0  0  0  0  0  0  0  0  0  0  0  0
    5.3841   -3.7477    1.5471 C   0  0  2  0  0  0  0  0  0  0  0  0
    4.8598   -4.6587    2.7912 C   0  0  1  0  0  0  0  0  0  0  0  0
    5.8571   -5.1138    3.8832 C   0  0  0  0  0  0  0  0  0  0  0  0
    3.4147   -4.1054    3.3760 C   0  0  2  0  0  0  0  0  0  0  0  0
    2.5277   -3.7277    2.1402 C   0  0  0  0  0  0  0  0  0  0  0  0
    2.4569   -2.4170    1.8658 C   0  0  0  0  0  0  0  0  0  0  0  0
    1.4550   -1.4205    2.4001 C   0  0  0  0  0  0  0  0  0  0  0  0
    3.7495   -1.9788    1.2164 C   0  0  1  0  0  0  0  0  0  0  0  0
    3.5780   -0.8918    0.3259 O   0  0  0  0  0  0  0  0  0  0  0  0
    4.1925   -3.3430    0.6432 C   0  0  1  0  0  0  0  0  0  0  0  0
    4.4531   -3.4163   -0.8703 C   0  0  0  0  0  0  0  0  0  0  0  0
    3.1844   -3.2181   -1.7311 C   0  0  0  0  0  0  0  0  0  0  0  0
    3.4401   -3.0496   -3.2449 C   0  0  0  0  0  0  0  0  0  0  0  0
    2.2334   -3.5394   -4.0405 C   0  0  0  0  0  0  0  0  0  0  0  0
    3.7702   -1.5971   -3.6175 C   0  0  0  0  0  0  0  0  0  0  0  0
    4.5196   -3.8608   -3.6563 O   0  0  0  0  0  0  0  0  0  0  0  0
    3.1702   -4.2571    1.0522 O   0  0  0  0  0  0  0  0  0  0  0  0
    3.5476   -2.7868    4.2831 C   0  0  1  0  0  0  0  0  0  0  0  0
    4.8210   -2.3896    4.8219 O   0  0  0  0  0  0  0  0  0  0  0  0
    4.3529   -1.5415    3.7424 C   0  0  1  0  0  0  0  0  0  0  0  0
    7.7104   -3.8302   -0.2458 H   0  0  0  0  0  0  0  0  0  0  0  0
    8.3388   -4.0863    1.3867 H   0  0  0  0  0  0  0  0  0  0  0  0
    8.6146   -2.5394    0.5665 H   0  0  0  0  0  0  0  0  0  0  0  0
    6.8570   -0.6744    1.6504 H   0  0  0  0  0  0  0  0  0  0  0  0
    4.6236   -5.6205    2.3271 H   0  0  0  0  0  0  0  0  0  0  0  0
    6.2128   -4.2988    4.5052 H   0  0  0  0  0  0  0  0  0  0  0  0
    6.7146   -5.6282    3.4526 H   0  0  0  0  0  0  0  0  0  0  0  0
    5.3747   -5.8160    4.5656 H   0  0  0  0  0  0  0  0  0  0  0  0
    2.9137   -4.8831    3.9593 H   0  0  0  0  0  0  0  0  0  0  0  0
    1.9227   -0.4683    2.6656 H   0  0  0  0  0  0  0  0  0  0  0  0
    0.9232   -1.8187    3.2645 H   0  0  0  0  0  0  0  0  0  0  0  0
    0.7141   -1.2194    1.6247 H   0  0  0  0  0  0  0  0  0  0  0  0
    2.7647   -1.0177   -0.1452 H   0  0  0  0  0  0  0  0  0  0  0  0
    5.2211   -2.6915   -1.1415 H   0  0  0  0  0  0  0  0  0  0  0  0
    4.8794   -4.3977   -1.0860 H   0  0  0  0  0  0  0  0  0  0  0  0
    2.5134   -4.0527   -1.5269 H   0  0  0  0  0  0  0  0  0  0  0  0
    2.6089   -2.3513   -1.4175 H   0  0  0  0  0  0  0  0  0  0  0  0
    1.3193   -3.0147   -3.7593 H   0  0  0  0  0  0  0  0  0  0  0  0
    2.1003   -4.6100   -3.9149 H   0  0  0  0  0  0  0  0  0  0  0  0
    2.3898   -3.4523   -5.1041 H   0  0  0  0  0  0  0  0  0  0  0  0
    2.9417   -0.9323   -3.3658 H   0  0  0  0  0  0  0  0  0  0  0  0
    3.9479   -1.5011   -4.6887 H   0  0  0  0  0  0  0  0  0  0  0  0
    4.6544   -1.2414   -3.0923 H   0  0  0  0  0  0  0  0  0  0  0  0
    4.3400   -4.7319   -3.3302 H   0  0  0  0  0  0  0  0  0  0  0  0
    2.6859   -2.5625    4.9105 H   0  0  0  0  0  0  0  0  0  0  0  0
    4.0089   -0.5521    4.0507 H   0  0  0  0  0  0  0  0  0  0  0  0
  1  2  1  0
  1 26  1  0
  1 27  1  0
  1 28  1  0
  6  2  1  6
  2  3  2  0
  3  4  1  0
  3 29  1  0
  4 13  1  0
  4 25  1  0
  4  5  1  0
  5  6  1  0
  6 15  1  0
  6  7  1  0
  7  8  1  0
  7  9  1  0
  7 30  1  6
  8 31  1  0
  8 32  1  0
  8 33  1  0
  9 10  1  0
  9 23  1  0
  9 34  1  1
 10 22  1  0
 10 11  2  0
 11 12  1  0
 11 13  1  0
 12 35  1  0
 12 36  1  0
 12 37  1  0
 13 14  1  6
 13 15  1  0
 14 38  1  0
 15 16  1  6
 15 22  1  0
 16 17  1  0
 16 39  1  0
 16 40  1  0
 17 18  1  0
 17 41  1  0
 17 42  1  0
 18 19  1  0
 18 20  1  0
 18 21  1  0
 19 43  1  0
 19 44  1  0
 19 45  1  0
 20 46  1  0
 20 47  1  0
 20 48  1  0
 21 49  1  0
 23 25  1  0
 23 24  1  0
 23 50  1  1
 24 25  1  0
 25 51  1  1
M  END
>  <i_m_ct_stereo_status>  (253) 
1

>  <s_m_source_file>  (253) 
/var/tmp/pbs.5076255.sched01/tmp8hdfbsd6/1003312lgh9.sdf

>  <i_m_source_file_index>  (253) 
1

>  <i_lp_mmshare_version>  (253) 
48012

>  <i_f3d_flags>  (253) 
0

>  <s_epik_input>  (253) 
W0NIM11DKFtDSDNdKShbT0hdKVtDSDJdW0NIMl1bQ0BdMShbQ0BAXTIoW0NAXTM0NSlbT0hdKVtDQF0oTzQpKEMoW0NIM10pPVtDSF0zKVtDQEBIXShbQ0gzXSlbQ0BASF0oW0NAQEhdNltDQEhdNU82KUMoTzEpPUMyW0NIM10=

>  <s_epik_cmdline>  (253) 
J2VwaWtfcHl0aG9uJywgJy1waHQnLCAnMi4wJywgJy1waCcsICc3LjAnLCAnLXRuJywgJzgnLCAnLW1hJywgJzIwMCcsICctaW1hZScsICc8aW5maWxlLm1hZT4nLCAnLW9tYWUnLCAnPG91dGZpbGUubWFlPic=

>  <r_lp_tautomer_probability>  (253) 
1

>  <r_epik_Ionization_Penalty>  (253) 
5.24922e-05

>  <r_epik_Ionization_Penalty_Charging>  (253) 
0

>  <r_epik_Ionization_Penalty_Neutral>  (253) 
5.24922e-05

>  <r_epik_State_Penalty>  (253) 
-0

>  <r_epik_Charging_Adjusted_Penalty>  (253) 
0

>  <i_epik_Tot_Q>  (253) 
0

>  <i_epik_Tot_abs_Q>  (253) 
0

>  <s_lp_Force_Field>  (253) 
OPLS3e

>  <r_lp_Energy>  (253) 
186.031

>  <b_lp_Chiralities_Consistent>  (253) 
1

>  <s_lp_Variant>  (253) 
59:0-1

>  <s_i_glide_gridfile>  (253) 
pfpi4k_grid

>  <i_i_glide_lignum>  (253) 
1

>  <i_i_glide_rotatable_bonds>  (253) 
5

>  <r_i_docking_score>  (253) 
-3.85327

>  <r_i_glide_ligand_efficiency>  (253) 
-0.154131

>  <r_i_glide_ligand_efficiency_sa>  (253) 
-0.450681

>  <r_i_glide_ligand_efficiency_ln>  (253) 
-0.91334

>  <r_i_glide_gscore>  (253) 
-3.85327

>  <r_i_glide_lipo>  (253) 
-0.996327

>  <r_i_glide_hbond>  (253) 
-0.293556

>  <r_i_glide_metal>  (253) 
-0

>  <r_i_glide_rewards>  (253) 
-1.04715

>  <r_i_glide_evdw>  (253) 
-17.8734

>  <r_i_glide_ecoul>  (253) 
-7.31893

>  <r_i_glide_erotb>  (253) 
0.475277

>  <r_i_glide_esite>  (253) 
0

>  <r_i_glide_emodel>  (253) 
-29.1305

>  <r_i_glide_energy>  (253) 
-25.1923

>  <r_i_glide_einternal>  (253) 
4.78267

>  <r_i_glide_intrahb_reward>  (253) 
-0

>  <i_i_glide_confnum>  (253) 
3

>  <i_i_glide_posenum>  (253) 
36

>  <r_i_glide_eff_state_penalty>  (253) 
0

>  <ligand_id>  (253) 
59

>  <original_smiles>  (253) 
CC1=CC23OC14C(C)C(C1=C(C)C2(O)C4(CCC(C)(C)O)O1)C1OC13

>  <smiles>  (253) 
[H]OC12C(C([H])([H])[H])=C3OC1(C([H])([H])C([H])([H])C(O[H])(C([H])([H])[H])C([H])([H])[H])C14OC2(C([H])=C1C([H])([H])[H])C1([H])OC1([H])C3([H])C4([H])C([H])([H])[H]

$$$$
59:0:1
     RDKit          3D

 51 56  0  0  1  0  0  0  0  0999 V2000
    2.6988   -0.5236    1.6690 C   0  0  0  0  0  0  0  0  0  0  0  0
    3.8851   -1.4344    1.4417 C   0  0  0  0  0  0  0  0  0  0  0  0
    5.0749   -1.4716    2.1012 C   0  0  0  0  0  0  0  0  0  0  0  0
    5.8693   -2.6064    1.4798 C   0  0  2  0  0  0  0  0  0  0  0  0
    5.1618   -2.3127    0.3779 O   0  0  0  0  0  0  0  0  0  0  0  0
    3.8561   -2.5888    0.4343 C   0  0  2  0  0  0  0  0  0  0  0  0
    4.2855   -2.7439   -1.1238 C   0  0  1  0  0  0  0  0  0  0  0  0
    4.3948   -1.4678   -1.9958 C   0  0  0  0  0  0  0  0  0  0  0  0
    5.5214   -3.8374   -1.3050 C   0  0  2  0  0  0  0  0  0  0  0  0
    5.2054   -5.0503   -0.3559 C   0  0  0  0  0  0  0  0  0  0  0  0
    5.8933   -5.0779    0.7929 C   0  0  0  0  0  0  0  0  0  0  0  0
    7.2450   -5.7214    1.0354 C   0  0  0  0  0  0  0  0  0  0  0  0
    5.3083   -4.0495    1.7397 C   0  0  1  0  0  0  0  0  0  0  0  0
    5.4126   -4.4345    3.0982 O   0  0  0  0  0  0  0  0  0  0  0  0
    3.8887   -3.9719    1.1371 C   0  0  1  0  0  0  0  0  0  0  0  0
    2.7116   -4.3118    2.0612 C   0  0  0  0  0  0  0  0  0  0  0  0
    2.5908   -5.8200    2.4113 C   0  0  0  0  0  0  0  0  0  0  0  0
    1.2084   -6.2660    2.9402 C   0  0  0  0  0  0  0  0  0  0  0  0
    1.2582   -7.7186    3.4457 C   0  0  0  0  0  0  0  0  0  0  0  0
    0.6813   -5.3325    4.0437 C   0  0  0  0  0  0  0  0  0  0  0  0
    0.2821   -6.2630    1.8668 O   0  0  0  0  0  0  0  0  0  0  0  0
    3.9058   -4.8714    0.0279 O   0  0  0  0  0  0  0  0  0  0  0  0
    6.9526   -3.2599   -0.8772 C   0  0  1  0  0  0  0  0  0  0  0  0
    7.1475   -1.8559   -0.7193 O   0  0  0  0  0  0  0  0  0  0  0  0
    7.1256   -2.5684    0.5372 C   0  0  1  0  0  0  0  0  0  0  0  0
    1.8076   -1.1111    1.8893 H   0  0  0  0  0  0  0  0  0  0  0  0
    2.4952    0.0519    0.7688 H   0  0  0  0  0  0  0  0  0  0  0  0
    2.8680    0.1700    2.4944 H   0  0  0  0  0  0  0  0  0  0  0  0
    5.4164   -0.8593    2.9225 H   0  0  0  0  0  0  0  0  0  0  0  0
    3.4200   -3.2289   -1.5863 H   0  0  0  0  0  0  0  0  0  0  0  0
    5.1871   -0.7853   -1.6935 H   0  0  0  0  0  0  0  0  0  0  0  0
    3.4616   -0.9076   -1.9800 H   0  0  0  0  0  0  0  0  0  0  0  0
    4.5813   -1.7436   -3.0340 H   0  0  0  0  0  0  0  0  0  0  0  0
    5.5773   -4.1783   -2.3407 H   0  0  0  0  0  0  0  0  0  0  0  0
    7.8889   -5.0985    1.6583 H   0  0  0  0  0  0  0  0  0  0  0  0
    7.7627   -5.9408    0.1000 H   0  0  0  0  0  0  0  0  0  0  0  0
    7.0988   -6.6715    1.5524 H   0  0  0  0  0  0  0  0  0  0  0  0
    5.0198   -5.2885    3.1929 H   0  0  0  0  0  0  0  0  0  0  0  0
    2.7894   -3.7155    2.9718 H   0  0  0  0  0  0  0  0  0  0  0  0
    1.8104   -3.9744    1.5572 H   0  0  0  0  0  0  0  0  0  0  0  0
    2.8400   -6.4363    1.5455 H   0  0  0  0  0  0  0  0  0  0  0  0
    3.3453   -6.0678    3.1581 H   0  0  0  0  0  0  0  0  0  0  0  0
    1.9921   -7.8461    4.2427 H   0  0  0  0  0  0  0  0  0  0  0  0
    1.5252   -8.4146    2.6484 H   0  0  0  0  0  0  0  0  0  0  0  0
    0.2925   -8.0346    3.8444 H   0  0  0  0  0  0  0  0  0  0  0  0
    1.3584   -5.3162    4.8987 H   0  0  0  0  0  0  0  0  0  0  0  0
   -0.2973   -5.6528    4.4005 H   0  0  0  0  0  0  0  0  0  0  0  0
    0.5745   -4.3065    3.6915 H   0  0  0  0  0  0  0  0  0  0  0  0
    0.4711   -7.0249    1.3338 H   0  0  0  0  0  0  0  0  0  0  0  0
    7.8173   -3.8091   -1.2408 H   0  0  0  0  0  0  0  0  0  0  0  0
    8.0942   -2.6882    1.0138 H   0  0  0  0  0  0  0  0  0  0  0  0
  1  2  1  0
  1 26  1  0
  1 27  1  0
  1 28  1  0
  6  2  1  6
  2  3  2  0
  4  3  1  6
  3 29  1  0
  4 13  1  0
  4 25  1  0
  4  5  1  0
  5  6  1  0
  6 15  1  0
  6  7  1  0
  7  8  1  0
  7  9  1  0
  7 30  1  6
  8 31  1  0
  8 32  1  0
  8 33  1  0
  9 10  1  0
  9 23  1  0
  9 34  1  6
 10 22  1  0
 10 11  2  0
 11 12  1  0
 11 13  1  0
 12 35  1  0
 12 36  1  0
 12 37  1  0
 13 14  1  1
 13 15  1  0
 14 38  1  0
 15 16  1  1
 15 22  1  0
 16 17  1  0
 16 39  1  0
 16 40  1  0
 17 18  1  0
 17 41  1  0
 17 42  1  0
 18 19  1  0
 18 20  1  0
 18 21  1  0
 19 43  1  0
 19 44  1  0
 19 45  1  0
 20 46  1  0
 20 47  1  0
 20 48  1  0
 21 49  1  0
 23 25  1  0
 23 24  1  0
 23 50  1  6
 24 25  1  0
 25 51  1  1
M  END
>  <i_m_ct_stereo_status>  (254) 
1

>  <s_m_source_file>  (254) 
/var/tmp/pbs.5076255.sched01/tmp8hdfbsd6/1003312lgh9.sdf

>  <i_m_source_file_index>  (254) 
1

>  <i_lp_mmshare_version>  (254) 
48012

>  <i_f3d_flags>  (254) 
0

>  <s_epik_input>  (254) 
W0NIM11DKFtDSDNdKShbT0hdKVtDSDJdW0NIMl1bQ0BdMShbQ0BAXTIoW0NAXTM0NSlbT0hdKVtDQF0oTzQpKEMoW0NIM10pPVtDSF0zKVtDQEBIXShbQ0gzXSlbQ0BASF0oW0NAQEhdNltDQEhdNU82KUMoTzEpPUMyW0NIM10=

>  <s_epik_cmdline>  (254) 
J2VwaWtfcHl0aG9uJywgJy1waHQnLCAnMi4wJywgJy1waCcsICc3LjAnLCAnLXRuJywgJzgnLCAnLW1hJywgJzIwMCcsICctaW1hZScsICc8aW5maWxlLm1hZT4nLCAnLW9tYWUnLCAnPG91dGZpbGUubWFlPic=

>  <r_lp_tautomer_probability>  (254) 
1

>  <r_epik_Ionization_Penalty>  (254) 
5.24922e-05

>  <r_epik_Ionization_Penalty_Charging>  (254) 
0

>  <r_epik_Ionization_Penalty_Neutral>  (254) 
5.24922e-05

>  <r_epik_State_Penalty>  (254) 
-0

>  <r_epik_Charging_Adjusted_Penalty>  (254) 
0

>  <i_epik_Tot_Q>  (254) 
0

>  <i_epik_Tot_abs_Q>  (254) 
0

>  <s_lp_Force_Field>  (254) 
OPLS3e

>  <r_lp_Energy>  (254) 
186.031

>  <b_lp_Chiralities_Consistent>  (254) 
1

>  <s_lp_Variant>  (254) 
59:0-1

>  <s_i_glide_gridfile>  (254) 
pfpi4k_grid

>  <i_i_glide_lignum>  (254) 
1

>  <i_i_glide_rotatable_bonds>  (254) 
5

>  <r_i_docking_score>  (254) 
-3.56696

>  <r_i_glide_ligand_efficiency>  (254) 
-0.142679

>  <r_i_glide_ligand_efficiency_sa>  (254) 
-0.417195

>  <r_i_glide_ligand_efficiency_ln>  (254) 
-0.845477

>  <r_i_glide_gscore>  (254) 
-3.56696

>  <r_i_glide_lipo>  (254) 
-0.682007

>  <r_i_glide_hbond>  (254) 
-0.411067

>  <r_i_glide_metal>  (254) 
-0

>  <r_i_glide_rewards>  (254) 
-1.04715

>  <r_i_glide_evdw>  (254) 
-19.2481

>  <r_i_glide_ecoul>  (254) 
-6.26406

>  <r_i_glide_erotb>  (254) 
0.475277

>  <r_i_glide_esite>  (254) 
0

>  <r_i_glide_emodel>  (254) 
-30.1845

>  <r_i_glide_energy>  (254) 
-25.5122

>  <r_i_glide_einternal>  (254) 
2.94238

>  <r_i_glide_intrahb_reward>  (254) 
-0

>  <i_i_glide_confnum>  (254) 
3

>  <i_i_glide_posenum>  (254) 
16

>  <r_i_glide_eff_state_penalty>  (254) 
0

>  <ligand_id>  (254) 
59

>  <original_smiles>  (254) 
CC1=CC23OC14C(C)C(C1=C(C)C2(O)C4(CCC(C)(C)O)O1)C1OC13

>  <smiles>  (254) 
[H]OC12C(C([H])([H])[H])=C3OC1(C([H])([H])C([H])([H])C(O[H])(C([H])([H])[H])C([H])([H])[H])C14OC2(C([H])=C1C([H])([H])[H])C1([H])OC1([H])C3([H])C4([H])C([H])([H])[H]

$$$$
59:0:2
     RDKit          3D

 51 56  0  0  1  0  0  0  0  0999 V2000
    7.2340   -2.3929    0.0964 C   0  0  0  0  0  0  0  0  0  0  0  0
    6.0498   -2.2723    1.0532 C   0  0  0  0  0  0  0  0  0  0  0  0
    5.7562   -1.2272    1.8637 C   0  0  0  0  0  0  0  0  0  0  0  0
    4.4977   -1.6040    2.6418 C   0  0  2  0  0  0  0  0  0  0  0  0
    4.9459   -2.8575    2.4841 O   0  0  0  0  0  0  0  0  0  0  0  0
    4.9431   -3.3319    1.2358 C   0  0  2  0  0  0  0  0  0  0  0  0
    4.7366   -4.6269    2.2042 C   0  0  1  0  0  0  0  0  0  0  0  0
    5.9843   -5.2810    2.8366 C   0  0  0  0  0  0  0  0  0  0  0  0
    3.4581   -4.4328    3.2462 C   0  0  2  0  0  0  0  0  0  0  0  0
    2.2869   -3.8010    2.4099 C   0  0  0  0  0  0  0  0  0  0  0  0
    2.1059   -2.4822    2.5694 C   0  0  0  0  0  0  0  0  0  0  0  0
    1.2327   -1.7990    3.6082 C   0  0  0  0  0  0  0  0  0  0  0  0
    3.1744   -1.7328    1.7933 C   0  0  1  0  0  0  0  0  0  0  0  0
    2.6966   -0.4983    1.2709 O   0  0  0  0  0  0  0  0  0  0  0  0
    3.5565   -2.8265    0.7702 C   0  0  1  0  0  0  0  0  0  0  0  0
    3.4203   -2.4432   -0.7091 C   0  0  0  0  0  0  0  0  0  0  0  0
    4.0974   -3.4199   -1.6855 C   0  0  0  0  0  0  0  0  0  0  0  0
    3.8772   -3.1108   -3.1787 C   0  0  0  0  0  0  0  0  0  0  0  0
    4.7655   -4.0225   -4.0402 C   0  0  0  0  0  0  0  0  0  0  0  0
    2.4073   -3.2343   -3.5840 C   0  0  0  0  0  0  0  0  0  0  0  0
    4.2838   -1.7875   -3.4745 O   0  0  0  0  0  0  0  0  0  0  0  0
    2.6716   -3.9080    1.0978 O   0  0  0  0  0  0  0  0  0  0  0  0
    3.7527   -3.4355    4.4626 C   0  0  1  0  0  0  0  0  0  0  0  0
    5.1134   -3.0724    4.7907 O   0  0  0  0  0  0  0  0  0  0  0  0
    4.3471   -1.9920    4.1631 C   0  0  1  0  0  0  0  0  0  0  0  0
    6.9521   -2.4918   -0.9539 H   0  0  0  0  0  0  0  0  0  0  0  0
    7.8177   -3.2680    0.3689 H   0  0  0  0  0  0  0  0  0  0  0  0
    7.8692   -1.5084    0.1724 H   0  0  0  0  0  0  0  0  0  0  0  0
    6.2649   -0.2814    1.9824 H   0  0  0  0  0  0  0  0  0  0  0  0
    4.4157   -5.4237    1.5285 H   0  0  0  0  0  0  0  0  0  0  0  0
    6.4794   -4.6608    3.5683 H   0  0  0  0  0  0  0  0  0  0  0  0
    6.7111   -5.5433    2.0730 H   0  0  0  0  0  0  0  0  0  0  0  0
    5.7018   -6.1914    3.3615 H   0  0  0  0  0  0  0  0  0  0  0  0
    3.1234   -5.4000    3.6533 H   0  0  0  0  0  0  0  0  0  0  0  0
    1.7054   -0.9222    4.0607 H   0  0  0  0  0  0  0  0  0  0  0  0
    0.9340   -2.4898    4.3996 H   0  0  0  0  0  0  0  0  0  0  0  0
    0.3287   -1.4738    3.0944 H   0  0  0  0  0  0  0  0  0  0  0  0
    2.0118   -0.6660    0.6239 H   0  0  0  0  0  0  0  0  0  0  0  0
    2.3467   -2.4007   -0.8766 H   0  0  0  0  0  0  0  0  0  0  0  0
    3.8051   -1.4410   -0.8844 H   0  0  0  0  0  0  0  0  0  0  0  0
    5.1757   -3.4161   -1.5292 H   0  0  0  0  0  0  0  0  0  0  0  0
    3.7655   -4.4324   -1.4590 H   0  0  0  0  0  0  0  0  0  0  0  0
    4.6113   -5.0759   -3.8233 H   0  0  0  0  0  0  0  0  0  0  0  0
    5.8189   -3.8271   -3.8476 H   0  0  0  0  0  0  0  0  0  0  0  0
    4.5869   -3.8881   -5.1044 H   0  0  0  0  0  0  0  0  0  0  0  0
    2.0640   -4.2313   -3.3439 H   0  0  0  0  0  0  0  0  0  0  0  0
    2.2536   -3.0778   -4.6506 H   0  0  0  0  0  0  0  0  0  0  0  0
    1.7685   -2.5449   -3.0410 H   0  0  0  0  0  0  0  0  0  0  0  0
    3.7309   -1.1852   -3.0028 H   0  0  0  0  0  0  0  0  0  0  0  0
    3.0665   -3.4892    5.3057 H   0  0  0  0  0  0  0  0  0  0  0  0
    4.0664   -1.1906    4.8442 H   0  0  0  0  0  0  0  0  0  0  0  0
  1  2  1  0
  1 26  1  0
  1 27  1  0
  1 28  1  0
  6  2  1  6
  2  3  2  0
  4  3  1  6
  3 29  1  0
  4 13  1  0
  4 25  1  0
  4  5  1  0
  5  6  1  0
  6 15  1  0
  6  7  1  0
  7  8  1  0
  7  9  1  0
  7 30  1  6
  8 31  1  0
  8 32  1  0
  8 33  1  0
  9 10  1  0
  9 23  1  0
  9 34  1  1
 10 22  1  0
 10 11  2  0
 11 12  1  0
 11 13  1  0
 12 35  1  0
 12 36  1  0
 12 37  1  0
 13 14  1  6
 13 15  1  0
 14 38  1  0
 15 16  1  6
 15 22  1  0
 16 17  1  0
 16 39  1  0
 16 40  1  0
 17 18  1  0
 17 41  1  0
 17 42  1  0
 18 19  1  0
 18 20  1  0
 18 21  1  0
 19 43  1  0
 19 44  1  0
 19 45  1  0
 20 46  1  0
 20 47  1  0
 20 48  1  0
 21 49  1  0
 23 25  1  0
 23 24  1  0
 23 50  1  1
 24 25  1  0
 25 51  1  1
M  END
>  <i_m_ct_stereo_status>  (255) 
1

>  <s_m_source_file>  (255) 
/var/tmp/pbs.5076255.sched01/tmp8hdfbsd6/1003312lgh9.sdf

>  <i_m_source_file_index>  (255) 
1

>  <i_lp_mmshare_version>  (255) 
48012

>  <i_f3d_flags>  (255) 
0

>  <s_epik_input>  (255) 
W0NIM11DKFtDSDNdKShbT0hdKVtDSDJdW0NIMl1bQ0BdMShbQ0BAXTIoW0NAXTM0NSlbT0hdKVtDQF0oTzQpKEMoW0NIM10pPVtDSF0zKVtDQEBIXShbQ0gzXSlbQ0BASF0oW0NAQEhdNltDQEhdNU82KUMoTzEpPUMyW0NIM10=

>  <s_epik_cmdline>  (255) 
J2VwaWtfcHl0aG9uJywgJy1waHQnLCAnMi4wJywgJy1waCcsICc3LjAnLCAnLXRuJywgJzgnLCAnLW1hJywgJzIwMCcsICctaW1hZScsICc8aW5maWxlLm1hZT4nLCAnLW9tYWUnLCAnPG91dGZpbGUubWFlPic=

>  <r_lp_tautomer_probability>  (255) 
1

>  <r_epik_Ionization_Penalty>  (255) 
5.24922e-05

>  <r_epik_Ionization_Penalty_Charging>  (255) 
0

>  <r_epik_Ionization_Penalty_Neutral>  (255) 
5.24922e-05

>  <r_epik_State_Penalty>  (255) 
-0

>  <r_epik_Charging_Adjusted_Penalty>  (255) 
0

>  <i_epik_Tot_Q>  (255) 
0

>  <i_epik_Tot_abs_Q>  (255) 
0

>  <s_lp_Force_Field>  (255) 
OPLS3e

>  <r_lp_Energy>  (255) 
186.031

>  <b_lp_Chiralities_Consistent>  (255) 
1

>  <s_lp_Variant>  (255) 
59:0-1

>  <s_i_glide_gridfile>  (255) 
pfpi4k_grid

>  <i_i_glide_lignum>  (255) 
1

>  <i_i_glide_rotatable_bonds>  (255) 
5

>  <r_i_docking_score>  (255) 
-3.27073

>  <r_i_glide_ligand_efficiency>  (255) 
-0.130829

>  <r_i_glide_ligand_efficiency_sa>  (255) 
-0.382547

>  <r_i_glide_ligand_efficiency_ln>  (255) 
-0.775261

>  <r_i_glide_gscore>  (255) 
-3.27073

>  <r_i_glide_lipo>  (255) 
-0.744719

>  <r_i_glide_hbond>  (255) 
0

>  <r_i_glide_metal>  (255) 
-0

>  <r_i_glide_rewards>  (255) 
-1.04715

>  <r_i_glide_evdw>  (255) 
-19.598

>  <r_i_glide_ecoul>  (255) 
-6.4949

>  <r_i_glide_erotb>  (255) 
0.475277

>  <r_i_glide_esite>  (255) 
0

>  <r_i_glide_emodel>  (255) 
-30.2763

>  <r_i_glide_energy>  (255) 
-26.0929

>  <r_i_glide_einternal>  (255) 
2.19452

>  <r_i_glide_intrahb_reward>  (255) 
-0

>  <i_i_glide_confnum>  (255) 
3

>  <i_i_glide_posenum>  (255) 
23

>  <r_i_glide_eff_state_penalty>  (255) 
0

>  <ligand_id>  (255) 
59

>  <original_smiles>  (255) 
CC1=CC23OC14C(C)C(C1=C(C)C2(O)C4(CCC(C)(C)O)O1)C1OC13

>  <smiles>  (255) 
[H]OC12C(C([H])([H])[H])=C3OC1(C([H])([H])C([H])([H])C(O[H])(C([H])([H])[H])C([H])([H])[H])C14OC2(C([H])=C1C([H])([H])[H])C1([H])OC1([H])C3([H])C4([H])C([H])([H])[H]

$$$$
60:0:0
     RDKit          3D

 55 58  0  0  1  0  0  0  0  0999 V2000
    1.9391   -3.4655   -1.7714 C   0  0  0  0  0  0  0  0  0  0  0  0
    3.1949   -3.0033   -1.8867 C   0  0  0  0  0  0  0  0  0  0  0  0
    3.8203   -2.8141   -3.1804 C   0  0  0  0  0  0  0  0  0  0  0  0
    3.3541   -3.0632   -4.2871 O   0  0  0  0  0  0  0  0  0  0  0  0
    5.0232   -2.2982   -2.9677 O   0  0  0  0  0  0  0  0  0  0  0  0
    5.3775   -2.1301   -1.6016 C   0  0  2  0  0  0  0  0  0  0  0  0
    6.7295   -2.8330   -1.4069 C   0  0  0  0  0  0  0  0  0  0  0  0
    7.3621   -2.7380   -0.0037 C   0  0  1  0  0  0  0  0  0  0  0  0
    7.4159   -1.2866    0.4774 C   0  0  0  0  0  0  0  0  0  0  0  0
    6.8552   -3.7703    1.0445 C   0  0  2  0  0  0  0  0  0  0  0  0
    7.4491   -5.1949    0.7851 C   0  0  1  0  0  0  0  0  0  0  0  0
    8.8094   -5.2157    1.1791 O   0  0  0  0  0  0  0  0  0  0  0  0
    6.7046   -6.3605    1.4748 C   0  0  1  0  0  0  0  0  0  0  0  0
    7.5545   -7.4855    1.6434 O   0  0  0  0  0  0  0  0  0  0  0  0
    6.0456   -5.8816    2.7746 C   0  0  2  0  0  0  0  0  0  0  0  0
    5.2184   -6.9361    3.5245 C   0  0  0  0  0  0  0  0  0  0  0  0
    4.0514   -6.1648    4.1556 C   0  0  1  0  0  0  0  0  0  0  0  0
    4.3520   -5.8141    5.4904 O   0  0  0  0  0  0  0  0  0  0  0  0
    3.9560   -4.9292    3.2967 C   0  0  0  0  0  0  0  0  0  0  0  0
    2.7129   -4.0582    3.4118 C   0  0  0  0  0  0  0  0  0  0  0  0
    5.0262   -4.7980    2.4870 C   0  0  0  0  0  0  0  0  0  0  0  0
    5.3372   -3.7114    1.4357 C   0  0  1  0  0  0  0  0  0  0  0  0
    5.1512   -2.4788    2.0968 O   0  0  0  0  0  0  0  0  0  0  0  0
    4.3346   -3.8120    0.2222 C   0  0  2  0  0  0  0  0  0  0  0  0
    4.6141   -5.0042   -0.4951 O   0  0  0  0  0  0  0  0  0  0  0  0
    4.1440   -2.6129   -0.7799 C   0  0  2  0  0  0  0  0  0  0  0  0
    3.5033   -1.3897   -0.0884 C   0  0  0  0  0  0  0  0  0  0  0  0
    1.4627   -3.5853   -0.8123 H   0  0  0  0  0  0  0  0  0  0  0  0
    1.3798   -3.6951   -2.6596 H   0  0  0  0  0  0  0  0  0  0  0  0
    5.5095   -1.0561   -1.4576 H   0  0  0  0  0  0  0  0  0  0  0  0
    6.6262   -3.8575   -1.7245 H   0  0  0  0  0  0  0  0  0  0  0  0
    7.4269   -2.4021   -2.1208 H   0  0  0  0  0  0  0  0  0  0  0  0
    8.4058   -3.0033   -0.1633 H   0  0  0  0  0  0  0  0  0  0  0  0
    6.4454   -0.8176    0.5876 H   0  0  0  0  0  0  0  0  0  0  0  0
    8.0471   -0.7366   -0.1718 H   0  0  0  0  0  0  0  0  0  0  0  0
    7.9392   -1.1072    1.4141 H   0  0  0  0  0  0  0  0  0  0  0  0
    7.3471   -3.4778    1.9622 H   0  0  0  0  0  0  0  0  0  0  0  0
    7.4371   -5.3890   -0.2835 H   0  0  0  0  0  0  0  0  0  0  0  0
    9.1383   -6.1043    1.0447 H   0  0  0  0  0  0  0  0  0  0  0  0
    5.9013   -6.6993    0.8194 H   0  0  0  0  0  0  0  0  0  0  0  0
    8.3230   -7.2289    2.1512 H   0  0  0  0  0  0  0  0  0  0  0  0
    6.7949   -5.4553    3.4440 H   0  0  0  0  0  0  0  0  0  0  0  0
    4.8004   -7.6413    2.8050 H   0  0  0  0  0  0  0  0  0  0  0  0
    5.7988   -7.5255    4.2434 H   0  0  0  0  0  0  0  0  0  0  0  0
    3.1170   -6.7358    4.1204 H   0  0  0  0  0  0  0  0  0  0  0  0
    3.5679   -5.4718    5.8989 H   0  0  0  0  0  0  0  0  0  0  0  0
    2.6101   -3.6908    4.4357 H   0  0  0  0  0  0  0  0  0  0  0  0
    1.8392   -4.6608    3.1844 H   0  0  0  0  0  0  0  0  0  0  0  0
    2.7182   -3.1954    2.7430 H   0  0  0  0  0  0  0  0  0  0  0  0
    4.2224   -2.3396    2.2288 H   0  0  0  0  0  0  0  0  0  0  0  0
    3.3455   -3.9835    0.6535 H   0  0  0  0  0  0  0  0  0  0  0  0
    3.9440   -5.1421   -1.1580 H   0  0  0  0  0  0  0  0  0  0  0  0
    4.2135   -0.8037    0.4961 H   0  0  0  0  0  0  0  0  0  0  0  0
    2.6676   -1.6709    0.5566 H   0  0  0  0  0  0  0  0  0  0  0  0
    3.0981   -0.7008   -0.8371 H   0  0  0  0  0  0  0  0  0  0  0  0
  1  2  2  0
  1 28  1  0
  1 29  1  0
  2 26  1  0
  2  3  1  0
  3  4  2  0
  3  5  1  0
  5  6  1  0
  6 26  1  0
  6  7  1  0
  6 30  1  6
  7  8  1  0
  7 31  1  0
  7 32  1  0
  8  9  1  0
  8 10  1  0
  8 33  1  6
  9 34  1  0
  9 35  1  0
  9 36  1  0
 10 22  1  0
 10 11  1  0
 10 37  1  1
 11 12  1  0
 11 13  1  0
 11 38  1  6
 12 39  1  0
 13 14  1  0
 13 15  1  0
 13 40  1  6
 14 41  1  0
 15 21  1  0
 15 16  1  0
 15 42  1  1
 16 17  1  0
 16 43  1  0
 16 44  1  0
 17 18  1  0
 17 19  1  0
 17 45  1  1
 18 46  1  0
 19 20  1  0
 19 21  2  0
 20 47  1  0
 20 48  1  0
 20 49  1  0
 21 22  1  0
 22 23  1  1
 22 24  1  0
 23 50  1  0
 24 25  1  0
 24 26  1  0
 24 51  1  1
 25 52  1  0
 26 27  1  1
 27 53  1  0
 27 54  1  0
 27 55  1  0
M  END
>  <i_m_ct_stereo_status>  (256) 
1

>  <s_m_source_file>  (256) 
/var/tmp/pbs.5076255.sched01/tmp8hdfbsd6/1003312lgh9.sdf

>  <i_m_source_file_index>  (256) 
2

>  <i_lp_mmshare_version>  (256) 
48012

>  <i_f3d_flags>  (256) 
0

>  <s_epik_input>  (256) 
Tz1DKE8xKUMoPVtDSDJdKVtDQEBdKFtDSDNdKShbQ0hdMltPSF0pW0NASF0xW0NIMl1bQ0BASF0oW0NIM10pW0NAQEhdKFtDQEBdMjNbT0hdKVtDQEBIXShbT0hdKVtDQEBIXShbT0hdKVtDQEhdNEMzPUMoW0NIM10pW0NAQEhdKFtDSDJdNClbT0hd

>  <s_epik_cmdline>  (256) 
J2VwaWtfcHl0aG9uJywgJy1waHQnLCAnMi4wJywgJy1waCcsICc3LjAnLCAnLXRuJywgJzgnLCAnLW1hJywgJzIwMCcsICctaW1hZScsICc8aW5maWxlLm1hZT4nLCAnLW9tYWUnLCAnPG91dGZpbGUubWFlPic=

>  <r_lp_tautomer_probability>  (256) 
1

>  <r_epik_Ionization_Penalty>  (256) 
7.63852e-07

>  <r_epik_Ionization_Penalty_Charging>  (256) 
0

>  <r_epik_Ionization_Penalty_Neutral>  (256) 
7.63852e-07

>  <r_epik_State_Penalty>  (256) 
-0

>  <r_epik_Charging_Adjusted_Penalty>  (256) 
0

>  <i_epik_Tot_Q>  (256) 
0

>  <i_epik_Tot_abs_Q>  (256) 
0

>  <s_epik_Chemistry_Notes>  (256) 
This compound has an ester and may undergo hydrolysis at high or low pH.

>  <s_lp_Force_Field>  (256) 
OPLS3e

>  <r_lp_Energy>  (256) 
40.2224

>  <b_lp_Chiralities_Consistent>  (256) 
1

>  <s_lp_Variant>  (256) 
60:0-1

>  <s_i_glide_gridfile>  (256) 
pfpi4k_grid

>  <i_i_glide_lignum>  (256) 
2

>  <i_i_glide_rotatable_bonds>  (256) 
5

>  <r_i_docking_score>  (256) 
-4.11218

>  <r_i_glide_ligand_efficiency>  (256) 
-0.152303

>  <r_i_glide_ligand_efficiency_sa>  (256) 
-0.456908

>  <r_i_glide_ligand_efficiency_ln>  (256) 
-0.957247

>  <r_i_glide_gscore>  (256) 
-4.11218

>  <r_i_glide_lipo>  (256) 
-0.557058

>  <r_i_glide_hbond>  (256) 
-0.497199

>  <r_i_glide_metal>  (256) 
-0

>  <r_i_glide_rewards>  (256) 
-0.96277

>  <r_i_glide_evdw>  (256) 
-22.524

>  <r_i_glide_ecoul>  (256) 
-6.45964

>  <r_i_glide_erotb>  (256) 
0

>  <r_i_glide_esite>  (256) 
0

>  <r_i_glide_emodel>  (256) 
-35.7622

>  <r_i_glide_energy>  (256) 
-28.9837

>  <r_i_glide_einternal>  (256) 
1.80515

>  <r_i_glide_intrahb_reward>  (256) 
-0

>  <i_i_glide_confnum>  (256) 
2

>  <i_i_glide_posenum>  (256) 
4

>  <r_i_glide_eff_state_penalty>  (256) 
0

>  <ligand_id>  (256) 
60

>  <original_smiles>  (256) 
C=C1C(=O)OC2CC(C)C3C(O)C(O)C4CC(O)C(C)=C4C3(O)C(O)C12C

>  <smiles>  (256) 
[H]OC1([H])C(C([H])([H])[H])=C2C([H])(C1([H])[H])C([H])(O[H])C([H])(O[H])C1([H])C2(O[H])C([H])(O[H])C2(C([H])([H])[H])C(=C([H])[H])C(=O)OC2([H])C([H])([H])C1([H])C([H])([H])[H]

$$$$
60:0:1
     RDKit          3D

 55 58  0  0  1  0  0  0  0  0999 V2000
    3.3604   -1.1511   -2.6176 C   0  0  0  0  0  0  0  0  0  0  0  0
    4.0496   -2.2366   -2.2466 C   0  0  0  0  0  0  0  0  0  0  0  0
    4.2653   -3.3457   -3.1475 C   0  0  0  0  0  0  0  0  0  0  0  0
    3.8608   -3.4371   -4.3103 O   0  0  0  0  0  0  0  0  0  0  0  0
    5.0292   -4.2235   -2.5262 O   0  0  0  0  0  0  0  0  0  0  0  0
    5.4035   -3.8790   -1.1925 C   0  0  2  0  0  0  0  0  0  0  0  0
    5.0358   -5.0646   -0.2975 C   0  0  0  0  0  0  0  0  0  0  0  0
    5.4769   -4.9789    1.1731 C   0  0  1  0  0  0  0  0  0  0  0  0
    6.9668   -4.6304    1.3542 C   0  0  0  0  0  0  0  0  0  0  0  0
    4.4855   -4.2049    2.0954 C   0  0  2  0  0  0  0  0  0  0  0  0
    3.1928   -5.0583    2.3529 C   0  0  1  0  0  0  0  0  0  0  0  0
    3.5307   -6.0750    3.2869 O   0  0  0  0  0  0  0  0  0  0  0  0
    1.9872   -4.2632    2.8991 C   0  0  1  0  0  0  0  0  0  0  0  0
    1.1124   -5.0749    3.6640 O   0  0  0  0  0  0  0  0  0  0  0  0
    2.4305   -3.0269    3.6708 C   0  0  2  0  0  0  0  0  0  0  0  0
    1.2818   -2.1273    4.1713 C   0  0  0  0  0  0  0  0  0  0  0  0
    1.8218   -0.6965    4.0722 C   0  0  1  0  0  0  0  0  0  0  0  0
    2.3656   -0.2915    5.3078 O   0  0  0  0  0  0  0  0  0  0  0  0
    2.9125   -0.8236    3.0367 C   0  0  0  0  0  0  0  0  0  0  0  0
    3.4760    0.4491    2.4360 C   0  0  0  0  0  0  0  0  0  0  0  0
    3.2179   -2.1023    2.7677 C   0  0  0  0  0  0  0  0  0  0  0  0
    4.2287   -2.6908    1.7648 C   0  0  1  0  0  0  0  0  0  0  0  0
    5.4457   -2.0291    2.0305 O   0  0  0  0  0  0  0  0  0  0  0  0
    3.7680   -2.3744    0.2882 C   0  0  2  0  0  0  0  0  0  0  0  0
    2.5707   -3.0513   -0.0094 O   0  0  0  0  0  0  0  0  0  0  0  0
    4.7544   -2.5013   -0.9254 C   0  0  2  0  0  0  0  0  0  0  0  0
    5.8749   -1.4593   -0.8306 C   0  0  0  0  0  0  0  0  0  0  0  0
    3.2472   -0.3254   -1.9379 H   0  0  0  0  0  0  0  0  0  0  0  0
    2.8937   -1.0742   -3.5928 H   0  0  0  0  0  0  0  0  0  0  0  0
    6.4887   -3.7767   -1.2058 H   0  0  0  0  0  0  0  0  0  0  0  0
    3.9777   -5.2960   -0.3927 H   0  0  0  0  0  0  0  0  0  0  0  0
    5.5418   -5.9235   -0.7243 H   0  0  0  0  0  0  0  0  0  0  0  0
    5.4385   -6.0105    1.5191 H   0  0  0  0  0  0  0  0  0  0  0  0
    7.2128   -3.6334    1.0037 H   0  0  0  0  0  0  0  0  0  0  0  0
    7.6051   -5.3341    0.8240 H   0  0  0  0  0  0  0  0  0  0  0  0
    7.2382   -4.6829    2.4049 H   0  0  0  0  0  0  0  0  0  0  0  0
    4.9770   -4.1770    3.0730 H   0  0  0  0  0  0  0  0  0  0  0  0
    2.8632   -5.5521    1.4372 H   0  0  0  0  0  0  0  0  0  0  0  0
    4.1389   -6.6788    2.8821 H   0  0  0  0  0  0  0  0  0  0  0  0
    1.4052   -3.9204    2.0508 H   0  0  0  0  0  0  0  0  0  0  0  0
    1.6144   -5.4257    4.3909 H   0  0  0  0  0  0  0  0  0  0  0  0
    3.0800   -3.2989    4.5029 H   0  0  0  0  0  0  0  0  0  0  0  0
    0.4308   -2.2079    3.4908 H   0  0  0  0  0  0  0  0  0  0  0  0
    0.9158   -2.3897    5.1668 H   0  0  0  0  0  0  0  0  0  0  0  0
    1.0643    0.0196    3.7436 H   0  0  0  0  0  0  0  0  0  0  0  0
    2.6612    0.6045    5.2314 H   0  0  0  0  0  0  0  0  0  0  0  0
    3.9079    1.0633    3.2289 H   0  0  0  0  0  0  0  0  0  0  0  0
    2.6718    1.0203    1.9708 H   0  0  0  0  0  0  0  0  0  0  0  0
    4.2478    0.2735    1.6848 H   0  0  0  0  0  0  0  0  0  0  0  0
    5.3325   -1.1139    1.8272 H   0  0  0  0  0  0  0  0  0  0  0  0
    3.4496   -1.3332    0.2853 H   0  0  0  0  0  0  0  0  0  0  0  0
    2.0320   -2.4512   -0.5186 H   0  0  0  0  0  0  0  0  0  0  0  0
    6.6568   -1.7261   -0.1178 H   0  0  0  0  0  0  0  0  0  0  0  0
    5.4931   -0.4697   -0.5665 H   0  0  0  0  0  0  0  0  0  0  0  0
    6.3522   -1.3959   -1.8073 H   0  0  0  0  0  0  0  0  0  0  0  0
  1  2  2  0
  1 28  1  0
  1 29  1  0
  2 26  1  0
  2  3  1  0
  3  4  2  0
  3  5  1  0
  5  6  1  0
  6 26  1  0
  6  7  1  0
  6 30  1  6
  7  8  1  0
  7 31  1  0
  7 32  1  0
  8  9  1  0
  8 10  1  0
  8 33  1  1
  9 34  1  0
  9 35  1  0
  9 36  1  0
 10 22  1  0
 10 11  1  0
 10 37  1  1
 11 12  1  0
 11 13  1  0
 11 38  1  6
 12 39  1  0
 13 14  1  0
 13 15  1  0
 13 40  1  6
 14 41  1  0
 15 21  1  0
 15 16  1  0
 15 42  1  1
 16 17  1  0
 16 43  1  0
 16 44  1  0
 17 18  1  0
 17 19  1  0
 17 45  1  6
 18 46  1  0
 19 20  1  0
 19 21  2  0
 20 47  1  0
 20 48  1  0
 20 49  1  0
 21 22  1  0
 22 23  1  1
 22 24  1  0
 23 50  1  0
 24 25  1  0
 24 26  1  0
 24 51  1  1
 25 52  1  0
 26 27  1  1
 27 53  1  0
 27 54  1  0
 27 55  1  0
M  END
>  <i_m_ct_stereo_status>  (257) 
1

>  <s_m_source_file>  (257) 
/var/tmp/pbs.5076255.sched01/tmp8hdfbsd6/1003312lgh9.sdf

>  <i_m_source_file_index>  (257) 
2

>  <i_lp_mmshare_version>  (257) 
48012

>  <i_f3d_flags>  (257) 
0

>  <s_epik_input>  (257) 
Tz1DKE8xKUMoPVtDSDJdKVtDQEBdKFtDSDNdKShbQ0hdMltPSF0pW0NASF0xW0NIMl1bQ0BASF0oW0NIM10pW0NAQEhdKFtDQEBdMjNbT0hdKVtDQEBIXShbT0hdKVtDQEBIXShbT0hdKVtDQEhdNEMzPUMoW0NIM10pW0NAQEhdKFtDSDJdNClbT0hd

>  <s_epik_cmdline>  (257) 
J2VwaWtfcHl0aG9uJywgJy1waHQnLCAnMi4wJywgJy1waCcsICc3LjAnLCAnLXRuJywgJzgnLCAnLW1hJywgJzIwMCcsICctaW1hZScsICc8aW5maWxlLm1hZT4nLCAnLW9tYWUnLCAnPG91dGZpbGUubWFlPic=

>  <r_lp_tautomer_probability>  (257) 
1

>  <r_epik_Ionization_Penalty>  (257) 
7.63852e-07

>  <r_epik_Ionization_Penalty_Charging>  (257) 
0

>  <r_epik_Ionization_Penalty_Neutral>  (257) 
7.63852e-07

>  <r_epik_State_Penalty>  (257) 
-0

>  <r_epik_Charging_Adjusted_Penalty>  (257) 
0

>  <i_epik_Tot_Q>  (257) 
0

>  <i_epik_Tot_abs_Q>  (257) 
0

>  <s_epik_Chemistry_Notes>  (257) 
This compound has an ester and may undergo hydrolysis at high or low pH.

>  <s_lp_Force_Field>  (257) 
OPLS3e

>  <r_lp_Energy>  (257) 
40.2224

>  <b_lp_Chiralities_Consistent>  (257) 
1

>  <s_lp_Variant>  (257) 
60:0-1

>  <s_i_glide_gridfile>  (257) 
pfpi4k_grid

>  <i_i_glide_lignum>  (257) 
2

>  <i_i_glide_rotatable_bonds>  (257) 
5

>  <r_i_docking_score>  (257) 
-3.43764

>  <r_i_glide_ligand_efficiency>  (257) 
-0.12732

>  <r_i_glide_ligand_efficiency_sa>  (257) 
-0.38196

>  <r_i_glide_ligand_efficiency_ln>  (257) 
-0.800227

>  <r_i_glide_gscore>  (257) 
-3.43764

>  <r_i_glide_lipo>  (257) 
-0.277332

>  <r_i_glide_hbond>  (257) 
-0.310119

>  <r_i_glide_metal>  (257) 
-0

>  <r_i_glide_rewards>  (257) 
-0.930506

>  <r_i_glide_evdw>  (257) 
-25.5817

>  <r_i_glide_ecoul>  (257) 
-4.27066

>  <r_i_glide_erotb>  (257) 
0

>  <r_i_glide_esite>  (257) 
0

>  <r_i_glide_emodel>  (257) 
-35.3199

>  <r_i_glide_energy>  (257) 
-29.8524

>  <r_i_glide_einternal>  (257) 
1.49822

>  <r_i_glide_intrahb_reward>  (257) 
-0

>  <i_i_glide_confnum>  (257) 
1

>  <i_i_glide_posenum>  (257) 
32

>  <r_i_glide_eff_state_penalty>  (257) 
0

>  <ligand_id>  (257) 
60

>  <original_smiles>  (257) 
C=C1C(=O)OC2CC(C)C3C(O)C(O)C4CC(O)C(C)=C4C3(O)C(O)C12C

>  <smiles>  (257) 
[H]OC1([H])C(C([H])([H])[H])=C2C([H])(C1([H])[H])C([H])(O[H])C([H])(O[H])C1([H])C2(O[H])C([H])(O[H])C2(C([H])([H])[H])C(=C([H])[H])C(=O)OC2([H])C([H])([H])C1([H])C([H])([H])[H]

$$$$
60:0:2
     RDKit          3D

 55 58  0  0  1  0  0  0  0  0999 V2000
    2.1090   -7.2117    1.4607 C   0  0  0  0  0  0  0  0  0  0  0  0
    1.8074   -6.5437    2.5881 C   0  0  0  0  0  0  0  0  0  0  0  0
    0.5008   -6.6276    3.2150 C   0  0  0  0  0  0  0  0  0  0  0  0
   -0.4898   -7.2258    2.7881 O   0  0  0  0  0  0  0  0  0  0  0  0
    0.5299   -5.9045    4.3247 O   0  0  0  0  0  0  0  0  0  0  0  0
    1.7534   -5.2174    4.5670 C   0  0  2  0  0  0  0  0  0  0  0  0
    1.3949   -3.7380    4.7746 C   0  0  0  0  0  0  0  0  0  0  0  0
    2.5571   -2.8016    5.1606 C   0  0  1  0  0  0  0  0  0  0  0  0
    3.3842   -3.3161    6.3574 C   0  0  0  0  0  0  0  0  0  0  0  0
    3.3918   -2.2572    3.9599 C   0  0  2  0  0  0  0  0  0  0  0  0
    2.5678   -1.1871    3.1613 C   0  0  1  0  0  0  0  0  0  0  0  0
    2.5462   -0.0029    3.9403 O   0  0  0  0  0  0  0  0  0  0  0  0
    3.1071   -0.8613    1.7482 C   0  0  1  0  0  0  0  0  0  0  0  0
    2.7759    0.4638    1.3848 O   0  0  0  0  0  0  0  0  0  0  0  0
    4.6080   -1.1343    1.6525 C   0  0  2  0  0  0  0  0  0  0  0  0
    5.2314   -0.9200    0.2566 C   0  0  0  0  0  0  0  0  0  0  0  0
    6.3260   -1.9958    0.1346 C   0  0  1  0  0  0  0  0  0  0  0  0
    7.5944   -1.4601    0.4553 O   0  0  0  0  0  0  0  0  0  0  0  0
    5.8984   -3.0322    1.1456 C   0  0  0  0  0  0  0  0  0  0  0  0
    6.5614   -4.3993    1.1003 C   0  0  0  0  0  0  0  0  0  0  0  0
    4.9110   -2.5879    1.9436 C   0  0  0  0  0  0  0  0  0  0  0  0
    4.1591   -3.3097    3.0803 C   0  0  1  0  0  0  0  0  0  0  0  0
    5.1516   -3.8625    3.9106 O   0  0  0  0  0  0  0  0  0  0  0  0
    3.2736   -4.4723    2.4903 C   0  0  2  0  0  0  0  0  0  0  0  0
    2.2266   -3.9137    1.7323 O   0  0  0  0  0  0  0  0  0  0  0  0
    2.7009   -5.6230    3.3972 C   0  0  2  0  0  0  0  0  0  0  0  0
    3.8296   -6.5193    3.9557 C   0  0  0  0  0  0  0  0  0  0  0  0
    3.0842   -7.1378    1.0051 H   0  0  0  0  0  0  0  0  0  0  0  0
    1.3823   -7.8554    0.9800 H   0  0  0  0  0  0  0  0  0  0  0  0
    2.1432   -5.6120    5.5071 H   0  0  0  0  0  0  0  0  0  0  0  0
    0.8543   -3.3554    3.9154 H   0  0  0  0  0  0  0  0  0  0  0  0
    0.6750   -3.6998    5.5891 H   0  0  0  0  0  0  0  0  0  0  0  0
    2.0672   -1.9174    5.5725 H   0  0  0  0  0  0  0  0  0  0  0  0
    3.9020   -4.2461    6.1402 H   0  0  0  0  0  0  0  0  0  0  0  0
    2.7442   -3.4984    7.2176 H   0  0  0  0  0  0  0  0  0  0  0  0
    4.1342   -2.5880    6.6626 H   0  0  0  0  0  0  0  0  0  0  0  0
    4.1944   -1.6768    4.4170 H   0  0  0  0  0  0  0  0  0  0  0  0
    1.5282   -1.4938    3.0402 H   0  0  0  0  0  0  0  0  0  0  0  0
    2.1308    0.6701    3.4108 H   0  0  0  0  0  0  0  0  0  0  0  0
    2.6030   -1.4932    1.0152 H   0  0  0  0  0  0  0  0  0  0  0  0
    1.9300    0.4449    0.9471 H   0  0  0  0  0  0  0  0  0  0  0  0
    5.1460   -0.5310    2.3882 H   0  0  0  0  0  0  0  0  0  0  0  0
    4.4785   -1.1170   -0.5122 H   0  0  0  0  0  0  0  0  0  0  0  0
    5.5864    0.0967    0.1024 H   0  0  0  0  0  0  0  0  0  0  0  0
    6.3567   -2.4459   -0.8574 H   0  0  0  0  0  0  0  0  0  0  0  0
    7.4982   -0.9096    1.2169 H   0  0  0  0  0  0  0  0  0  0  0  0
    7.6381   -4.2983    1.2518 H   0  0  0  0  0  0  0  0  0  0  0  0
    6.4019   -4.8301    0.1126 H   0  0  0  0  0  0  0  0  0  0  0  0
    6.1759   -5.1003    1.8402 H   0  0  0  0  0  0  0  0  0  0  0  0
    5.5643   -4.5732    3.4424 H   0  0  0  0  0  0  0  0  0  0  0  0
    3.8782   -4.9799    1.7388 H   0  0  0  0  0  0  0  0  0  0  0  0
    2.6032   -3.3455    1.0758 H   0  0  0  0  0  0  0  0  0  0  0  0
    4.3493   -6.0576    4.7985 H   0  0  0  0  0  0  0  0  0  0  0  0
    4.5699   -6.7632    3.1885 H   0  0  0  0  0  0  0  0  0  0  0  0
    3.4289   -7.4668    4.3305 H   0  0  0  0  0  0  0  0  0  0  0  0
  1  2  2  0
  1 28  1  0
  1 29  1  0
  2 26  1  0
  2  3  1  0
  3  4  2  0
  3  5  1  0
  5  6  1  0
  6 26  1  0
  6  7  1  0
  6 30  1  1
  7  8  1  0
  7 31  1  0
  7 32  1  0
  8  9  1  0
  8 10  1  0
  8 33  1  1
  9 34  1  0
  9 35  1  0
  9 36  1  0
 10 22  1  0
 10 11  1  0
 10 37  1  1
 11 12  1  0
 11 13  1  0
 11 38  1  6
 12 39  1  0
 13 14  1  0
 13 15  1  0
 13 40  1  6
 14 41  1  0
 15 21  1  0
 15 16  1  0
 15 42  1  1
 16 17  1  0
 16 43  1  0
 16 44  1  0
 17 18  1  0
 17 19  1  0
 17 45  1  6
 18 46  1  0
 19 20  1  0
 19 21  2  0
 20 47  1  0
 20 48  1  0
 20 49  1  0
 21 22  1  0
 22 23  1  1
 22 24  1  0
 23 50  1  0
 24 25  1  0
 24 26  1  0
 24 51  1  6
 25 52  1  0
 26 27  1  1
 27 53  1  0
 27 54  1  0
 27 55  1  0
M  END
>  <i_m_ct_stereo_status>  (258) 
1

>  <s_m_source_file>  (258) 
/var/tmp/pbs.5076255.sched01/tmp8hdfbsd6/1003312lgh9.sdf

>  <i_m_source_file_index>  (258) 
2

>  <i_lp_mmshare_version>  (258) 
48012

>  <i_f3d_flags>  (258) 
0

>  <s_epik_input>  (258) 
Tz1DKE8xKUMoPVtDSDJdKVtDQEBdKFtDSDNdKShbQ0hdMltPSF0pW0NASF0xW0NIMl1bQ0BASF0oW0NIM10pW0NAQEhdKFtDQEBdMjNbT0hdKVtDQEBIXShbT0hdKVtDQEBIXShbT0hdKVtDQEhdNEMzPUMoW0NIM10pW0NAQEhdKFtDSDJdNClbT0hd

>  <s_epik_cmdline>  (258) 
J2VwaWtfcHl0aG9uJywgJy1waHQnLCAnMi4wJywgJy1waCcsICc3LjAnLCAnLXRuJywgJzgnLCAnLW1hJywgJzIwMCcsICctaW1hZScsICc8aW5maWxlLm1hZT4nLCAnLW9tYWUnLCAnPG91dGZpbGUubWFlPic=

>  <r_lp_tautomer_probability>  (258) 
1

>  <r_epik_Ionization_Penalty>  (258) 
7.63852e-07

>  <r_epik_Ionization_Penalty_Charging>  (258) 
0

>  <r_epik_Ionization_Penalty_Neutral>  (258) 
7.63852e-07

>  <r_epik_State_Penalty>  (258) 
-0

>  <r_epik_Charging_Adjusted_Penalty>  (258) 
0

>  <i_epik_Tot_Q>  (258) 
0

>  <i_epik_Tot_abs_Q>  (258) 
0

>  <s_epik_Chemistry_Notes>  (258) 
This compound has an ester and may undergo hydrolysis at high or low pH.

>  <s_lp_Force_Field>  (258) 
OPLS3e

>  <r_lp_Energy>  (258) 
40.2224

>  <b_lp_Chiralities_Consistent>  (258) 
1

>  <s_lp_Variant>  (258) 
60:0-1

>  <s_i_glide_gridfile>  (258) 
pfpi4k_grid

>  <i_i_glide_lignum>  (258) 
2

>  <i_i_glide_rotatable_bonds>  (258) 
5

>  <r_i_docking_score>  (258) 
-3.30904

>  <r_i_glide_ligand_efficiency>  (258) 
-0.122557

>  <r_i_glide_ligand_efficiency_sa>  (258) 
-0.367671

>  <r_i_glide_ligand_efficiency_ln>  (258) 
-0.770289

>  <r_i_glide_gscore>  (258) 
-3.30904

>  <r_i_glide_lipo>  (258) 
-0.391391

>  <r_i_glide_hbond>  (258) 
-0.162543

>  <r_i_glide_metal>  (258) 
-0

>  <r_i_glide_rewards>  (258) 
-0.815236

>  <r_i_glide_evdw>  (258) 
-23.1089

>  <r_i_glide_ecoul>  (258) 
-4.89506

>  <r_i_glide_erotb>  (258) 
0

>  <r_i_glide_esite>  (258) 
-0.0501623

>  <r_i_glide_emodel>  (258) 
-33.3172

>  <r_i_glide_energy>  (258) 
-28.004

>  <r_i_glide_einternal>  (258) 
1.52124

>  <r_i_glide_intrahb_reward>  (258) 
-0

>  <i_i_glide_confnum>  (258) 
2

>  <i_i_glide_posenum>  (258) 
8

>  <r_i_glide_eff_state_penalty>  (258) 
0

>  <ligand_id>  (258) 
60

>  <original_smiles>  (258) 
C=C1C(=O)OC2CC(C)C3C(O)C(O)C4CC(O)C(C)=C4C3(O)C(O)C12C

>  <smiles>  (258) 
[H]OC1([H])C(C([H])([H])[H])=C2C([H])(C1([H])[H])C([H])(O[H])C([H])(O[H])C1([H])C2(O[H])C([H])(O[H])C2(C([H])([H])[H])C(=C([H])[H])C(=O)OC2([H])C([H])([H])C1([H])C([H])([H])[H]

$$$$
61:0:0
     RDKit          3D

 87 91  0  0  1  0  0  0  0  0999 V2000
    3.0522  -11.1739    2.7710 C   0  0  0  0  0  0  0  0  0  0  0  0
    1.9848  -10.5256    3.3416 C   0  0  0  0  0  0  0  0  0  0  0  0
    0.6554  -11.2401    3.3836 C   0  0  0  0  0  0  0  0  0  0  0  0
    2.0006   -9.1182    3.9386 C   0  0  2  0  0  0  0  0  0  0  0  0
    1.2778   -8.1057    3.0237 C   0  0  0  0  0  0  0  0  0  0  0  0
    2.1652   -7.7730    1.8300 C   0  0  0  0  0  0  0  0  0  0  0  0
    3.4906   -7.0427    2.1977 C   0  0  2  0  0  0  0  0  0  0  0  0
    4.3548   -7.2020    0.9091 C   0  0  0  0  0  0  0  0  0  0  0  0
    4.2119   -7.8211    3.3622 C   0  0  1  0  0  0  0  0  0  0  0  0
    5.4439   -7.0059    3.8455 C   0  0  0  0  0  0  0  0  0  0  0  0
    5.1535   -5.5488    4.2504 C   0  0  0  0  0  0  0  0  0  0  0  0
    4.3970   -4.6772    3.2056 C   0  0  1  0  0  0  0  0  0  0  0  0
    5.4107   -4.2798    2.0867 C   0  0  0  0  0  0  0  0  0  0  0  0
    3.2195   -5.5185    2.5874 C   0  0  1  0  0  0  0  0  0  0  0  0
    2.5169   -4.6882    1.4876 C   0  0  0  0  0  0  0  0  0  0  0  0
    2.2403   -3.2509    1.9091 C   0  0  0  0  0  0  0  0  0  0  0  0
    2.7617   -2.6559    2.9833 C   0  0  0  0  0  0  0  0  0  0  0  0
    2.2092   -1.3180    3.5131 C   0  0  1  0  0  0  0  0  0  0  0  0
    1.3992   -0.4626    2.5160 C   0  0  0  0  0  0  0  0  0  0  0  0
    0.9862    0.9097    3.1069 C   0  0  0  0  0  0  0  0  0  0  0  0
    2.2215    1.8246    3.3340 C   0  0  0  0  0  0  0  0  0  0  0  0
    0.0551    1.6258    2.1135 C   0  0  0  0  0  0  0  0  0  0  0  0
    0.2248    0.6775    4.4323 C   0  0  0  0  0  0  0  0  0  0  0  0
    0.9923   -0.2062    5.4282 C   0  0  0  0  0  0  0  0  0  0  0  0
    1.4370   -1.5667    4.8376 C   0  0  1  0  0  0  0  0  0  0  0  0
    0.1903   -2.4699    4.6343 C   0  0  0  0  0  0  0  0  0  0  0  0
    2.3909   -2.2757    5.8301 C   0  0  0  0  0  0  0  0  0  0  0  0
    3.1060   -3.5310    5.2593 C   0  0  0  0  0  0  0  0  0  0  0  0
    3.8175   -3.3244    3.8839 C   0  0  1  0  0  0  0  0  0  0  0  0
    5.0011   -2.3427    4.1354 C   0  0  0  0  0  0  0  0  0  0  0  0
    3.3383   -8.5001    4.5062 C   0  0  0  0  0  0  0  0  0  0  0  0
    2.9263   -7.5127    5.6295 C   0  0  0  0  0  0  0  0  0  0  0  0
    4.1777   -9.5671    5.2793 C   0  0  0  0  0  0  0  0  0  0  0  0
    2.9377  -12.1898    2.4511 H   0  0  0  0  0  0  0  0  0  0  0  0
    4.0043  -10.7221    2.6195 H   0  0  0  0  0  0  0  0  0  0  0  0
   -0.0982  -10.6869    2.8190 H   0  0  0  0  0  0  0  0  0  0  0  0
    0.2917  -11.3585    4.4043 H   0  0  0  0  0  0  0  0  0  0  0  0
    0.7161  -12.2275    2.9332 H   0  0  0  0  0  0  0  0  0  0  0  0
    1.3409   -9.2499    4.7985 H   0  0  0  0  0  0  0  0  0  0  0  0
    0.3407   -8.5205    2.6554 H   0  0  0  0  0  0  0  0  0  0  0  0
    0.9812   -7.2085    3.5661 H   0  0  0  0  0  0  0  0  0  0  0  0
    2.3786   -8.7177    1.3275 H   0  0  0  0  0  0  0  0  0  0  0  0
    1.5896   -7.2224    1.0914 H   0  0  0  0  0  0  0  0  0  0  0  0
    5.4169   -7.0694    1.0722 H   0  0  0  0  0  0  0  0  0  0  0  0
    4.0534   -6.5413    0.0992 H   0  0  0  0  0  0  0  0  0  0  0  0
    4.2943   -8.2136    0.5093 H   0  0  0  0  0  0  0  0  0  0  0  0
    4.6519   -8.6864    2.8715 H   0  0  0  0  0  0  0  0  0  0  0  0
    5.9158   -7.5090    4.6845 H   0  0  0  0  0  0  0  0  0  0  0  0
    6.2119   -6.9994    3.0749 H   0  0  0  0  0  0  0  0  0  0  0  0
    4.6204   -5.5760    5.1860 H   0  0  0  0  0  0  0  0  0  0  0  0
    6.1051   -5.0810    4.5013 H   0  0  0  0  0  0  0  0  0  0  0  0
    4.9953   -3.5634    1.3796 H   0  0  0  0  0  0  0  0  0  0  0  0
    5.7771   -5.1120    1.5062 H   0  0  0  0  0  0  0  0  0  0  0  0
    6.3181   -3.8269    2.4792 H   0  0  0  0  0  0  0  0  0  0  0  0
    2.4820   -5.5755    3.3800 H   0  0  0  0  0  0  0  0  0  0  0  0
    3.0571   -4.6658    0.5447 H   0  0  0  0  0  0  0  0  0  0  0  0
    1.5405   -5.1209    1.2952 H   0  0  0  0  0  0  0  0  0  0  0  0
    1.5059   -2.7275    1.3236 H   0  0  0  0  0  0  0  0  0  0  0  0
    3.0818   -0.7168    3.7395 H   0  0  0  0  0  0  0  0  0  0  0  0
    1.9563   -0.3115    1.5906 H   0  0  0  0  0  0  0  0  0  0  0  0
    0.4920   -0.9908    2.2262 H   0  0  0  0  0  0  0  0  0  0  0  0
    1.9273    2.8187    3.6717 H   0  0  0  0  0  0  0  0  0  0  0  0
    2.8021    1.9470    2.4187 H   0  0  0  0  0  0  0  0  0  0  0  0
    2.9014    1.4311    4.0883 H   0  0  0  0  0  0  0  0  0  0  0  0
   -0.2645    2.5978    2.4918 H   0  0  0  0  0  0  0  0  0  0  0  0
   -0.8417    1.0407    1.9061 H   0  0  0  0  0  0  0  0  0  0  0  0
    0.5546    1.7991    1.1612 H   0  0  0  0  0  0  0  0  0  0  0  0
   -0.0125    1.6345    4.8935 H   0  0  0  0  0  0  0  0  0  0  0  0
   -0.7373    0.2173    4.2068 H   0  0  0  0  0  0  0  0  0  0  0  0
    1.8670    0.3419    5.7761 H   0  0  0  0  0  0  0  0  0  0  0  0
    0.3804   -0.3647    6.3130 H   0  0  0  0  0  0  0  0  0  0  0  0
   -0.3234   -2.6473    5.5792 H   0  0  0  0  0  0  0  0  0  0  0  0
    0.4449   -3.4438    4.2200 H   0  0  0  0  0  0  0  0  0  0  0  0
   -0.5374   -2.0273    3.9579 H   0  0  0  0  0  0  0  0  0  0  0  0
    3.1355   -1.5608    6.1805 H   0  0  0  0  0  0  0  0  0  0  0  0
    1.8408   -2.5623    6.7243 H   0  0  0  0  0  0  0  0  0  0  0  0
    3.8147   -3.8466    6.0213 H   0  0  0  0  0  0  0  0  0  0  0  0
    2.3689   -4.3253    5.1767 H   0  0  0  0  0  0  0  0  0  0  0  0
    5.8196   -2.8473    4.6330 H   0  0  0  0  0  0  0  0  0  0  0  0
    4.7580   -1.5047    4.7826 H   0  0  0  0  0  0  0  0  0  0  0  0
    5.3716   -1.8954    3.2128 H   0  0  0  0  0  0  0  0  0  0  0  0
    3.7800   -7.1913    6.2247 H   0  0  0  0  0  0  0  0  0  0  0  0
    2.2493   -7.9777    6.3469 H   0  0  0  0  0  0  0  0  0  0  0  0
    2.4192   -6.6255    5.2581 H   0  0  0  0  0  0  0  0  0  0  0  0
    4.9177   -9.1109    5.9398 H   0  0  0  0  0  0  0  0  0  0  0  0
    4.7560  -10.2405    4.6522 H   0  0  0  0  0  0  0  0  0  0  0  0
    3.5342  -10.1841    5.9078 H   0  0  0  0  0  0  0  0  0  0  0  0
  1  2  2  0
  1 34  1  0
  1 35  1  0
  2  3  1  0
  2  4  1  0
  3 36  1  0
  3 37  1  0
  3 38  1  0
  4 31  1  0
  4  5  1  0
  4 39  1  1
  5  6  1  0
  5 40  1  0
  5 41  1  0
  6  7  1  0
  6 42  1  0
  6 43  1  0
  7 14  1  0
  7  8  1  6
  7  9  1  0
  8 44  1  0
  8 45  1  0
  8 46  1  0
  9 10  1  0
  9 31  1  0
  9 47  1  6
 10 11  1  0
 10 48  1  0
 10 49  1  0
 11 12  1  0
 11 50  1  0
 11 51  1  0
 12 29  1  0
 12 13  1  6
 12 14  1  0
 13 52  1  0
 13 53  1  0
 13 54  1  0
 14 15  1  0
 14 55  1  1
 15 16  1  0
 15 56  1  0
 15 57  1  0
 16 17  2  0
 16 58  1  0
 17 29  1  0
 17 18  1  0
 18 25  1  0
 18 19  1  0
 18 59  1  1
 19 20  1  0
 19 60  1  0
 19 61  1  0
 20 21  1  0
 20 22  1  0
 20 23  1  0
 21 62  1  0
 21 63  1  0
 21 64  1  0
 22 65  1  0
 22 66  1  0
 22 67  1  0
 23 24  1  0
 23 68  1  0
 23 69  1  0
 24 25  1  0
 24 70  1  0
 24 71  1  0
 25 26  1  6
 25 27  1  0
 26 72  1  0
 26 73  1  0
 26 74  1  0
 27 28  1  0
 27 75  1  0
 27 76  1  0
 28 29  1  0
 28 77  1  0
 28 78  1  0
 29 30  1  1
 30 79  1  0
 30 80  1  0
 30 81  1  0
 31 32  1  0
 31 33  1  0
 32 82  1  0
 32 83  1  0
 32 84  1  0
 33 85  1  0
 33 86  1  0
 33 87  1  0
M  END
>  <i_m_ct_stereo_status>  (259) 
1

>  <s_m_source_file>  (259) 
/var/tmp/pbs.5076255.sched01/tmp8hdfbsd6/1003312lgh9.sdf

>  <i_m_source_file_index>  (259) 
3

>  <i_lp_mmshare_version>  (259) 
48012

>  <i_f3d_flags>  (259) 
0

>  <s_epik_input>  (259) 
W0NIMl09QyhbQ0gzXSlbQ0BIXShbQ0gyXVtDSDJdMSlDKFtDSDNdKShbQ0gzXSlbQ0BASF0oW0NAQF0xMltDSDNdKVtDSDJdW0NIMl1bQ0BAXTMoW0NIM10pW0NASF0yW0NIMl1bQ0hdPUM0W0NAQEhdNVtDQF0oW0NIM10pKFtDSDJdW0NIMl1DKFtDSDJdNSkoW0NIM10pW0NIM10pW0NIMl1bQ0gyXVtDQEBdMzRbQ0gzXQ==

>  <s_epik_cmdline>  (259) 
J2VwaWtfcHl0aG9uJywgJy1waHQnLCAnMi4wJywgJy1waCcsICc3LjAnLCAnLXRuJywgJzgnLCAnLW1hJywgJzIwMCcsICctaW1hZScsICc8aW5maWxlLm1hZT4nLCAnLW9tYWUnLCAnPG91dGZpbGUubWFlPic=

>  <r_lp_tautomer_probability>  (259) 
1

>  <r_epik_Ionization_Penalty>  (259) 
0

>  <r_epik_Ionization_Penalty_Charging>  (259) 
0

>  <r_epik_Ionization_Penalty_Neutral>  (259) 
0

>  <r_epik_State_Penalty>  (259) 
-0

>  <r_epik_Charging_Adjusted_Penalty>  (259) 
0

>  <i_epik_Tot_Q>  (259) 
0

>  <i_epik_Tot_abs_Q>  (259) 
0

>  <s_lp_Force_Field>  (259) 
OPLS3e

>  <r_lp_Energy>  (259) 
103.133

>  <b_lp_Chiralities_Consistent>  (259) 
1

>  <s_lp_Variant>  (259) 
61:0-1

>  <s_i_glide_gridfile>  (259) 
pfpi4k_grid

>  <i_i_glide_lignum>  (259) 
3

>  <i_i_glide_rotatable_bonds>  (259) 
1

>  <r_i_docking_score>  (259) 
-2.17904

>  <r_i_glide_ligand_efficiency>  (259) 
-0.0660316

>  <r_i_glide_ligand_efficiency_sa>  (259) 
-0.211799

>  <r_i_glide_ligand_efficiency_ln>  (259) 
-0.484608

>  <r_i_glide_gscore>  (259) 
-2.17904

>  <r_i_glide_lipo>  (259) 
-0.451448

>  <r_i_glide_hbond>  (259) 
0

>  <r_i_glide_metal>  (259) 
-0

>  <r_i_glide_rewards>  (259) 
-0.335578

>  <r_i_glide_evdw>  (259) 
-27.5288

>  <r_i_glide_ecoul>  (259) 
-0.761699

>  <r_i_glide_erotb>  (259) 
0.0986779

>  <r_i_glide_esite>  (259) 
0

>  <r_i_glide_emodel>  (259) 
-31.6678

>  <r_i_glide_energy>  (259) 
-28.2905

>  <r_i_glide_einternal>  (259) 
0.0715956

>  <r_i_glide_intrahb_reward>  (259) 
-0

>  <i_i_glide_confnum>  (259) 
4

>  <i_i_glide_posenum>  (259) 
14

>  <r_i_glide_eff_state_penalty>  (259) 
0

>  <ligand_id>  (259) 
61

>  <original_smiles>  (259) 
C=C(C)C1CCC2(C)C(CCC3(C)C2CC=C2C4CC(C)(C)CCC4(C)CCC23C)C1(C)C

>  <smiles>  (259) 
[H]C([H])=C(C([H])([H])[H])C1([H])C([H])([H])C([H])([H])C2(C([H])([H])[H])C([H])(C([H])([H])C([H])([H])C3(C([H])([H])[H])C2([H])C([H])([H])C([H])=C2C4([H])C([H])([H])C(C([H])([H])[H])(C([H])([H])[H])C([H])([H])C([H])([H])C4(C([H])([H])[H])C([H])([H])C([H])([H])C23C([H])([H])[H])C1(C([H])([H])[H])C([H])([H])[H]

$$$$
61:0:1
     RDKit          3D

 87 91  0  0  1  0  0  0  0  0999 V2000
    0.9437  -10.0783    2.9209 C   0  0  0  0  0  0  0  0  0  0  0  0
   -0.0360   -9.1720    3.0459 C   0  0  0  0  0  0  0  0  0  0  0  0
   -1.3881   -9.4365    2.4059 C   0  0  0  0  0  0  0  0  0  0  0  0
    0.0500   -7.8264    3.7855 C   0  0  2  0  0  0  0  0  0  0  0  0
    0.1444   -6.6536    2.7961 C   0  0  0  0  0  0  0  0  0  0  0  0
    1.5348   -6.5824    2.1894 C   0  0  0  0  0  0  0  0  0  0  0  0
    2.6686   -6.2828    3.2208 C   0  0  2  0  0  0  0  0  0  0  0  0
    3.9644   -6.6831    2.4462 C   0  0  0  0  0  0  0  0  0  0  0  0
    2.5214   -7.2485    4.4541 C   0  0  1  0  0  0  0  0  0  0  0  0
    3.5461   -6.8497    5.5542 C   0  0  0  0  0  0  0  0  0  0  0  0
    3.4923   -5.3716    5.9955 C   0  0  0  0  0  0  0  0  0  0  0  0
    3.5776   -4.3062    4.8634 C   0  0  1  0  0  0  0  0  0  0  0  0
    5.0666   -4.2255    4.4011 C   0  0  0  0  0  0  0  0  0  0  0  0
    2.6544   -4.7496    3.6624 C   0  0  1  0  0  0  0  0  0  0  0  0
    2.7910   -3.7392    2.4982 C   0  0  0  0  0  0  0  0  0  0  0  0
    2.7288   -2.2940    2.9502 C   0  0  0  0  0  0  0  0  0  0  0  0
    2.8337   -1.8849    4.2336 C   0  0  0  0  0  0  0  0  0  0  0  0
    2.4662   -0.4494    4.6472 C   0  0  1  0  0  0  0  0  0  0  0  0
    2.4789    0.6248    3.5333 C   0  0  0  0  0  0  0  0  0  0  0  0
    2.2183    2.0491    4.0777 C   0  0  0  0  0  0  0  0  0  0  0  0
    3.3898    2.5440    4.9767 C   0  0  0  0  0  0  0  0  0  0  0  0
    2.1025    3.0283    2.8937 C   0  0  0  0  0  0  0  0  0  0  0  0
    0.8943    2.0496    4.8670 C   0  0  0  0  0  0  0  0  0  0  0  0
    0.8338    0.9632    5.9593 C   0  0  0  0  0  0  0  0  0  0  0  0
    1.1276   -0.4626    5.4330 C   0  0  1  0  0  0  0  0  0  0  0  0
   -0.0666   -0.9458    4.5588 C   0  0  0  0  0  0  0  0  0  0  0  0
    1.2773   -1.4332    6.6334 C   0  0  0  0  0  0  0  0  0  0  0  0
    1.8229   -2.8407    6.2672 C   0  0  0  0  0  0  0  0  0  0  0  0
    3.1301   -2.8437    5.3996 C   0  0  1  0  0  0  0  0  0  0  0  0
    4.2706   -2.2735    6.3068 C   0  0  0  0  0  0  0  0  0  0  0  0
    1.0703   -7.6436    4.9703 C   0  0  0  0  0  0  0  0  0  0  0  0
    0.4537   -6.5807    5.9219 C   0  0  0  0  0  0  0  0  0  0  0  0
    1.1351   -8.9321    5.8512 C   0  0  0  0  0  0  0  0  0  0  0  0
    0.7558  -11.0129    2.4212 H   0  0  0  0  0  0  0  0  0  0  0  0
    1.9430   -9.9259    3.2989 H   0  0  0  0  0  0  0  0  0  0  0  0
   -1.6375   -8.6828    1.6650 H   0  0  0  0  0  0  0  0  0  0  0  0
   -2.1812   -9.4638    3.1492 H   0  0  0  0  0  0  0  0  0  0  0  0
   -1.3845  -10.3909    1.8753 H   0  0  0  0  0  0  0  0  0  0  0  0
   -0.9430   -7.7552    4.2273 H   0  0  0  0  0  0  0  0  0  0  0  0
   -0.5843   -6.7673    1.9883 H   0  0  0  0  0  0  0  0  0  0  0  0
   -0.1079   -5.7228    3.2876 H   0  0  0  0  0  0  0  0  0  0  0  0
    1.7135   -7.5380    1.7034 H   0  0  0  0  0  0  0  0  0  0  0  0
    1.5517   -5.8731    1.3630 H   0  0  0  0  0  0  0  0  0  0  0  0
    4.8177   -6.8754    3.0882 H   0  0  0  0  0  0  0  0  0  0  0  0
    4.2638   -5.9569    1.6969 H   0  0  0  0  0  0  0  0  0  0  0  0
    3.8407   -7.6277    1.9190 H   0  0  0  0  0  0  0  0  0  0  0  0
    2.9062   -8.2031    4.0896 H   0  0  0  0  0  0  0  0  0  0  0  0
    3.4176   -7.4805    6.4292 H   0  0  0  0  0  0  0  0  0  0  0  0
    4.5522   -7.0668    5.2187 H   0  0  0  0  0  0  0  0  0  0  0  0
    2.6000   -5.2488    6.5767 H   0  0  0  0  0  0  0  0  0  0  0  0
    4.2998   -5.2148    6.7155 H   0  0  0  0  0  0  0  0  0  0  0  0
    5.2403   -3.4094    3.7011 H   0  0  0  0  0  0  0  0  0  0  0  0
    5.4308   -5.1234    3.9230 H   0  0  0  0  0  0  0  0  0  0  0  0
    5.7553   -4.0769    5.2314 H   0  0  0  0  0  0  0  0  0  0  0  0
    1.6454   -4.5874    4.0273 H   0  0  0  0  0  0  0  0  0  0  0  0
    3.7027   -3.8689    1.9167 H   0  0  0  0  0  0  0  0  0  0  0  0
    1.9485   -3.8440    1.8164 H   0  0  0  0  0  0  0  0  0  0  0  0
    2.4884   -1.5978    2.1685 H   0  0  0  0  0  0  0  0  0  0  0  0
    3.2575   -0.1373    5.3316 H   0  0  0  0  0  0  0  0  0  0  0  0
    3.4249    0.5998    2.9955 H   0  0  0  0  0  0  0  0  0  0  0  0
    1.7078    0.3943    2.7900 H   0  0  0  0  0  0  0  0  0  0  0  0
    3.2431    3.5783    5.2847 H   0  0  0  0  0  0  0  0  0  0  0  0
    4.3371    2.4852    4.4479 H   0  0  0  0  0  0  0  0  0  0  0  0
    3.4969    1.9549    5.8905 H   0  0  0  0  0  0  0  0  0  0  0  0
    1.8935    4.0462    3.2236 H   0  0  0  0  0  0  0  0  0  0  0  0
    1.2922    2.7346    2.2168 H   0  0  0  0  0  0  0  0  0  0  0  0
    3.0165    3.0563    2.3092 H   0  0  0  0  0  0  0  0  0  0  0  0
    0.7196    3.0291    5.3134 H   0  0  0  0  0  0  0  0  0  0  0  0
    0.0637    1.8988    4.1710 H   0  0  0  0  0  0  0  0  0  0  0  0
    1.5506    1.2194    6.7419 H   0  0  0  0  0  0  0  0  0  0  0  0
   -0.1399    0.9935    6.4456 H   0  0  0  0  0  0  0  0  0  0  0  0
   -0.9922   -0.9605    5.1323 H   0  0  0  0  0  0  0  0  0  0  0  0
    0.0875   -1.9516    4.1690 H   0  0  0  0  0  0  0  0  0  0  0  0
   -0.2365   -0.3013    3.6973 H   0  0  0  0  0  0  0  0  0  0  0  0
    1.9282   -0.9805    7.3814 H   0  0  0  0  0  0  0  0  0  0  0  0
    0.3179   -1.5466    7.1375 H   0  0  0  0  0  0  0  0  0  0  0  0
    1.9770   -3.3594    7.2080 H   0  0  0  0  0  0  0  0  0  0  0  0
    1.0339   -3.3770    5.7452 H   0  0  0  0  0  0  0  0  0  0  0  0
    4.6216   -3.0014    7.0334 H   0  0  0  0  0  0  0  0  0  0  0  0
    3.9745   -1.4092    6.8957 H   0  0  0  0  0  0  0  0  0  0  0  0
    5.1288   -1.9430    5.7199 H   0  0  0  0  0  0  0  0  0  0  0  0
    0.9717   -6.5412    6.8746 H   0  0  0  0  0  0  0  0  0  0  0  0
   -0.5776   -6.8163    6.1700 H   0  0  0  0  0  0  0  0  0  0  0  0
    0.4431   -5.5778    5.4954 H   0  0  0  0  0  0  0  0  0  0  0  0
    1.5733   -8.7363    6.8273 H   0  0  0  0  0  0  0  0  0  0  0  0
    1.7225   -9.7349    5.4077 H   0  0  0  0  0  0  0  0  0  0  0  0
    0.1346   -9.3244    6.0373 H   0  0  0  0  0  0  0  0  0  0  0  0
  1  2  2  0
  1 34  1  0
  1 35  1  0
  2  3  1  0
  2  4  1  0
  3 36  1  0
  3 37  1  0
  3 38  1  0
  4 31  1  0
  4  5  1  0
  4 39  1  1
  5  6  1  0
  5 40  1  0
  5 41  1  0
  6  7  1  0
  6 42  1  0
  6 43  1  0
  7 14  1  0
  7  8  1  6
  7  9  1  0
  8 44  1  0
  8 45  1  0
  8 46  1  0
  9 10  1  0
  9 31  1  0
  9 47  1  6
 10 11  1  0
 10 48  1  0
 10 49  1  0
 11 12  1  0
 11 50  1  0
 11 51  1  0
 12 29  1  0
 12 13  1  6
 12 14  1  0
 13 52  1  0
 13 53  1  0
 13 54  1  0
 14 15  1  0
 14 55  1  1
 15 16  1  0
 15 56  1  0
 15 57  1  0
 16 17  2  0
 16 58  1  0
 17 29  1  0
 17 18  1  0
 18 25  1  0
 18 19  1  0
 18 59  1  1
 19 20  1  0
 19 60  1  0
 19 61  1  0
 20 21  1  0
 20 22  1  0
 20 23  1  0
 21 62  1  0
 21 63  1  0
 21 64  1  0
 22 65  1  0
 22 66  1  0
 22 67  1  0
 23 24  1  0
 23 68  1  0
 23 69  1  0
 24 25  1  0
 24 70  1  0
 24 71  1  0
 25 26  1  6
 25 27  1  0
 26 72  1  0
 26 73  1  0
 26 74  1  0
 27 28  1  0
 27 75  1  0
 27 76  1  0
 28 29  1  0
 28 77  1  0
 28 78  1  0
 29 30  1  1
 30 79  1  0
 30 80  1  0
 30 81  1  0
 31 32  1  0
 31 33  1  0
 32 82  1  0
 32 83  1  0
 32 84  1  0
 33 85  1  0
 33 86  1  0
 33 87  1  0
M  END
>  <i_m_ct_stereo_status>  (260) 
1

>  <s_m_source_file>  (260) 
/var/tmp/pbs.5076255.sched01/tmp8hdfbsd6/1003312lgh9.sdf

>  <i_m_source_file_index>  (260) 
3

>  <i_lp_mmshare_version>  (260) 
48012

>  <i_f3d_flags>  (260) 
0

>  <s_epik_input>  (260) 
W0NIMl09QyhbQ0gzXSlbQ0BIXShbQ0gyXVtDSDJdMSlDKFtDSDNdKShbQ0gzXSlbQ0BASF0oW0NAQF0xMltDSDNdKVtDSDJdW0NIMl1bQ0BAXTMoW0NIM10pW0NASF0yW0NIMl1bQ0hdPUM0W0NAQEhdNVtDQF0oW0NIM10pKFtDSDJdW0NIMl1DKFtDSDJdNSkoW0NIM10pW0NIM10pW0NIMl1bQ0gyXVtDQEBdMzRbQ0gzXQ==

>  <s_epik_cmdline>  (260) 
J2VwaWtfcHl0aG9uJywgJy1waHQnLCAnMi4wJywgJy1waCcsICc3LjAnLCAnLXRuJywgJzgnLCAnLW1hJywgJzIwMCcsICctaW1hZScsICc8aW5maWxlLm1hZT4nLCAnLW9tYWUnLCAnPG91dGZpbGUubWFlPic=

>  <r_lp_tautomer_probability>  (260) 
1

>  <r_epik_Ionization_Penalty>  (260) 
0

>  <r_epik_Ionization_Penalty_Charging>  (260) 
0

>  <r_epik_Ionization_Penalty_Neutral>  (260) 
0

>  <r_epik_State_Penalty>  (260) 
-0

>  <r_epik_Charging_Adjusted_Penalty>  (260) 
0

>  <i_epik_Tot_Q>  (260) 
0

>  <i_epik_Tot_abs_Q>  (260) 
0

>  <s_lp_Force_Field>  (260) 
OPLS3e

>  <r_lp_Energy>  (260) 
103.133

>  <b_lp_Chiralities_Consistent>  (260) 
1

>  <s_lp_Variant>  (260) 
61:0-1

>  <s_i_glide_gridfile>  (260) 
pfpi4k_grid

>  <i_i_glide_lignum>  (260) 
3

>  <i_i_glide_rotatable_bonds>  (260) 
1

>  <r_i_docking_score>  (260) 
-1.89415

>  <r_i_glide_ligand_efficiency>  (260) 
-0.0573985

>  <r_i_glide_ligand_efficiency_sa>  (260) 
-0.184108

>  <r_i_glide_ligand_efficiency_ln>  (260) 
-0.421249

>  <r_i_glide_gscore>  (260) 
-1.89415

>  <r_i_glide_lipo>  (260) 
-0.388184

>  <r_i_glide_hbond>  (260) 
0

>  <r_i_glide_metal>  (260) 
-0

>  <r_i_glide_rewards>  (260) 
-0.335578

>  <r_i_glide_evdw>  (260) 
-25.9493

>  <r_i_glide_ecoul>  (260) 
0.189322

>  <r_i_glide_erotb>  (260) 
0.0986779

>  <r_i_glide_esite>  (260) 
0

>  <r_i_glide_emodel>  (260) 
-28.7334

>  <r_i_glide_energy>  (260) 
-25.76

>  <r_i_glide_einternal>  (260) 
0.0280499

>  <r_i_glide_intrahb_reward>  (260) 
-0

>  <i_i_glide_confnum>  (260) 
1

>  <i_i_glide_posenum>  (260) 
1

>  <r_i_glide_eff_state_penalty>  (260) 
0

>  <ligand_id>  (260) 
61

>  <original_smiles>  (260) 
C=C(C)C1CCC2(C)C(CCC3(C)C2CC=C2C4CC(C)(C)CCC4(C)CCC23C)C1(C)C

>  <smiles>  (260) 
[H]C([H])=C(C([H])([H])[H])C1([H])C([H])([H])C([H])([H])C2(C([H])([H])[H])C([H])(C([H])([H])C([H])([H])C3(C([H])([H])[H])C2([H])C([H])([H])C([H])=C2C4([H])C([H])([H])C(C([H])([H])[H])(C([H])([H])[H])C([H])([H])C([H])([H])C4(C([H])([H])[H])C([H])([H])C([H])([H])C23C([H])([H])[H])C1(C([H])([H])[H])C([H])([H])[H]

$$$$
61:0:2
     RDKit          3D

 87 91  0  0  1  0  0  0  0  0999 V2000
    1.4712    2.7213    2.6980 C   0  0  0  0  0  0  0  0  0  0  0  0
    1.5274    1.8214    3.6930 C   0  0  0  0  0  0  0  0  0  0  0  0
    0.9523    2.2031    5.0736 C   0  0  0  0  0  0  0  0  0  0  0  0
    2.1618    0.4229    3.4589 C   0  0  2  0  0  0  0  0  0  0  0  0
    1.1115   -0.6715    3.1752 C   0  0  0  0  0  0  0  0  0  0  0  0
    0.3488   -1.0676    4.4485 C   0  0  0  0  0  0  0  0  0  0  0  0
    1.2769   -1.6399    5.5795 C   0  0  2  0  0  0  0  0  0  0  0  0
    0.4196   -1.4679    6.8723 C   0  0  0  0  0  0  0  0  0  0  0  0
    2.5765   -0.7552    5.7576 C   0  0  1  0  0  0  0  0  0  0  0  0
    3.5547   -1.4409    6.7515 C   0  0  0  0  0  0  0  0  0  0  0  0
    3.9230   -2.8946    6.4084 C   0  0  0  0  0  0  0  0  0  0  0  0
    2.7334   -3.8674    6.1607 C   0  0  1  0  0  0  0  0  0  0  0  0
    2.1248   -4.2373    7.5513 C   0  0  0  0  0  0  0  0  0  0  0  0
    1.6525   -3.1562    5.2704 C   0  0  1  0  0  0  0  0  0  0  0  0
    0.4307   -4.0819    5.0876 C   0  0  0  0  0  0  0  0  0  0  0  0
    0.8001   -5.4962    4.7303 C   0  0  0  0  0  0  0  0  0  0  0  0
    2.0480   -6.0112    4.8318 C   0  0  0  0  0  0  0  0  0  0  0  0
    2.4135   -7.3498    4.1830 C   0  0  1  0  0  0  0  0  0  0  0  0
    1.2462   -8.3110    3.8571 C   0  0  0  0  0  0  0  0  0  0  0  0
    1.7368   -9.6857    3.3301 C   0  0  0  0  0  0  0  0  0  0  0  0
    2.4898  -10.4882    4.4247 C   0  0  0  0  0  0  0  0  0  0  0  0
    0.5162  -10.5168    2.8926 C   0  0  0  0  0  0  0  0  0  0  0  0
    2.6434   -9.4424    2.0991 C   0  0  0  0  0  0  0  0  0  0  0  0
    3.7946   -8.4551    2.3769 C   0  0  0  0  0  0  0  0  0  0  0  0
    3.3193   -7.0913    2.9459 C   0  0  1  0  0  0  0  0  0  0  0  0
    2.5863   -6.2955    1.8307 C   0  0  0  0  0  0  0  0  0  0  0  0
    4.5494   -6.2725    3.4115 C   0  0  0  0  0  0  0  0  0  0  0  0
    4.2092   -4.9996    4.2317 C   0  0  0  0  0  0  0  0  0  0  0  0
    3.2296   -5.2217    5.4343 C   0  0  1  0  0  0  0  0  0  0  0  0
    3.9914   -6.0993    6.4813 C   0  0  0  0  0  0  0  0  0  0  0  0
    3.2486   -0.0729    4.4834 C   0  0  0  0  0  0  0  0  0  0  0  0
    4.2000   -1.0270    3.7181 C   0  0  0  0  0  0  0  0  0  0  0  0
    4.1707    1.1104    4.9161 C   0  0  0  0  0  0  0  0  0  0  0  0
    1.0315    3.6903    2.8671 H   0  0  0  0  0  0  0  0  0  0  0  0
    1.8362    2.5388    1.6922 H   0  0  0  0  0  0  0  0  0  0  0  0
    1.7053    2.1493    5.8614 H   0  0  0  0  0  0  0  0  0  0  0  0
    0.0986    1.6331    5.3577 H   0  0  0  0  0  0  0  0  0  0  0  0
    0.6455    3.2650    5.0471 H   0  0  0  0  0  0  0  0  0  0  0  0
    2.6683    0.5461    2.5013 H   0  0  0  0  0  0  0  0  0  0  0  0
    0.3985   -0.3093    2.4382 H   0  0  0  0  0  0  0  0  0  0  0  0
    1.5759   -1.5440    2.6924 H   0  0  0  0  0  0  0  0  0  0  0  0
   -0.2265   -0.2496    4.7813 H   0  0  0  0  0  0  0  0  0  0  0  0
   -0.4330   -1.7885    4.1777 H   0  0  0  0  0  0  0  0  0  0  0  0
    0.9859   -1.5046    7.7960 H   0  0  0  0  0  0  0  0  0  0  0  0
   -0.3952   -2.1834    6.9482 H   0  0  0  0  0  0  0  0  0  0  0  0
   -0.0361   -0.4744    6.9096 H   0  0  0  0  0  0  0  0  0  0  0  0
    2.2378    0.1030    6.3333 H   0  0  0  0  0  0  0  0  0  0  0  0
    4.4681   -0.8580    6.8439 H   0  0  0  0  0  0  0  0  0  0  0  0
    3.1373   -1.4224    7.7596 H   0  0  0  0  0  0  0  0  0  0  0  0
    4.5771   -2.8554    5.5501 H   0  0  0  0  0  0  0  0  0  0  0  0
    4.5573   -3.2729    7.2119 H   0  0  0  0  0  0  0  0  0  0  0  0
    1.3651   -5.0169    7.4762 H   0  0  0  0  0  0  0  0  0  0  0  0
    1.6656   -3.4085    8.0677 H   0  0  0  0  0  0  0  0  0  0  0  0
    2.8769   -4.5974    8.2554 H   0  0  0  0  0  0  0  0  0  0  0  0
    2.1017   -3.1094    4.2859 H   0  0  0  0  0  0  0  0  0  0  0  0
   -0.2360   -4.1019    5.9460 H   0  0  0  0  0  0  0  0  0  0  0  0
   -0.1530   -3.7593    4.2315 H   0  0  0  0  0  0  0  0  0  0  0  0
    0.0069   -6.0619    4.2750 H   0  0  0  0  0  0  0  0  0  0  0  0
    3.0009   -7.8730    4.9289 H   0  0  0  0  0  0  0  0  0  0  0  0
    0.6234   -8.4627    4.7387 H   0  0  0  0  0  0  0  0  0  0  0  0
    0.5961   -7.8650    3.1031 H   0  0  0  0  0  0  0  0  0  0  0  0
    2.7609  -11.4848    4.0703 H   0  0  0  0  0  0  0  0  0  0  0  0
    1.8772  -10.6140    5.3186 H   0  0  0  0  0  0  0  0  0  0  0  0
    3.4146  -10.0097    4.7365 H   0  0  0  0  0  0  0  0  0  0  0  0
    0.8096  -11.4884    2.5019 H   0  0  0  0  0  0  0  0  0  0  0  0
   -0.0511  -10.0086    2.1127 H   0  0  0  0  0  0  0  0  0  0  0  0
   -0.1598  -10.6913    3.7295 H   0  0  0  0  0  0  0  0  0  0  0  0
    3.0508  -10.3878    1.7436 H   0  0  0  0  0  0  0  0  0  0  0  0
    2.0379   -9.0631    1.2764 H   0  0  0  0  0  0  0  0  0  0  0  0
    4.4891   -8.9215    3.0773 H   0  0  0  0  0  0  0  0  0  0  0  0
    4.3663   -8.3020    1.4627 H   0  0  0  0  0  0  0  0  0  0  0  0
    3.2497   -6.1136    0.9839 H   0  0  0  0  0  0  0  0  0  0  0  0
    2.2384   -5.3241    2.1808 H   0  0  0  0  0  0  0  0  0  0  0  0
    1.7152   -6.8228    1.4455 H   0  0  0  0  0  0  0  0  0  0  0  0
    5.2080   -6.9137    3.9979 H   0  0  0  0  0  0  0  0  0  0  0  0
    5.1452   -5.9854    2.5453 H   0  0  0  0  0  0  0  0  0  0  0  0
    5.1600   -4.5942    4.5717 H   0  0  0  0  0  0  0  0  0  0  0  0
    3.7924   -4.2644    3.5464 H   0  0  0  0  0  0  0  0  0  0  0  0
    4.7213   -5.5207    7.0460 H   0  0  0  0  0  0  0  0  0  0  0  0
    4.5567   -6.9160    6.0422 H   0  0  0  0  0  0  0  0  0  0  0  0
    3.3081   -6.5688    7.1904 H   0  0  0  0  0  0  0  0  0  0  0  0
    5.0967   -1.2525    4.2982 H   0  0  0  0  0  0  0  0  0  0  0  0
    4.5694   -0.5781    2.7926 H   0  0  0  0  0  0  0  0  0  0  0  0
    3.7271   -1.9654    3.4426 H   0  0  0  0  0  0  0  0  0  0  0  0
    5.0882    0.7587    5.3991 H   0  0  0  0  0  0  0  0  0  0  0  0
    3.7142    1.8056    5.6145 H   0  0  0  0  0  0  0  0  0  0  0  0
    4.4799    1.6994    4.0506 H   0  0  0  0  0  0  0  0  0  0  0  0
  1  2  2  0
  1 34  1  0
  1 35  1  0
  2  3  1  0
  2  4  1  0
  3 36  1  0
  3 37  1  0
  3 38  1  0
  4 31  1  0
  4  5  1  0
  4 39  1  6
  5  6  1  0
  5 40  1  0
  5 41  1  0
  6  7  1  0
  6 42  1  0
  6 43  1  0
  7 14  1  0
  7  8  1  1
  7  9  1  0
  8 44  1  0
  8 45  1  0
  8 46  1  0
  9 10  1  0
  9 31  1  0
  9 47  1  1
 10 11  1  0
 10 48  1  0
 10 49  1  0
 11 12  1  0
 11 50  1  0
 11 51  1  0
 12 29  1  0
 12 13  1  1
 12 14  1  0
 13 52  1  0
 13 53  1  0
 13 54  1  0
 14 15  1  0
 14 55  1  6
 15 16  1  0
 15 56  1  0
 15 57  1  0
 16 17  2  0
 16 58  1  0
 17 29  1  0
 17 18  1  0
 18 25  1  0
 18 19  1  0
 18 59  1  1
 19 20  1  0
 19 60  1  0
 19 61  1  0
 20 21  1  0
 20 22  1  0
 20 23  1  0
 21 62  1  0
 21 63  1  0
 21 64  1  0
 22 65  1  0
 22 66  1  0
 22 67  1  0
 23 24  1  0
 23 68  1  0
 23 69  1  0
 24 25  1  0
 24 70  1  0
 24 71  1  0
 25 26  1  6
 25 27  1  0
 26 72  1  0
 26 73  1  0
 26 74  1  0
 27 28  1  0
 27 75  1  0
 27 76  1  0
 28 29  1  0
 28 77  1  0
 28 78  1  0
 29 30  1  1
 30 79  1  0
 30 80  1  0
 30 81  1  0
 31 32  1  0
 31 33  1  0
 32 82  1  0
 32 83  1  0
 32 84  1  0
 33 85  1  0
 33 86  1  0
 33 87  1  0
M  END
>  <i_m_ct_stereo_status>  (261) 
1

>  <s_m_source_file>  (261) 
/var/tmp/pbs.5076255.sched01/tmp8hdfbsd6/1003312lgh9.sdf

>  <i_m_source_file_index>  (261) 
3

>  <i_lp_mmshare_version>  (261) 
48012

>  <i_f3d_flags>  (261) 
0

>  <s_epik_input>  (261) 
W0NIMl09QyhbQ0gzXSlbQ0BIXShbQ0gyXVtDSDJdMSlDKFtDSDNdKShbQ0gzXSlbQ0BASF0oW0NAQF0xMltDSDNdKVtDSDJdW0NIMl1bQ0BAXTMoW0NIM10pW0NASF0yW0NIMl1bQ0hdPUM0W0NAQEhdNVtDQF0oW0NIM10pKFtDSDJdW0NIMl1DKFtDSDJdNSkoW0NIM10pW0NIM10pW0NIMl1bQ0gyXVtDQEBdMzRbQ0gzXQ==

>  <s_epik_cmdline>  (261) 
J2VwaWtfcHl0aG9uJywgJy1waHQnLCAnMi4wJywgJy1waCcsICc3LjAnLCAnLXRuJywgJzgnLCAnLW1hJywgJzIwMCcsICctaW1hZScsICc8aW5maWxlLm1hZT4nLCAnLW9tYWUnLCAnPG91dGZpbGUubWFlPic=

>  <r_lp_tautomer_probability>  (261) 
1

>  <r_epik_Ionization_Penalty>  (261) 
0

>  <r_epik_Ionization_Penalty_Charging>  (261) 
0

>  <r_epik_Ionization_Penalty_Neutral>  (261) 
0

>  <r_epik_State_Penalty>  (261) 
-0

>  <r_epik_Charging_Adjusted_Penalty>  (261) 
0

>  <i_epik_Tot_Q>  (261) 
0

>  <i_epik_Tot_abs_Q>  (261) 
0

>  <s_lp_Force_Field>  (261) 
OPLS3e

>  <r_lp_Energy>  (261) 
103.133

>  <b_lp_Chiralities_Consistent>  (261) 
1

>  <s_lp_Variant>  (261) 
61:0-1

>  <s_i_glide_gridfile>  (261) 
pfpi4k_grid

>  <i_i_glide_lignum>  (261) 
3

>  <i_i_glide_rotatable_bonds>  (261) 
1

>  <r_i_docking_score>  (261) 
-1.68511

>  <r_i_glide_ligand_efficiency>  (261) 
-0.0510638

>  <r_i_glide_ligand_efficiency_sa>  (261) 
-0.163789

>  <r_i_glide_ligand_efficiency_ln>  (261) 
-0.374759

>  <r_i_glide_gscore>  (261) 
-1.68511

>  <r_i_glide_lipo>  (261) 
-0.120418

>  <r_i_glide_hbond>  (261) 
0

>  <r_i_glide_metal>  (261) 
-0

>  <r_i_glide_rewards>  (261) 
-0.335578

>  <r_i_glide_evdw>  (261) 
-24.8455

>  <r_i_glide_ecoul>  (261) 
-0.570083

>  <r_i_glide_erotb>  (261) 
0.0986779

>  <r_i_glide_esite>  (261) 
0

>  <r_i_glide_emodel>  (261) 
-27.3065

>  <r_i_glide_energy>  (261) 
-25.4156

>  <r_i_glide_einternal>  (261) 
1.18096

>  <r_i_glide_intrahb_reward>  (261) 
-0

>  <i_i_glide_confnum>  (261) 
6

>  <i_i_glide_posenum>  (261) 
2

>  <r_i_glide_eff_state_penalty>  (261) 
0

>  <ligand_id>  (261) 
61

>  <original_smiles>  (261) 
C=C(C)C1CCC2(C)C(CCC3(C)C2CC=C2C4CC(C)(C)CCC4(C)CCC23C)C1(C)C

>  <smiles>  (261) 
[H]C([H])=C(C([H])([H])[H])C1([H])C([H])([H])C([H])([H])C2(C([H])([H])[H])C([H])(C([H])([H])C([H])([H])C3(C([H])([H])[H])C2([H])C([H])([H])C([H])=C2C4([H])C([H])([H])C(C([H])([H])[H])(C([H])([H])[H])C([H])([H])C([H])([H])C4(C([H])([H])[H])C([H])([H])C([H])([H])C23C([H])([H])[H])C1(C([H])([H])[H])C([H])([H])[H]

$$$$
62:0:0
     RDKit          3D

 62 68  0  0  1  0  0  0  0  0999 V2000
    6.5384    0.0909    3.6521 C   0  0  0  0  0  0  0  0  0  0  0  0
    5.3654    0.1059    2.8304 O   0  0  0  0  0  0  0  0  0  0  0  0
    4.4706   -1.0197    2.9189 C   0  0  1  0  0  0  0  0  0  0  0  0
    5.2967   -2.0503    2.0002 C   0  0  0  0  0  0  0  0  0  0  0  0
    4.5578   -3.0952    1.1122 C   0  0  0  0  0  0  0  0  0  0  0  0
    3.0398   -2.9080    1.0556 C   0  0  1  0  0  0  0  0  0  0  0  0
    2.4884   -4.1817    0.7443 O   0  0  0  0  0  0  0  0  0  0  0  0
    2.5818   -2.3408    2.3949 C   0  0  1  0  0  0  0  0  0  0  0  0
    1.1737   -2.7458    2.9211 C   0  0  0  0  0  0  0  0  0  0  0  0
    1.8212   -2.7272    4.2854 C   0  0  2  0  0  0  0  0  0  0  0  0
    2.2914   -1.4307    4.8722 C   0  0  2  0  0  0  0  0  0  0  0  0
    1.1722   -0.3137    4.7893 C   0  0  0  0  0  0  0  0  0  0  0  0
    1.1778    0.6911    3.6019 C   0  0  1  0  0  0  0  0  0  0  0  0
    0.1853    0.3835    2.4036 C   0  0  0  0  0  0  0  0  0  0  0  0
    0.4111    1.2913    1.3589 O   0  0  0  0  0  0  0  0  0  0  0  0
    0.8349    2.1460    4.1580 C   0  0  0  0  0  0  0  0  0  0  0  0
   -0.6261    2.4847    4.3951 C   0  0  0  0  0  0  0  0  0  0  0  0
   -1.4665    2.8679    3.2992 C   0  0  0  0  0  0  0  0  0  0  0  0
   -2.8356    3.0561    3.4835 C   0  0  0  0  0  0  0  0  0  0  0  0
   -3.3247    2.9648    4.7725 C   0  0  0  0  0  0  0  0  0  0  0  0
   -2.5346    2.6964    5.8921 C   0  0  0  0  0  0  0  0  0  0  0  0
   -1.1793    2.4292    5.6956 C   0  0  0  0  0  0  0  0  0  0  0  0
    2.6501    0.5779    3.1546 C   0  0  1  0  0  0  0  0  0  0  0  0
    3.5890    0.9839    4.4296 C   0  0  0  0  0  0  0  0  0  0  0  0
    4.1561   -0.1275    5.1803 O   0  0  0  0  0  0  0  0  0  0  0  0
    3.8816   -1.2805    4.4234 C   0  0  2  0  0  0  0  0  0  0  0  0
    4.1999   -2.7446    4.6159 C   0  0  0  0  0  0  0  0  0  0  0  0
    3.0695   -3.2444    3.6786 C   0  0  2  0  0  0  0  0  0  0  0  0
    3.1407   -4.6524    3.5957 O   0  0  0  0  0  0  0  0  0  0  0  0
    3.1216   -0.7733    2.3351 C   0  0  1  0  0  0  0  0  0  0  0  0
    6.9775    1.0752    3.7942 H   0  0  0  0  0  0  0  0  0  0  0  0
    7.2602   -0.4866    3.0895 H   0  0  0  0  0  0  0  0  0  0  0  0
    6.4257   -0.2816    4.6744 H   0  0  0  0  0  0  0  0  0  0  0  0
    5.8675   -1.4532    1.2848 H   0  0  0  0  0  0  0  0  0  0  0  0
    6.0903   -2.5590    2.5369 H   0  0  0  0  0  0  0  0  0  0  0  0
    4.9560   -3.0592    0.0950 H   0  0  0  0  0  0  0  0  0  0  0  0
    4.8016   -4.1090    1.4591 H   0  0  0  0  0  0  0  0  0  0  0  0
    2.7801   -2.2362    0.2343 H   0  0  0  0  0  0  0  0  0  0  0  0
    2.7570   -4.4295   -0.1310 H   0  0  0  0  0  0  0  0  0  0  0  0
    0.3025   -2.0985    2.9698 H   0  0  0  0  0  0  0  0  0  0  0  0
    0.9442   -3.7946    2.6669 H   0  0  0  0  0  0  0  0  0  0  0  0
    1.3256   -3.4011    4.9754 H   0  0  0  0  0  0  0  0  0  0  0  0
    2.3441   -1.5979    5.9525 H   0  0  0  0  0  0  0  0  0  0  0  0
    0.1826   -0.7534    4.8815 H   0  0  0  0  0  0  0  0  0  0  0  0
    1.2760    0.2557    5.7196 H   0  0  0  0  0  0  0  0  0  0  0  0
    0.3275   -0.5179    1.7963 H   0  0  0  0  0  0  0  0  0  0  0  0
   -0.8588    0.3794    2.7741 H   0  0  0  0  0  0  0  0  0  0  0  0
   -0.1443    1.0266    0.6237 H   0  0  0  0  0  0  0  0  0  0  0  0
    1.3152    2.3651    5.1154 H   0  0  0  0  0  0  0  0  0  0  0  0
    1.2051    2.9090    3.4660 H   0  0  0  0  0  0  0  0  0  0  0  0
   -1.0963    2.9708    2.2833 H   0  0  0  0  0  0  0  0  0  0  0  0
   -3.4961    3.2109    2.6395 H   0  0  0  0  0  0  0  0  0  0  0  0
   -4.4021    3.1243    4.9309 H   0  0  0  0  0  0  0  0  0  0  0  0
   -2.9888    2.6644    6.8836 H   0  0  0  0  0  0  0  0  0  0  0  0
   -0.5516    2.1516    6.5551 H   0  0  0  0  0  0  0  0  0  0  0  0
    2.8217    1.3924    2.4492 H   0  0  0  0  0  0  0  0  0  0  0  0
    4.3851    1.6554    4.1049 H   0  0  0  0  0  0  0  0  0  0  0  0
    3.1261    1.6169    5.1661 H   0  0  0  0  0  0  0  0  0  0  0  0
    5.2089   -3.0693    4.3472 H   0  0  0  0  0  0  0  0  0  0  0  0
    4.0315   -3.0778    5.6447 H   0  0  0  0  0  0  0  0  0  0  0  0
    2.4557   -4.8955    2.9915 H   0  0  0  0  0  0  0  0  0  0  0  0
    3.2617   -0.4533    1.3048 H   0  0  0  0  0  0  0  0  0  0  0  0
  1  2  1  0
  1 31  1  0
  1 32  1  0
  1 33  1  0
  3  2  1  1
  3 26  1  0
  3 30  1  0
  3  4  1  0
  4  5  1  0
  4 34  1  0
  4 35  1  0
  5  6  1  0
  5 36  1  0
  5 37  1  0
  6  7  1  0
  6  8  1  0
  6 38  1  6
  7 39  1  0
  8 28  1  0
  8 30  1  0
  8  9  1  6
  9 10  1  0
  9 40  1  0
  9 41  1  0
 10 28  1  0
 10 11  1  0
 10 42  1  1
 11 26  1  0
 11 12  1  0
 11 43  1  1
 12 13  1  0
 12 44  1  0
 12 45  1  0
 13 14  1  6
 13 16  1  0
 13 23  1  0
 14 15  1  0
 14 46  1  0
 14 47  1  0
 15 48  1  0
 16 17  1  0
 16 49  1  0
 16 50  1  0
 17 22  1  0
 17 18  2  0
 18 19  1  0
 18 51  1  0
 19 20  2  0
 19 52  1  0
 20 21  1  0
 20 53  1  0
 21 22  2  0
 21 54  1  0
 22 55  1  0
 23 24  1  0
 23 30  1  0
 23 56  1  6
 24 25  1  0
 24 57  1  0
 24 58  1  0
 25 26  1  0
 26 27  1  1
 27 28  1  0
 27 59  1  0
 27 60  1  0
 28 29  1  6
 29 61  1  0
 30 62  1  6
M  END
>  <i_m_ct_stereo_status>  (262) 
1

>  <s_m_source_file>  (262) 
/var/tmp/pbs.5076255.sched01/tmp8hdfbsd6/1003312lgh9.sdf

>  <i_m_source_file_index>  (262) 
4

>  <i_lp_mmshare_version>  (262) 
48012

>  <i_f3d_flags>  (262) 
0

>  <s_epik_input>  (262) 
W0NAXTEyM1tDQF00KFtPSF0pW0NASF0oW0NIMl0yKVtDQEhdNVtDQEBdNihbQ0gyXTQpW0NAQF0oT1tDSDNdKShbQ0gyXVtDSDJdW0NASF0xW09IXSlbQ0BASF0zW0NASF0oW0NIMl1PNilbQ0BdKFtDSDJdNSkoW0NIMl1bT0hdKVtDSDJdYzdbY0hdW2NIXVtjSF1bY0hdW2NIXTc=

>  <s_epik_cmdline>  (262) 
J2VwaWtfcHl0aG9uJywgJy1waHQnLCAnMi4wJywgJy1waCcsICc3LjAnLCAnLXRuJywgJzgnLCAnLW1hJywgJzIwMCcsICctaW1hZScsICc8aW5maWxlLm1hZT4nLCAnLW9tYWUnLCAnPG91dGZpbGUubWFlPic=

>  <r_lp_tautomer_probability>  (262) 
1

>  <r_epik_Ionization_Penalty>  (262) 
1.57526e-06

>  <r_epik_Ionization_Penalty_Charging>  (262) 
0

>  <r_epik_Ionization_Penalty_Neutral>  (262) 
1.57526e-06

>  <r_epik_State_Penalty>  (262) 
-0

>  <r_epik_Charging_Adjusted_Penalty>  (262) 
0

>  <i_epik_Tot_Q>  (262) 
0

>  <i_epik_Tot_abs_Q>  (262) 
0

>  <s_lp_Force_Field>  (262) 
OPLS3e

>  <r_lp_Energy>  (262) 
228.627

>  <b_lp_Chiralities_Consistent>  (262) 
1

>  <s_lp_Variant>  (262) 
62:0-1

>  <s_i_glide_gridfile>  (262) 
pfpi4k_grid

>  <i_i_glide_lignum>  (262) 
4

>  <i_i_glide_rotatable_bonds>  (262) 
7

>  <r_i_docking_score>  (262) 
-2.16433

>  <r_i_glide_ligand_efficiency>  (262) 
-0.0721445

>  <r_i_glide_ligand_efficiency_sa>  (262) 
-0.22417

>  <r_i_glide_ligand_efficiency_ln>  (262) 
-0.49176

>  <r_i_glide_gscore>  (262) 
-2.16433

>  <r_i_glide_lipo>  (262) 
-0.324617

>  <r_i_glide_hbond>  (262) 
-0.316158

>  <r_i_glide_metal>  (262) 
-0

>  <r_i_glide_rewards>  (262) 
-1.09646

>  <r_i_glide_evdw>  (262) 
-6.23031

>  <r_i_glide_ecoul>  (262) 
-5.0313

>  <r_i_glide_erotb>  (262) 
0.347644

>  <r_i_glide_esite>  (262) 
0

>  <r_i_glide_emodel>  (262) 
-10.5659

>  <r_i_glide_energy>  (262) 
-11.2616

>  <r_i_glide_einternal>  (262) 
2.78161

>  <r_i_glide_intrahb_reward>  (262) 
-0.5

>  <i_i_glide_confnum>  (262) 
5

>  <i_i_glide_posenum>  (262) 
8

>  <r_i_glide_eff_state_penalty>  (262) 
0

>  <ligand_id>  (262) 
62

>  <original_smiles>  (262) 
COC12CCC(O)C34CC5C6CC(CO)(Cc7ccccc7)C(COC61CC53O)C24

>  <smiles>  (262) 
[H]OC([H])([H])C1(C([H])([H])c2c([H])c([H])c([H])c([H])c2[H])C([H])([H])C2([H])C3([H])C([H])([H])C45C([H])(O[H])C([H])([H])C([H])([H])C6(OC([H])([H])[H])C4([H])C1([H])C([H])([H])OC26C([H])([H])C35O[H]

$$$$
63:0:0
     RDKit          3D

 34 36  0  0  1  0  0  0  0  0999 V2000
    7.1435   -8.6468    1.0383 C   0  0  0  0  0  0  0  0  0  0  0  0
    6.4465   -7.5274    1.2958 C   0  0  0  0  0  0  0  0  0  0  0  0
    7.1491   -6.1829    1.3107 C   0  0  0  0  0  0  0  0  0  0  0  0
    5.0157   -7.5721    1.5505 C   0  0  0  0  0  0  0  0  0  0  0  0
    4.3469   -8.4814    2.2940 C   0  0  0  0  0  0  0  0  0  0  0  0
    4.8976   -9.5525    3.0033 N   0  0  0  0  0  0  0  0  0  0  0  0
    3.9035  -10.1566    3.5625 C   0  0  0  0  0  0  0  0  0  0  0  0
    2.6998   -9.5691    3.2445 N   0  0  0  0  0  0  0  0  0  0  0  0
    2.9198   -8.4415    2.4753 C   0  0  0  0  0  0  0  0  0  0  0  0
    2.0206   -7.5916    2.0776 N   0  0  0  0  0  0  0  0  0  0  0  0
    0.7134   -7.7707    2.6953 C   0  0  1  0  0  0  0  0  0  0  0  0
   -0.4640   -7.2815    1.8789 C   0  0  0  0  0  0  0  0  0  0  0  0
   -1.5793   -7.9314    2.4949 O   0  0  0  0  0  0  0  0  0  0  0  0
   -1.1270   -9.0541    3.2642 C   0  0  0  0  0  0  0  0  0  0  0  0
    0.3390   -9.2232    2.8771 C   0  0  2  0  0  0  0  0  0  0  0  0
    1.3753   -9.8639    3.8258 C   0  0  1  0  0  0  0  0  0  0  0  0
    1.1237  -11.3756    4.0176 C   0  0  0  0  0  0  0  0  0  0  0  0
    8.2007   -8.5925    0.8332 H   0  0  0  0  0  0  0  0  0  0  0  0
    6.6776   -9.6221    1.0177 H   0  0  0  0  0  0  0  0  0  0  0  0
    6.7404   -5.5423    0.5311 H   0  0  0  0  0  0  0  0  0  0  0  0
    8.2191   -6.2828    1.1353 H   0  0  0  0  0  0  0  0  0  0  0  0
    7.0083   -5.6971    2.2773 H   0  0  0  0  0  0  0  0  0  0  0  0
    4.4346   -6.7946    1.0652 H   0  0  0  0  0  0  0  0  0  0  0  0
    3.9358  -11.0324    4.2113 H   0  0  0  0  0  0  0  0  0  0  0  0
    0.6904   -7.2570    3.6590 H   0  0  0  0  0  0  0  0  0  0  0  0
   -0.5661   -6.2008    1.9124 H   0  0  0  0  0  0  0  0  0  0  0  0
   -0.3822   -7.5781    0.8318 H   0  0  0  0  0  0  0  0  0  0  0  0
   -1.2357   -8.8294    4.3253 H   0  0  0  0  0  0  0  0  0  0  0  0
   -1.7195   -9.9334    3.0270 H   0  0  0  0  0  0  0  0  0  0  0  0
    0.3821   -9.7341    1.9156 H   0  0  0  0  0  0  0  0  0  0  0  0
    1.3233   -9.3755    4.7990 H   0  0  0  0  0  0  0  0  0  0  0  0
    0.1228  -11.5556    4.4011 H   0  0  0  0  0  0  0  0  0  0  0  0
    1.8037  -11.8062    4.7529 H   0  0  0  0  0  0  0  0  0  0  0  0
    1.2288  -11.9431    3.0913 H   0  0  0  0  0  0  0  0  0  0  0  0
  1  2  2  0
  1 18  1  0
  1 19  1  0
  2  3  1  0
  2  4  1  0
  3 20  1  0
  3 21  1  0
  3 22  1  0
  4  5  2  3
  4 23  1  0
  5  9  1  0
  5  6  1  0
  6  7  2  0
  7  8  1  0
  7 24  1  0
  8 16  1  0
  8  9  1  0
  9 10  2  0
 10 11  1  0
 11 15  1  0
 11 12  1  0
 11 25  1  1
 12 13  1  0
 12 26  1  0
 12 27  1  0
 13 14  1  0
 14 15  1  0
 14 28  1  0
 14 29  1  0
 15 16  1  0
 15 30  1  6
 16 17  1  0
 16 31  1  1
 17 32  1  0
 17 33  1  0
 17 34  1  0
M  END
>  <i_m_ct_stereo_status>  (263) 
1

>  <s_m_source_file>  (263) 
/var/tmp/pbs.5076255.sched01/tmp8hdfbsd6/1003312lgh9.sdf

>  <i_m_source_file_index>  (263) 
5

>  <i_lp_mmshare_version>  (263) 
48012

>  <i_f3d_flags>  (263) 
0

>  <s_epik_input>  (263) 
W0NIMl09QyhbQ0gzXSkvW0NIXT1jKFxuW2NIXTEpYyhuMTIpPU5bQ0BASF0zW0NAQEhdKFtDQEhdMltDSDNdKVtDSDJdT1tDSDJdMw==

>  <s_epik_cmdline>  (263) 
J2VwaWtfcHl0aG9uJywgJy1waHQnLCAnMi4wJywgJy1waCcsICc3LjAnLCAnLXRuJywgJzgnLCAnLW1hJywgJzIwMCcsICctaW1hZScsICc8aW5maWxlLm1hZT4nLCAnLW9tYWUnLCAnPG91dGZpbGUubWFlPic=

>  <r_epik_Ionization_Penalty>  (263) 
0.0222442

>  <r_epik_Ionization_Penalty_Charging>  (263) 
0

>  <r_epik_Ionization_Penalty_Neutral>  (263) 
0.0222442

>  <r_epik_State_Penalty>  (263) 
0.0179081

>  <r_epik_Charging_Adjusted_Penalty>  (263) 
0.0179081

>  <i_epik_Tot_Q>  (263) 
0

>  <i_epik_Tot_abs_Q>  (263) 
0

>  <s_epik_Chemistry_Notes>  (263) 
This compound has an imine and may undergo hydrolysis.

>  <s_lp_Force_Field>  (263) 
OPLS3e

>  <r_lp_Energy>  (263) 
18.1167

>  <b_lp_Chiralities_Consistent>  (263) 
1

>  <s_lp_Variant>  (263) 
63:0-1

>  <s_i_glide_gridfile>  (263) 
pfpi4k_grid

>  <i_i_glide_lignum>  (263) 
5

>  <i_i_glide_rotatable_bonds>  (263) 
1

>  <r_i_docking_score>  (263) 
-3.36415

>  <r_i_glide_ligand_efficiency>  (263) 
-0.197891

>  <r_i_glide_ligand_efficiency_sa>  (263) 
-0.508833

>  <r_i_glide_ligand_efficiency_ln>  (263) 
-0.877631

>  <r_i_glide_gscore>  (263) 
-3.36415

>  <r_i_glide_lipo>  (263) 
-0.534068

>  <r_i_glide_hbond>  (263) 
0

>  <r_i_glide_metal>  (263) 
-0

>  <r_i_glide_rewards>  (263) 
-1.83209

>  <r_i_glide_evdw>  (263) 
-21.0513

>  <r_i_glide_ecoul>  (263) 
-1.60359

>  <r_i_glide_erotb>  (263) 
0.319734

>  <r_i_glide_esite>  (263) 
-0.0246194

>  <r_i_glide_emodel>  (263) 
-26.1063

>  <r_i_glide_energy>  (263) 
-22.6549

>  <r_i_glide_einternal>  (263) 
3.03797

>  <r_i_glide_intrahb_reward>  (263) 
-0

>  <i_i_glide_confnum>  (263) 
1

>  <i_i_glide_posenum>  (263) 
21

>  <r_i_glide_eff_state_penalty>  (263) 
0

>  <ligand_id>  (263) 
63

>  <original_smiles>  (263) 
C=C(C)C=c1ncn2c1=NC1COCC1C2C

>  <smiles>  (263) 
[H]C([H])=C(C([H])=c1nc([H])n2c1=NC1([H])C([H])([H])OC([H])([H])C1([H])C2([H])C([H])([H])[H])C([H])([H])[H]

$$$$
63:0:1
     RDKit          3D

 34 36  0  0  1  0  0  0  0  0999 V2000
    7.0178   -5.8645    0.5531 C   0  0  0  0  0  0  0  0  0  0  0  0
    6.5830   -6.8946    1.2964 C   0  0  0  0  0  0  0  0  0  0  0  0
    7.5960   -7.8481    1.8878 C   0  0  0  0  0  0  0  0  0  0  0  0
    5.1469   -7.0746    1.5037 C   0  0  0  0  0  0  0  0  0  0  0  0
    4.5459   -8.0584    2.2141 C   0  0  0  0  0  0  0  0  0  0  0  0
    5.1727   -9.0951    2.9134 N   0  0  0  0  0  0  0  0  0  0  0  0
    4.2357   -9.8069    3.4374 C   0  0  0  0  0  0  0  0  0  0  0  0
    2.9941   -9.3284    3.1004 N   0  0  0  0  0  0  0  0  0  0  0  0
    3.1202   -8.1660    2.3597 C   0  0  0  0  0  0  0  0  0  0  0  0
    2.1491   -7.4030    1.9556 N   0  0  0  0  0  0  0  0  0  0  0  0
    0.8543   -7.7343    2.5333 C   0  0  1  0  0  0  0  0  0  0  0  0
   -0.3459   -7.3401    1.7020 C   0  0  0  0  0  0  0  0  0  0  0  0
   -1.3977   -8.1289    2.2718 O   0  0  0  0  0  0  0  0  0  0  0  0
   -0.8499   -9.2243    3.0187 C   0  0  0  0  0  0  0  0  0  0  0  0
    0.6332   -9.2249    2.6648 C   0  0  2  0  0  0  0  0  0  0  0  0
    1.6971   -9.7734    3.6377 C   0  0  1  0  0  0  0  0  0  0  0  0
    1.6016  -11.3079    3.7965 C   0  0  0  0  0  0  0  0  0  0  0  0
    8.0756   -5.7180    0.3803 H   0  0  0  0  0  0  0  0  0  0  0  0
    6.3377   -5.1568    0.1028 H   0  0  0  0  0  0  0  0  0  0  0  0
    7.5403   -7.8278    2.9750 H   0  0  0  0  0  0  0  0  0  0  0  0
    8.6150   -7.5983    1.6124 H   0  0  0  0  0  0  0  0  0  0  0  0
    7.4126   -8.8611    1.5218 H   0  0  0  0  0  0  0  0  0  0  0  0
    4.5000   -6.3387    1.0274 H   0  0  0  0  0  0  0  0  0  0  0  0
    4.3418  -10.6915    4.0670 H   0  0  0  0  0  0  0  0  0  0  0  0
    0.7610   -7.2590    3.5103 H   0  0  0  0  0  0  0  0  0  0  0  0
   -0.5604   -6.2727    1.7569 H   0  0  0  0  0  0  0  0  0  0  0  0
   -0.2026   -7.5994    0.6511 H   0  0  0  0  0  0  0  0  0  0  0  0
   -1.0000   -9.0350    4.0822 H   0  0  0  0  0  0  0  0  0  0  0  0
   -1.3367  -10.1638    2.7604 H   0  0  0  0  0  0  0  0  0  0  0  0
    0.7688   -9.6992    1.6911 H   0  0  0  0  0  0  0  0  0  0  0  0
    1.5776   -9.3124    4.6188 H   0  0  0  0  0  0  0  0  0  0  0  0
    0.6115  -11.6009    4.1407 H   0  0  0  0  0  0  0  0  0  0  0  0
    2.3064  -11.6815    4.5401 H   0  0  0  0  0  0  0  0  0  0  0  0
    1.8003  -11.8416    2.8686 H   0  0  0  0  0  0  0  0  0  0  0  0
  1  2  2  0
  1 18  1  0
  1 19  1  0
  2  3  1  0
  2  4  1  0
  3 20  1  0
  3 21  1  0
  3 22  1  0
  4  5  2  3
  4 23  1  0
  5  9  1  0
  5  6  1  0
  6  7  2  0
  7  8  1  0
  7 24  1  0
  8 16  1  0
  8  9  1  0
  9 10  2  0
 10 11  1  0
 11 15  1  0
 11 12  1  0
 11 25  1  1
 12 13  1  0
 12 26  1  0
 12 27  1  0
 13 14  1  0
 14 15  1  0
 14 28  1  0
 14 29  1  0
 15 16  1  0
 15 30  1  6
 16 17  1  0
 16 31  1  1
 17 32  1  0
 17 33  1  0
 17 34  1  0
M  END
>  <i_m_ct_stereo_status>  (264) 
1

>  <s_m_source_file>  (264) 
/var/tmp/pbs.5076255.sched01/tmp8hdfbsd6/1003312lgh9.sdf

>  <i_m_source_file_index>  (264) 
5

>  <i_lp_mmshare_version>  (264) 
48012

>  <i_f3d_flags>  (264) 
0

>  <s_epik_input>  (264) 
W0NIMl09QyhbQ0gzXSkvW0NIXT1jKFxuW2NIXTEpYyhuMTIpPU5bQ0BASF0zW0NAQEhdKFtDQEhdMltDSDNdKVtDSDJdT1tDSDJdMw==

>  <s_epik_cmdline>  (264) 
J2VwaWtfcHl0aG9uJywgJy1waHQnLCAnMi4wJywgJy1waCcsICc3LjAnLCAnLXRuJywgJzgnLCAnLW1hJywgJzIwMCcsICctaW1hZScsICc8aW5maWxlLm1hZT4nLCAnLW9tYWUnLCAnPG91dGZpbGUubWFlPic=

>  <r_epik_Ionization_Penalty>  (264) 
0.0222442

>  <r_epik_Ionization_Penalty_Charging>  (264) 
0

>  <r_epik_Ionization_Penalty_Neutral>  (264) 
0.0222442

>  <r_epik_State_Penalty>  (264) 
0.0179081

>  <r_epik_Charging_Adjusted_Penalty>  (264) 
0.0179081

>  <i_epik_Tot_Q>  (264) 
0

>  <i_epik_Tot_abs_Q>  (264) 
0

>  <s_epik_Chemistry_Notes>  (264) 
This compound has an imine and may undergo hydrolysis.

>  <s_lp_Force_Field>  (264) 
OPLS3e

>  <r_lp_Energy>  (264) 
18.1167

>  <b_lp_Chiralities_Consistent>  (264) 
1

>  <s_lp_Variant>  (264) 
63:0-1

>  <s_i_glide_gridfile>  (264) 
pfpi4k_grid

>  <i_i_glide_lignum>  (264) 
5

>  <i_i_glide_rotatable_bonds>  (264) 
1

>  <r_i_docking_score>  (264) 
-3.16484

>  <r_i_glide_ligand_efficiency>  (264) 
-0.186167

>  <r_i_glide_ligand_efficiency_sa>  (264) 
-0.478688

>  <r_i_glide_ligand_efficiency_ln>  (264) 
-0.825636

>  <r_i_glide_gscore>  (264) 
-3.16484

>  <r_i_glide_lipo>  (264) 
-0.355145

>  <r_i_glide_hbond>  (264) 
0

>  <r_i_glide_metal>  (264) 
-0

>  <r_i_glide_rewards>  (264) 
-1.83209

>  <r_i_glide_evdw>  (264) 
-20.9734

>  <r_i_glide_ecoul>  (264) 
-1.49424

>  <r_i_glide_erotb>  (264) 
0.319734

>  <r_i_glide_esite>  (264) 
-0.0245319

>  <r_i_glide_emodel>  (264) 
-27.1248

>  <r_i_glide_energy>  (264) 
-22.4677

>  <r_i_glide_einternal>  (264) 
0.00267107

>  <r_i_glide_intrahb_reward>  (264) 
-0

>  <i_i_glide_confnum>  (264) 
1

>  <i_i_glide_posenum>  (264) 
2

>  <r_i_glide_eff_state_penalty>  (264) 
0

>  <ligand_id>  (264) 
63

>  <original_smiles>  (264) 
C=C(C)C=c1ncn2c1=NC1COCC1C2C

>  <smiles>  (264) 
[H]C([H])=C(C([H])=c1nc([H])n2c1=NC1([H])C([H])([H])OC([H])([H])C1([H])C2([H])C([H])([H])[H])C([H])([H])[H]

$$$$
63:0:2
     RDKit          3D

 34 36  0  0  1  0  0  0  0  0999 V2000
    2.4579   -2.3258    1.5138 C   0  0  0  0  0  0  0  0  0  0  0  0
    2.4016   -3.6535    1.3404 C   0  0  0  0  0  0  0  0  0  0  0  0
    2.6884   -4.2169   -0.0439 C   0  0  0  0  0  0  0  0  0  0  0  0
    2.0609   -4.5034    2.4867 C   0  0  0  0  0  0  0  0  0  0  0  0
    1.8185   -5.8314    2.4689 C   0  0  0  0  0  0  0  0  0  0  0  0
    1.8451   -6.6728    1.3498 N   0  0  0  0  0  0  0  0  0  0  0  0
    1.5815   -7.8570    1.7834 C   0  0  0  0  0  0  0  0  0  0  0  0
    1.3175   -7.8664    3.1262 N   0  0  0  0  0  0  0  0  0  0  0  0
    1.5038   -6.5979    3.6430 C   0  0  0  0  0  0  0  0  0  0  0  0
    1.4106   -6.2628    4.8987 N   0  0  0  0  0  0  0  0  0  0  0  0
    1.2987   -7.3952    5.8079 C   0  0  1  0  0  0  0  0  0  0  0  0
    0.6194   -7.1083    7.1333 C   0  0  0  0  0  0  0  0  0  0  0  0
    0.2310   -8.4143    7.5958 O   0  0  0  0  0  0  0  0  0  0  0  0
    0.2976   -9.3627    6.5186 C   0  0  0  0  0  0  0  0  0  0  0  0
    0.4157   -8.4962    5.2682 C   0  0  2  0  0  0  0  0  0  0  0  0
    1.0861   -9.0331    3.9864 C   0  0  1  0  0  0  0  0  0  0  0  0
    0.2295  -10.1116    3.2975 C   0  0  0  0  0  0  0  0  0  0  0  0
    2.6888   -1.6746    0.6845 H   0  0  0  0  0  0  0  0  0  0  0  0
    2.2661   -1.8623    2.4704 H   0  0  0  0  0  0  0  0  0  0  0  0
    3.5470   -4.8833    0.0097 H   0  0  0  0  0  0  0  0  0  0  0  0
    2.9136   -3.4445   -0.7781 H   0  0  0  0  0  0  0  0  0  0  0  0
    1.8254   -4.7523   -0.4342 H   0  0  0  0  0  0  0  0  0  0  0  0
    1.9989   -3.9978    3.4554 H   0  0  0  0  0  0  0  0  0  0  0  0
    1.5312   -8.7778    1.2078 H   0  0  0  0  0  0  0  0  0  0  0  0
    2.2921   -7.7968    6.0228 H   0  0  0  0  0  0  0  0  0  0  0  0
    1.2715   -6.5806    7.8378 H   0  0  0  0  0  0  0  0  0  0  0  0
   -0.2719   -6.4964    6.9734 H   0  0  0  0  0  0  0  0  0  0  0  0
    1.1825   -9.9899    6.6477 H   0  0  0  0  0  0  0  0  0  0  0  0
   -0.5873   -9.9986    6.5134 H   0  0  0  0  0  0  0  0  0  0  0  0
   -0.5670   -8.0856    5.0223 H   0  0  0  0  0  0  0  0  0  0  0  0
    2.0697   -9.4457    4.2177 H   0  0  0  0  0  0  0  0  0  0  0  0
    0.0525  -10.9342    3.9885 H   0  0  0  0  0  0  0  0  0  0  0  0
    0.7288  -10.5468    2.4256 H   0  0  0  0  0  0  0  0  0  0  0  0
   -0.7489   -9.7387    2.9752 H   0  0  0  0  0  0  0  0  0  0  0  0
  1  2  2  0
  1 18  1  0
  1 19  1  0
  2  3  1  0
  2  4  1  0
  3 20  1  0
  3 21  1  0
  3 22  1  0
  4  5  2  3
  4 23  1  0
  5  9  1  0
  5  6  1  0
  6  7  2  0
  7  8  1  0
  7 24  1  0
  8 16  1  0
  8  9  1  0
  9 10  2  0
 10 11  1  0
 11 15  1  0
 11 12  1  0
 11 25  1  1
 12 13  1  0
 12 26  1  0
 12 27  1  0
 13 14  1  0
 14 15  1  0
 14 28  1  0
 14 29  1  0
 15 16  1  0
 15 30  1  6
 16 17  1  0
 16 31  1  1
 17 32  1  0
 17 33  1  0
 17 34  1  0
M  END
>  <i_m_ct_stereo_status>  (265) 
1

>  <s_m_source_file>  (265) 
/var/tmp/pbs.5076255.sched01/tmp8hdfbsd6/1003312lgh9.sdf

>  <i_m_source_file_index>  (265) 
5

>  <i_lp_mmshare_version>  (265) 
48012

>  <i_f3d_flags>  (265) 
0

>  <s_epik_input>  (265) 
W0NIMl09QyhbQ0gzXSkvW0NIXT1jKFxuW2NIXTEpYyhuMTIpPU5bQ0BASF0zW0NAQEhdKFtDQEhdMltDSDNdKVtDSDJdT1tDSDJdMw==

>  <s_epik_cmdline>  (265) 
J2VwaWtfcHl0aG9uJywgJy1waHQnLCAnMi4wJywgJy1waCcsICc3LjAnLCAnLXRuJywgJzgnLCAnLW1hJywgJzIwMCcsICctaW1hZScsICc8aW5maWxlLm1hZT4nLCAnLW9tYWUnLCAnPG91dGZpbGUubWFlPic=

>  <r_epik_Ionization_Penalty>  (265) 
0.0222442

>  <r_epik_Ionization_Penalty_Charging>  (265) 
0

>  <r_epik_Ionization_Penalty_Neutral>  (265) 
0.0222442

>  <r_epik_State_Penalty>  (265) 
0.0179081

>  <r_epik_Charging_Adjusted_Penalty>  (265) 
0.0179081

>  <i_epik_Tot_Q>  (265) 
0

>  <i_epik_Tot_abs_Q>  (265) 
0

>  <s_epik_Chemistry_Notes>  (265) 
This compound has an imine and may undergo hydrolysis.

>  <s_lp_Force_Field>  (265) 
OPLS3e

>  <r_lp_Energy>  (265) 
18.1167

>  <b_lp_Chiralities_Consistent>  (265) 
1

>  <s_lp_Variant>  (265) 
63:0-1

>  <s_i_glide_gridfile>  (265) 
pfpi4k_grid

>  <i_i_glide_lignum>  (265) 
5

>  <i_i_glide_rotatable_bonds>  (265) 
1

>  <r_i_docking_score>  (265) 
-2.80591

>  <r_i_glide_ligand_efficiency>  (265) 
-0.165053

>  <r_i_glide_ligand_efficiency_sa>  (265) 
-0.424399

>  <r_i_glide_ligand_efficiency_ln>  (265) 
-0.731999

>  <r_i_glide_gscore>  (265) 
-2.80591

>  <r_i_glide_lipo>  (265) 
0

>  <r_i_glide_hbond>  (265) 
0

>  <r_i_glide_metal>  (265) 
-0

>  <r_i_glide_rewards>  (265) 
-1.83209

>  <r_i_glide_evdw>  (265) 
-17.9264

>  <r_i_glide_ecoul>  (265) 
-2.31904

>  <r_i_glide_erotb>  (265) 
0.319734

>  <r_i_glide_esite>  (265) 
-0.0493768

>  <r_i_glide_emodel>  (265) 
-24.2502

>  <r_i_glide_energy>  (265) 
-20.2454

>  <r_i_glide_einternal>  (265) 
0.201482

>  <r_i_glide_intrahb_reward>  (265) 
-0

>  <i_i_glide_confnum>  (265) 
1

>  <i_i_glide_posenum>  (265) 
1

>  <r_i_glide_eff_state_penalty>  (265) 
0

>  <ligand_id>  (265) 
63

>  <original_smiles>  (265) 
C=C(C)C=c1ncn2c1=NC1COCC1C2C

>  <smiles>  (265) 
[H]C([H])=C(C([H])=c1nc([H])n2c1=NC1([H])C([H])([H])OC([H])([H])C1([H])C2([H])C([H])([H])[H])C([H])([H])[H]

$$$$
63:1:0
     RDKit          3D

 34 36  0  0  1  0  0  0  0  0999 V2000
    5.0342   -0.5303   -1.7503 C   0  0  0  0  0  0  0  0  0  0  0  0
    3.9422   -1.0853   -2.3031 C   0  0  0  0  0  0  0  0  0  0  0  0
    3.4170   -0.4791   -3.5884 C   0  0  0  0  0  0  0  0  0  0  0  0
    3.2196   -2.2044   -1.6954 C   0  0  0  0  0  0  0  0  0  0  0  0
    3.6710   -3.2262   -0.9200 C   0  0  0  0  0  0  0  0  0  0  0  0
    2.8377   -4.1611   -0.3052 N   0  0  0  0  0  0  0  0  0  0  0  0
    3.5945   -4.9158    0.4261 C   0  0  0  0  0  0  0  0  0  0  0  0
    4.8983   -4.5038    0.3890 N   0  0  0  0  0  0  0  0  0  0  0  0
    5.0356   -3.4724   -0.5286 C   0  0  0  0  0  0  0  0  0  0  0  0
    6.1587   -2.9420   -0.8849 N   0  0  0  0  0  0  0  0  0  0  0  0
    7.3713   -3.5273   -0.3660 C   0  0  1  0  0  0  0  0  0  0  0  0
    8.5611   -2.6270   -0.1706 C   0  0  0  0  0  0  0  0  0  0  0  0
    9.4111   -3.4481    0.6478 O   0  0  0  0  0  0  0  0  0  0  0  0
    8.6591   -4.5003    1.2817 C   0  0  0  0  0  0  0  0  0  0  0  0
    7.2032   -4.1098    1.0190 C   0  0  2  0  0  0  0  0  0  0  0  0
    6.0718   -5.1720    0.9765 C   0  0  1  0  0  0  0  0  0  0  0  0
    5.8024   -5.7989    2.3692 C   0  0  0  0  0  0  0  0  0  0  0  0
    5.5903    0.2032   -2.3138 H   0  0  0  0  0  0  0  0  0  0  0  0
    5.3652   -0.7951   -0.7523 H   0  0  0  0  0  0  0  0  0  0  0  0
    2.4286   -0.0522   -3.3936 H   0  0  0  0  0  0  0  0  0  0  0  0
    3.3404   -1.2064   -4.4031 H   0  0  0  0  0  0  0  0  0  0  0  0
    4.0341    0.3654   -3.9140 H   0  0  0  0  0  0  0  0  0  0  0  0
    2.1681   -2.2345   -1.8920 H   0  0  0  0  0  0  0  0  0  0  0  0
    3.2738   -5.7993    0.9821 H   0  0  0  0  0  0  0  0  0  0  0  0
    7.7524   -4.2551   -1.0717 H   0  0  0  0  0  0  0  0  0  0  0  0
    8.9936   -2.3675   -1.1346 H   0  0  0  0  0  0  0  0  0  0  0  0
    8.3011   -1.7088    0.3432 H   0  0  0  0  0  0  0  0  0  0  0  0
    8.9106   -5.4552    0.8131 H   0  0  0  0  0  0  0  0  0  0  0  0
    8.9079   -4.5674    2.3482 H   0  0  0  0  0  0  0  0  0  0  0  0
    6.9282   -3.3137    1.7197 H   0  0  0  0  0  0  0  0  0  0  0  0
    6.3585   -5.9671    0.2849 H   0  0  0  0  0  0  0  0  0  0  0  0
    6.7156   -6.2465    2.7696 H   0  0  0  0  0  0  0  0  0  0  0  0
    5.0600   -6.5950    2.2959 H   0  0  0  0  0  0  0  0  0  0  0  0
    5.4450   -5.0574    3.0875 H   0  0  0  0  0  0  0  0  0  0  0  0
  1  2  2  0
  1 18  1  0
  1 19  1  0
  2  3  1  0
  2  4  1  0
  3 20  1  0
  3 21  1  0
  3 22  1  0
  4  5  2  3
  4 23  1  0
  5  9  1  0
  5  6  1  0
  6  7  2  0
  7  8  1  0
  7 24  1  0
  8 16  1  0
  8  9  1  0
  9 10  2  0
 10 11  1  0
 11 15  1  0
 11 12  1  0
 11 25  1  6
 12 13  1  0
 12 26  1  0
 12 27  1  0
 13 14  1  0
 14 15  1  0
 14 28  1  0
 14 29  1  0
 15 16  1  0
 15 30  1  1
 16 17  1  0
 16 31  1  6
 17 32  1  0
 17 33  1  0
 17 34  1  0
M  END
>  <i_m_ct_stereo_status>  (266) 
1

>  <s_m_source_file>  (266) 
/var/tmp/pbs.5076255.sched01/tmp8hdfbsd6/1003312lgh9.sdf

>  <i_m_source_file_index>  (266) 
6

>  <i_lp_mmshare_version>  (266) 
48012

>  <i_f3d_flags>  (266) 
0

>  <s_epik_input>  (266) 
W0NIMl09QyhbQ0gzXSkvW0NIXT1jKFxuW2NIXTEpYyhuMTIpPU5bQ0BASF0zW0NAQEhdKFtDQEhdMltDSDNdKVtDSDJdT1tDSDJdMw==

>  <s_epik_cmdline>  (266) 
J2VwaWtfcHl0aG9uJywgJy1waHQnLCAnMi4wJywgJy1waCcsICc3LjAnLCAnLXRuJywgJzgnLCAnLW1hJywgJzIwMCcsICctaW1hZScsICc8aW5maWxlLm1hZT4nLCAnLW9tYWUnLCAnPG91dGZpbGUubWFlPic=

>  <r_epik_Ionization_Penalty>  (266) 
0.0222442

>  <r_epik_Ionization_Penalty_Charging>  (266) 
0

>  <r_epik_Ionization_Penalty_Neutral>  (266) 
0.0222442

>  <r_epik_State_Penalty>  (266) 
0.0179081

>  <r_epik_Charging_Adjusted_Penalty>  (266) 
0.0179081

>  <i_epik_Tot_Q>  (266) 
0

>  <i_epik_Tot_abs_Q>  (266) 
0

>  <s_epik_Chemistry_Notes>  (266) 
This compound has an imine and may undergo hydrolysis.

>  <s_lp_Force_Field>  (266) 
OPLS3e

>  <r_lp_Energy>  (266) 
21.0985

>  <b_lp_Chiralities_Consistent>  (266) 
1

>  <s_lp_Variant>  (266) 
63:0-2

>  <s_i_glide_gridfile>  (266) 
pfpi4k_grid

>  <i_i_glide_lignum>  (266) 
6

>  <i_i_glide_rotatable_bonds>  (266) 
1

>  <r_i_docking_score>  (266) 
-3.52893

>  <r_i_glide_ligand_efficiency>  (266) 
-0.207584

>  <r_i_glide_ligand_efficiency_sa>  (266) 
-0.533757

>  <r_i_glide_ligand_efficiency_ln>  (266) 
-0.920618

>  <r_i_glide_gscore>  (266) 
-3.52893

>  <r_i_glide_lipo>  (266) 
-0.705444

>  <r_i_glide_hbond>  (266) 
-0.0903499

>  <r_i_glide_metal>  (266) 
-0

>  <r_i_glide_rewards>  (266) 
-1.90359

>  <r_i_glide_evdw>  (266) 
-19.9022

>  <r_i_glide_ecoul>  (266) 
-0.993503

>  <r_i_glide_erotb>  (266) 
0.319734

>  <r_i_glide_esite>  (266) 
-0.00514088

>  <r_i_glide_emodel>  (266) 
-22.6804

>  <r_i_glide_energy>  (266) 
-20.8957

>  <r_i_glide_einternal>  (266) 
2.98384

>  <r_i_glide_intrahb_reward>  (266) 
-0

>  <i_i_glide_confnum>  (266) 
5

>  <i_i_glide_posenum>  (266) 
9

>  <r_i_glide_eff_state_penalty>  (266) 
0

>  <ligand_id>  (266) 
63

>  <original_smiles>  (266) 
C=C(C)C=c1ncn2c1=NC1COCC1C2C

>  <smiles>  (266) 
[H]C([H])=C(C([H])=c1nc([H])n2c1=NC1([H])C([H])([H])OC([H])([H])C1([H])C2([H])C([H])([H])[H])C([H])([H])[H]

$$$$
63:1:1
     RDKit          3D

 34 36  0  0  1  0  0  0  0  0999 V2000
    0.3007   -0.9153    8.5517 C   0  0  0  0  0  0  0  0  0  0  0  0
    0.3100   -2.1678    8.0519 C   0  0  0  0  0  0  0  0  0  0  0  0
   -0.1908   -3.3075    8.9203 C   0  0  0  0  0  0  0  0  0  0  0  0
    0.8443   -2.4907    6.7200 C   0  0  0  0  0  0  0  0  0  0  0  0
    0.6747   -1.8652    5.5272 C   0  0  0  0  0  0  0  0  0  0  0  0
    1.3432   -2.2415    4.3546 N   0  0  0  0  0  0  0  0  0  0  0  0
    1.0370   -1.3779    3.4473 C   0  0  0  0  0  0  0  0  0  0  0  0
    0.2227   -0.3947    3.9559 N   0  0  0  0  0  0  0  0  0  0  0  0
   -0.1183   -0.7047    5.2551 C   0  0  0  0  0  0  0  0  0  0  0  0
   -0.9648   -0.0400    5.9990 N   0  0  0  0  0  0  0  0  0  0  0  0
   -1.6908    1.0220    5.3135 C   0  0  1  0  0  0  0  0  0  0  0  0
   -2.1398    2.1978    6.1780 C   0  0  0  0  0  0  0  0  0  0  0  0
   -2.4473    3.2095    5.2061 O   0  0  0  0  0  0  0  0  0  0  0  0
   -1.8478    2.8758    3.9421 C   0  0  0  0  0  0  0  0  0  0  0  0
   -0.8627    1.7473    4.2733 C   0  0  2  0  0  0  0  0  0  0  0  0
   -0.4425    0.6950    3.2155 C   0  0  1  0  0  0  0  0  0  0  0  0
    0.4336    1.3136    2.1129 C   0  0  0  0  0  0  0  0  0  0  0  0
   -0.1326   -0.6797    9.5165 H   0  0  0  0  0  0  0  0  0  0  0  0
    0.7417   -0.0934    8.0014 H   0  0  0  0  0  0  0  0  0  0  0  0
    0.6335   -3.9855    9.1473 H   0  0  0  0  0  0  0  0  0  0  0  0
   -1.0027   -3.8558    8.4395 H   0  0  0  0  0  0  0  0  0  0  0  0
   -0.5533   -2.9236    9.8686 H   0  0  0  0  0  0  0  0  0  0  0  0
    1.5007   -3.3383    6.6774 H   0  0  0  0  0  0  0  0  0  0  0  0
    1.3573   -1.3862    2.4040 H   0  0  0  0  0  0  0  0  0  0  0  0
   -2.5673    0.6065    4.8021 H   0  0  0  0  0  0  0  0  0  0  0  0
   -2.9777    1.9459    6.8290 H   0  0  0  0  0  0  0  0  0  0  0  0
   -1.3255    2.5409    6.8167 H   0  0  0  0  0  0  0  0  0  0  0  0
   -2.6304    2.5241    3.2653 H   0  0  0  0  0  0  0  0  0  0  0  0
   -1.3633    3.7509    3.5086 H   0  0  0  0  0  0  0  0  0  0  0  0
    0.0260    2.1845    4.7432 H   0  0  0  0  0  0  0  0  0  0  0  0
   -1.3412    0.2601    2.7760 H   0  0  0  0  0  0  0  0  0  0  0  0
   -0.1058    2.1291    1.6361 H   0  0  0  0  0  0  0  0  0  0  0  0
    0.6565    0.5897    1.3294 H   0  0  0  0  0  0  0  0  0  0  0  0
    1.3709    1.7121    2.5044 H   0  0  0  0  0  0  0  0  0  0  0  0
  1  2  2  0
  1 18  1  0
  1 19  1  0
  2  3  1  0
  2  4  1  0
  3 20  1  0
  3 21  1  0
  3 22  1  0
  4  5  2  3
  4 23  1  0
  5  9  1  0
  5  6  1  0
  6  7  2  0
  7  8  1  0
  7 24  1  0
  8 16  1  0
  8  9  1  0
  9 10  2  0
 10 11  1  0
 11 15  1  0
 11 12  1  0
 11 25  1  6
 12 13  1  0
 12 26  1  0
 12 27  1  0
 13 14  1  0
 14 15  1  0
 14 28  1  0
 14 29  1  0
 15 16  1  0
 15 30  1  1
 16 17  1  0
 16 31  1  6
 17 32  1  0
 17 33  1  0
 17 34  1  0
M  END
>  <i_m_ct_stereo_status>  (267) 
1

>  <s_m_source_file>  (267) 
/var/tmp/pbs.5076255.sched01/tmp8hdfbsd6/1003312lgh9.sdf

>  <i_m_source_file_index>  (267) 
6

>  <i_lp_mmshare_version>  (267) 
48012

>  <i_f3d_flags>  (267) 
0

>  <s_epik_input>  (267) 
W0NIMl09QyhbQ0gzXSkvW0NIXT1jKFxuW2NIXTEpYyhuMTIpPU5bQ0BASF0zW0NAQEhdKFtDQEhdMltDSDNdKVtDSDJdT1tDSDJdMw==

>  <s_epik_cmdline>  (267) 
J2VwaWtfcHl0aG9uJywgJy1waHQnLCAnMi4wJywgJy1waCcsICc3LjAnLCAnLXRuJywgJzgnLCAnLW1hJywgJzIwMCcsICctaW1hZScsICc8aW5maWxlLm1hZT4nLCAnLW9tYWUnLCAnPG91dGZpbGUubWFlPic=

>  <r_epik_Ionization_Penalty>  (267) 
0.0222442

>  <r_epik_Ionization_Penalty_Charging>  (267) 
0

>  <r_epik_Ionization_Penalty_Neutral>  (267) 
0.0222442

>  <r_epik_State_Penalty>  (267) 
0.0179081

>  <r_epik_Charging_Adjusted_Penalty>  (267) 
0.0179081

>  <i_epik_Tot_Q>  (267) 
0

>  <i_epik_Tot_abs_Q>  (267) 
0

>  <s_epik_Chemistry_Notes>  (267) 
This compound has an imine and may undergo hydrolysis.

>  <s_lp_Force_Field>  (267) 
OPLS3e

>  <r_lp_Energy>  (267) 
21.0985

>  <b_lp_Chiralities_Consistent>  (267) 
1

>  <s_lp_Variant>  (267) 
63:0-2

>  <s_i_glide_gridfile>  (267) 
pfpi4k_grid

>  <i_i_glide_lignum>  (267) 
6

>  <i_i_glide_rotatable_bonds>  (267) 
1

>  <r_i_docking_score>  (267) 
-3.07661

>  <r_i_glide_ligand_efficiency>  (267) 
-0.180977

>  <r_i_glide_ligand_efficiency_sa>  (267) 
-0.465343

>  <r_i_glide_ligand_efficiency_ln>  (267) 
-0.802619

>  <r_i_glide_gscore>  (267) 
-3.07661

>  <r_i_glide_lipo>  (267) 
-0.0232869

>  <r_i_glide_hbond>  (267) 
0

>  <r_i_glide_metal>  (267) 
-0

>  <r_i_glide_rewards>  (267) 
-1.83209

>  <r_i_glide_evdw>  (267) 
-17.7298

>  <r_i_glide_ecoul>  (267) 
-4.22036

>  <r_i_glide_erotb>  (267) 
0.319734

>  <r_i_glide_esite>  (267) 
-0.0214269

>  <r_i_glide_emodel>  (267) 
-24.4294

>  <r_i_glide_energy>  (267) 
-21.9501

>  <r_i_glide_einternal>  (267) 
3.05197

>  <r_i_glide_intrahb_reward>  (267) 
-0

>  <i_i_glide_confnum>  (267) 
5

>  <i_i_glide_posenum>  (267) 
14

>  <r_i_glide_eff_state_penalty>  (267) 
0

>  <ligand_id>  (267) 
63

>  <original_smiles>  (267) 
C=C(C)C=c1ncn2c1=NC1COCC1C2C

>  <smiles>  (267) 
[H]C([H])=C(C([H])=c1nc([H])n2c1=NC1([H])C([H])([H])OC([H])([H])C1([H])C2([H])C([H])([H])[H])C([H])([H])[H]

$$$$
63:1:2
     RDKit          3D

 34 36  0  0  1  0  0  0  0  0999 V2000
    1.1955   -1.7447    6.4454 C   0  0  0  0  0  0  0  0  0  0  0  0
    0.8946   -2.3631    5.2984 C   0  0  0  0  0  0  0  0  0  0  0  0
    0.7442   -3.8856    5.3010 C   0  0  0  0  0  0  0  0  0  0  0  0
    0.7390   -1.6391    4.0040 C   0  0  0  0  0  0  0  0  0  0  0  0
    0.2134   -0.4313    3.7459 C   0  0  0  0  0  0  0  0  0  0  0  0
    0.2432    0.1630    2.4764 N   0  0  0  0  0  0  0  0  0  0  0  0
   -0.2701    1.3326    2.5874 C   0  0  0  0  0  0  0  0  0  0  0  0
   -0.6090    1.5942    3.8937 N   0  0  0  0  0  0  0  0  0  0  0  0
   -0.4168    0.4636    4.6727 C   0  0  0  0  0  0  0  0  0  0  0  0
   -0.7440    0.3475    5.9204 N   0  0  0  0  0  0  0  0  0  0  0  0
   -1.4737    1.4491    6.5052 C   0  0  1  0  0  0  0  0  0  0  0  0
   -1.2677    1.7071    7.9841 C   0  0  0  0  0  0  0  0  0  0  0  0
   -1.7667    3.0370    8.1466 O   0  0  0  0  0  0  0  0  0  0  0  0
   -1.8263    3.7204    6.8984 C   0  0  0  0  0  0  0  0  0  0  0  0
   -1.0447    2.8112    5.9485 C   0  0  2  0  0  0  0  0  0  0  0  0
   -1.3083    2.7956    4.4212 C   0  0  1  0  0  0  0  0  0  0  0  0
   -0.8871    4.1045    3.7438 C   0  0  0  0  0  0  0  0  0  0  0  0
    1.2569   -2.3066    7.3774 H   0  0  0  0  0  0  0  0  0  0  0  0
    1.4015   -0.6803    6.4685 H   0  0  0  0  0  0  0  0  0  0  0  0
    1.5232   -4.3149    4.6829 H   0  0  0  0  0  0  0  0  0  0  0  0
   -0.2289   -4.2032    4.9223 H   0  0  0  0  0  0  0  0  0  0  0  0
    0.8747   -4.2750    6.3007 H   0  0  0  0  0  0  0  0  0  0  0  0
    1.1493   -2.1477    3.1607 H   0  0  0  0  0  0  0  0  0  0  0  0
   -0.4341    2.0587    1.7805 H   0  0  0  0  0  0  0  0  0  0  0  0
   -2.5695    1.3597    6.3329 H   0  0  0  0  0  0  0  0  0  0  0  0
   -1.7842    0.9810    8.5938 H   0  0  0  0  0  0  0  0  0  0  0  0
   -0.2155    1.6801    8.2375 H   0  0  0  0  0  0  0  0  0  0  0  0
   -2.8640    3.7805    6.5825 H   0  0  0  0  0  0  0  0  0  0  0  0
   -1.3951    4.7152    6.9767 H   0  0  0  0  0  0  0  0  0  0  0  0
    0.0221    2.9652    6.1239 H   0  0  0  0  0  0  0  0  0  0  0  0
   -2.3725    2.6224    4.2362 H   0  0  0  0  0  0  0  0  0  0  0  0
   -1.3982    4.9437    4.2115 H   0  0  0  0  0  0  0  0  0  0  0  0
   -1.1581    4.1059    2.6882 H   0  0  0  0  0  0  0  0  0  0  0  0
    0.1903    4.2848    3.8190 H   0  0  0  0  0  0  0  0  0  0  0  0
  1  2  2  0
  1 18  1  0
  1 19  1  0
  2  3  1  0
  2  4  1  0
  3 20  1  0
  3 21  1  0
  3 22  1  0
  4  5  2  3
  4 23  1  0
  5  9  1  0
  5  6  1  0
  6  7  2  0
  7  8  1  0
  7 24  1  0
  8 16  1  0
  8  9  1  0
  9 10  2  0
 10 11  1  0
 11 15  1  0
 11 12  1  0
 11 25  1  1
 12 13  1  0
 12 26  1  0
 12 27  1  0
 13 14  1  0
 14 15  1  0
 14 28  1  0
 14 29  1  0
 15 16  1  0
 15 30  1  6
 16 17  1  0
 16 31  1  1
 17 32  1  0
 17 33  1  0
 17 34  1  0
M  END
>  <i_m_ct_stereo_status>  (268) 
1

>  <s_m_source_file>  (268) 
/var/tmp/pbs.5076255.sched01/tmp8hdfbsd6/1003312lgh9.sdf

>  <i_m_source_file_index>  (268) 
6

>  <i_lp_mmshare_version>  (268) 
48012

>  <i_f3d_flags>  (268) 
0

>  <s_epik_input>  (268) 
W0NIMl09QyhbQ0gzXSkvW0NIXT1jKFxuW2NIXTEpYyhuMTIpPU5bQ0BASF0zW0NAQEhdKFtDQEhdMltDSDNdKVtDSDJdT1tDSDJdMw==

>  <s_epik_cmdline>  (268) 
J2VwaWtfcHl0aG9uJywgJy1waHQnLCAnMi4wJywgJy1waCcsICc3LjAnLCAnLXRuJywgJzgnLCAnLW1hJywgJzIwMCcsICctaW1hZScsICc8aW5maWxlLm1hZT4nLCAnLW9tYWUnLCAnPG91dGZpbGUubWFlPic=

>  <r_epik_Ionization_Penalty>  (268) 
0.0222442

>  <r_epik_Ionization_Penalty_Charging>  (268) 
0

>  <r_epik_Ionization_Penalty_Neutral>  (268) 
0.0222442

>  <r_epik_State_Penalty>  (268) 
0.0179081

>  <r_epik_Charging_Adjusted_Penalty>  (268) 
0.0179081

>  <i_epik_Tot_Q>  (268) 
0

>  <i_epik_Tot_abs_Q>  (268) 
0

>  <s_epik_Chemistry_Notes>  (268) 
This compound has an imine and may undergo hydrolysis.

>  <s_lp_Force_Field>  (268) 
OPLS3e

>  <r_lp_Energy>  (268) 
21.0985

>  <b_lp_Chiralities_Consistent>  (268) 
1

>  <s_lp_Variant>  (268) 
63:0-2

>  <s_i_glide_gridfile>  (268) 
pfpi4k_grid

>  <i_i_glide_lignum>  (268) 
6

>  <i_i_glide_rotatable_bonds>  (268) 
1

>  <r_i_docking_score>  (268) 
-2.48367

>  <r_i_glide_ligand_efficiency>  (268) 
-0.146098

>  <r_i_glide_ligand_efficiency_sa>  (268) 
-0.37566

>  <r_i_glide_ligand_efficiency_ln>  (268) 
-0.647935

>  <r_i_glide_gscore>  (268) 
-2.48367

>  <r_i_glide_lipo>  (268) 
-0.0555069

>  <r_i_glide_hbond>  (268) 
0

>  <r_i_glide_metal>  (268) 
-0

>  <r_i_glide_rewards>  (268) 
-1.83209

>  <r_i_glide_evdw>  (268) 
-17.3504

>  <r_i_glide_ecoul>  (268) 
0.212627

>  <r_i_glide_erotb>  (268) 
0.319734

>  <r_i_glide_esite>  (268) 
-0.0801851

>  <r_i_glide_emodel>  (268) 
-18.3203

>  <r_i_glide_energy>  (268) 
-17.1378

>  <r_i_glide_einternal>  (268) 
2.97019

>  <r_i_glide_intrahb_reward>  (268) 
-0

>  <i_i_glide_confnum>  (268) 
2

>  <i_i_glide_posenum>  (268) 
30

>  <r_i_glide_eff_state_penalty>  (268) 
0

>  <ligand_id>  (268) 
63

>  <original_smiles>  (268) 
C=C(C)C=c1ncn2c1=NC1COCC1C2C

>  <smiles>  (268) 
[H]C([H])=C(C([H])=c1nc([H])n2c1=NC1([H])C([H])([H])OC([H])([H])C1([H])C2([H])C([H])([H])[H])C([H])([H])[H]

$$$$
63:2:0
     RDKit          3D

 35 37  0  0  1  0  0  0  0  0999 V2000
    0.0978   -7.4352    1.3117 C   0  0  0  0  0  0  0  0  0  0  0  0
    0.9123   -6.4674    1.7646 C   0  0  0  0  0  0  0  0  0  0  0  0
    1.0745   -6.2937    3.2656 C   0  0  0  0  0  0  0  0  0  0  0  0
    1.6115   -5.6226    0.7990 C   0  0  0  0  0  0  0  0  0  0  0  0
    2.3650   -4.5319    1.0727 C   0  0  0  0  0  0  0  0  0  0  0  0
    2.6456   -3.9811    2.3264 N   0  0  0  0  0  0  0  0  0  0  0  0
    3.3618   -2.9074    2.2116 C   0  0  0  0  0  0  0  0  0  0  0  0
    3.5103   -2.6992    0.8452 N   0  0  0  0  0  0  0  0  0  0  0  0
    2.9673   -3.6942    0.1434 C   0  0  0  0  0  0  0  0  0  0  0  0
    3.0610   -3.8511   -1.1950 N   0  0  0  0  0  0  0  0  0  0  0  0
    3.9840   -2.9754   -1.9037 C   0  0  1  0  0  0  0  0  0  0  0  0
    3.6731   -2.6725   -3.3567 C   0  0  0  0  0  0  0  0  0  0  0  0
    4.3436   -1.4261   -3.5658 O   0  0  0  0  0  0  0  0  0  0  0  0
    4.6117   -0.7835   -2.3131 C   0  0  0  0  0  0  0  0  0  0  0  0
    3.8578   -1.6153   -1.2867 C   0  0  2  0  0  0  0  0  0  0  0  0
    4.2944   -1.6254    0.1985 C   0  0  1  0  0  0  0  0  0  0  0  0
    4.0611   -0.2565    0.8808 C   0  0  0  0  0  0  0  0  0  0  0  0
   -0.4365   -8.0964    1.9833 H   0  0  0  0  0  0  0  0  0  0  0  0
   -0.0594   -7.5922    0.2576 H   0  0  0  0  0  0  0  0  0  0  0  0
    2.1203   -6.4405    3.5360 H   0  0  0  0  0  0  0  0  0  0  0  0
    0.4787   -6.9969    3.8471 H   0  0  0  0  0  0  0  0  0  0  0  0
    0.7672   -5.2927    3.5644 H   0  0  0  0  0  0  0  0  0  0  0  0
    1.5063   -5.8919   -0.2510 H   0  0  0  0  0  0  0  0  0  0  0  0
    3.7878   -2.2611    2.9762 H   0  0  0  0  0  0  0  0  0  0  0  0
    5.0010   -3.3469   -1.8049 H   0  0  0  0  0  0  0  0  0  0  0  0
    4.0515   -3.4383   -4.0380 H   0  0  0  0  0  0  0  0  0  0  0  0
    2.5986   -2.5598   -3.5301 H   0  0  0  0  0  0  0  0  0  0  0  0
    5.6815   -0.7930   -2.1141 H   0  0  0  0  0  0  0  0  0  0  0  0
    4.2704    0.2493   -2.3373 H   0  0  0  0  0  0  0  0  0  0  0  0
    2.8148   -1.3046   -1.3452 H   0  0  0  0  0  0  0  0  0  0  0  0
    5.3511   -1.8813    0.2656 H   0  0  0  0  0  0  0  0  0  0  0  0
    4.6085    0.5345    0.3673 H   0  0  0  0  0  0  0  0  0  0  0  0
    4.4220   -0.2538    1.9109 H   0  0  0  0  0  0  0  0  0  0  0  0
    3.0046    0.0286    0.8912 H   0  0  0  0  0  0  0  0  0  0  0  0
    2.6901   -4.6797   -1.6843 H   0  0  0  0  0  0  0  0  0  0  0  0
  1  2  2  0
  1 18  1  0
  1 19  1  0
  2  3  1  0
  2  4  1  0
  3 20  1  0
  3 21  1  0
  3 22  1  0
  4  5  2  3
  4 23  1  0
  5  9  1  0
  5  6  1  0
  6  7  2  0
  7  8  1  0
  7 24  1  0
  8 16  1  0
  8  9  1  0
  9 10  2  0
 10 11  1  0
 10 35  1  0
 11 15  1  0
 11 12  1  0
 11 25  1  6
 12 13  1  0
 12 26  1  0
 12 27  1  0
 13 14  1  0
 14 15  1  0
 14 28  1  0
 14 29  1  0
 15 16  1  0
 15 30  1  1
 16 17  1  0
 16 31  1  6
 17 32  1  0
 17 33  1  0
 17 34  1  0
M  CHG  1  10   1
M  END
>  <i_m_ct_stereo_status>  (269) 
1

>  <s_m_source_file>  (269) 
/var/tmp/pbs.5076255.sched01/tmp8hdfbsd6/1003312lgh9.sdf

>  <i_m_source_file_index>  (269) 
7

>  <i_lp_mmshare_version>  (269) 
48012

>  <i_f3d_flags>  (269) 
0

>  <s_epik_input>  (269) 
W0NIMl09QyhbQ0gzXSkvW0NIXT1jKFxuW2NIXTEpYyhuMTIpPU5bQ0BASF0zW0NAQEhdKFtDQEhdMltDSDNdKVtDSDJdT1tDSDJdMw==

>  <s_epik_cmdline>  (269) 
J2VwaWtfcHl0aG9uJywgJy1waHQnLCAnMi4wJywgJy1waCcsICc3LjAnLCAnLXRuJywgJzgnLCAnLW1hJywgJzIwMCcsICctaW1hZScsICc8aW5maWxlLm1hZT4nLCAnLW9tYWUnLCAnPG91dGZpbGUubWFlPic=

>  <r_epik_Ionization_Penalty>  (269) 
1.95663

>  <r_epik_Ionization_Penalty_Charging>  (269) 
1.95663

>  <r_epik_Ionization_Penalty_Neutral>  (269) 
8.15623e-07

>  <r_epik_State_Penalty>  (269) 
2.08208

>  <r_epik_Charging_Adjusted_Penalty>  (269) 
4.03871

>  <i_epik_Tot_Q>  (269) 
1

>  <i_epik_Tot_abs_Q>  (269) 
1

>  <s_epik_Chemistry_Notes>  (269) 
This compound has an imine and may undergo hydrolysis.

>  <s_lp_Force_Field>  (269) 
OPLS3e

>  <r_lp_Energy>  (269) 
19.7545

>  <b_lp_Chiralities_Consistent>  (269) 
1

>  <s_lp_Variant>  (269) 
63:0-3

>  <s_i_glide_gridfile>  (269) 
pfpi4k_grid

>  <i_i_glide_lignum>  (269) 
7

>  <i_i_glide_rotatable_bonds>  (269) 
1

>  <r_i_docking_score>  (269) 
-3.7827

>  <r_i_glide_ligand_efficiency>  (269) 
-0.222512

>  <r_i_glide_ligand_efficiency_sa>  (269) 
-0.572141

>  <r_i_glide_ligand_efficiency_ln>  (269) 
-0.986823

>  <r_i_glide_gscore>  (269) 
-3.7827

>  <r_i_glide_lipo>  (269) 
-0.255042

>  <r_i_glide_hbond>  (269) 
0

>  <r_i_glide_metal>  (269) 
-0

>  <r_i_glide_rewards>  (269) 
-1.82522

>  <r_i_glide_evdw>  (269) 
-20.1961

>  <r_i_glide_ecoul>  (269) 
-6.61573

>  <r_i_glide_erotb>  (269) 
0.317382

>  <r_i_glide_esite>  (269) 
-0.017663

>  <r_i_glide_emodel>  (269) 
-33.7908

>  <r_i_glide_energy>  (269) 
-26.8118

>  <r_i_glide_einternal>  (269) 
0.213552

>  <r_i_glide_intrahb_reward>  (269) 
-0

>  <i_i_glide_confnum>  (269) 
4

>  <i_i_glide_posenum>  (269) 
21

>  <r_i_glide_eff_state_penalty>  (269) 
0

>  <ligand_id>  (269) 
63

>  <original_smiles>  (269) 
C=C(C)C=c1ncn2c1=NC1COCC1C2C

>  <smiles>  (269) 
[H]C([H])=C(C([H])=c1nc([H])n2c1=[N+]([H])C1([H])C([H])([H])OC([H])([H])C1([H])C2([H])C([H])([H])[H])C([H])([H])[H]

$$$$
63:2:1
     RDKit          3D

 35 37  0  0  1  0  0  0  0  0999 V2000
    6.1848   -2.3887   -1.3988 C   0  0  0  0  0  0  0  0  0  0  0  0
    4.8835   -2.1019   -1.6029 C   0  0  0  0  0  0  0  0  0  0  0  0
    4.2522   -2.5426   -2.9163 C   0  0  0  0  0  0  0  0  0  0  0  0
    4.0264   -1.4037   -0.6429 C   0  0  0  0  0  0  0  0  0  0  0  0
    4.3026   -0.9973    0.6219 C   0  0  0  0  0  0  0  0  0  0  0  0
    5.5029   -1.1451    1.3095 N   0  0  0  0  0  0  0  0  0  0  0  0
    5.4082   -0.6534    2.4991 C   0  0  0  0  0  0  0  0  0  0  0  0
    4.1041   -0.2155    2.6362 N   0  0  0  0  0  0  0  0  0  0  0  0
    3.4212   -0.3671    1.4993 C   0  0  0  0  0  0  0  0  0  0  0  0
    2.1712    0.0825    1.2764 N   0  0  0  0  0  0  0  0  0  0  0  0
    1.5855    0.9649    2.2896 C   0  0  1  0  0  0  0  0  0  0  0  0
    0.0741    0.9560    2.4237 C   0  0  0  0  0  0  0  0  0  0  0  0
   -0.1257    1.3480    3.7875 O   0  0  0  0  0  0  0  0  0  0  0  0
    1.0767    1.1892    4.5452 C   0  0  0  0  0  0  0  0  0  0  0  0
    1.9937    0.4024    3.6252 C   0  0  2  0  0  0  0  0  0  0  0  0
    3.5254    0.4688    3.8125 C   0  0  1  0  0  0  0  0  0  0  0  0
    3.9718   -0.2060    5.1327 C   0  0  0  0  0  0  0  0  0  0  0  0
    6.7649   -2.9192   -2.1481 H   0  0  0  0  0  0  0  0  0  0  0  0
    6.7242   -2.1310   -0.5052 H   0  0  0  0  0  0  0  0  0  0  0  0
    3.4442   -3.2533   -2.7370 H   0  0  0  0  0  0  0  0  0  0  0  0
    4.9762   -3.0304   -3.5697 H   0  0  0  0  0  0  0  0  0  0  0  0
    3.8480   -1.6814   -3.4477 H   0  0  0  0  0  0  0  0  0  0  0  0
    3.0181   -1.2081   -1.0097 H   0  0  0  0  0  0  0  0  0  0  0  0
    6.1541   -0.5589    3.2801 H   0  0  0  0  0  0  0  0  0  0  0  0
    1.9542    1.9840    2.1680 H   0  0  0  0  0  0  0  0  0  0  0  0
   -0.4134    1.6365    1.7208 H   0  0  0  0  0  0  0  0  0  0  0  0
   -0.3222   -0.0466    2.2669 H   0  0  0  0  0  0  0  0  0  0  0  0
    1.4986    2.1672    4.7750 H   0  0  0  0  0  0  0  0  0  0  0  0
    0.8730    0.6644    5.4777 H   0  0  0  0  0  0  0  0  0  0  0  0
    1.6901   -0.6480    3.6689 H   0  0  0  0  0  0  0  0  0  0  0  0
    3.8594    1.5048    3.7989 H   0  0  0  0  0  0  0  0  0  0  0  0
    3.4940    0.2737    5.9892 H   0  0  0  0  0  0  0  0  0  0  0  0
    5.0526   -0.1151    5.2834 H   0  0  0  0  0  0  0  0  0  0  0  0
    3.7224   -1.2708    5.1570 H   0  0  0  0  0  0  0  0  0  0  0  0
    1.6723   -0.0832    0.4029 H   0  0  0  0  0  0  0  0  0  0  0  0
  1  2  2  0
  1 18  1  0
  1 19  1  0
  2  3  1  0
  2  4  1  0
  3 20  1  0
  3 21  1  0
  3 22  1  0
  4  5  2  3
  4 23  1  0
  5  9  1  0
  5  6  1  0
  6  7  2  0
  7  8  1  0
  7 24  1  0
  8 16  1  0
  8  9  1  0
  9 10  2  0
 10 11  1  0
 10 35  1  0
 11 15  1  0
 11 12  1  0
 11 25  1  6
 12 13  1  0
 12 26  1  0
 12 27  1  0
 13 14  1  0
 14 15  1  0
 14 28  1  0
 14 29  1  0
 15 16  1  0
 15 30  1  6
 16 17  1  0
 16 31  1  1
 17 32  1  0
 17 33  1  0
 17 34  1  0
M  CHG  1  10   1
M  END
>  <i_m_ct_stereo_status>  (270) 
1

>  <s_m_source_file>  (270) 
/var/tmp/pbs.5076255.sched01/tmp8hdfbsd6/1003312lgh9.sdf

>  <i_m_source_file_index>  (270) 
7

>  <i_lp_mmshare_version>  (270) 
48012

>  <i_f3d_flags>  (270) 
0

>  <s_epik_input>  (270) 
W0NIMl09QyhbQ0gzXSkvW0NIXT1jKFxuW2NIXTEpYyhuMTIpPU5bQ0BASF0zW0NAQEhdKFtDQEhdMltDSDNdKVtDSDJdT1tDSDJdMw==

>  <s_epik_cmdline>  (270) 
J2VwaWtfcHl0aG9uJywgJy1waHQnLCAnMi4wJywgJy1waCcsICc3LjAnLCAnLXRuJywgJzgnLCAnLW1hJywgJzIwMCcsICctaW1hZScsICc8aW5maWxlLm1hZT4nLCAnLW9tYWUnLCAnPG91dGZpbGUubWFlPic=

>  <r_epik_Ionization_Penalty>  (270) 
1.95663

>  <r_epik_Ionization_Penalty_Charging>  (270) 
1.95663

>  <r_epik_Ionization_Penalty_Neutral>  (270) 
8.15623e-07

>  <r_epik_State_Penalty>  (270) 
2.08208

>  <r_epik_Charging_Adjusted_Penalty>  (270) 
4.03871

>  <i_epik_Tot_Q>  (270) 
1

>  <i_epik_Tot_abs_Q>  (270) 
1

>  <s_epik_Chemistry_Notes>  (270) 
This compound has an imine and may undergo hydrolysis.

>  <s_lp_Force_Field>  (270) 
OPLS3e

>  <r_lp_Energy>  (270) 
19.7545

>  <b_lp_Chiralities_Consistent>  (270) 
1

>  <s_lp_Variant>  (270) 
63:0-3

>  <s_i_glide_gridfile>  (270) 
pfpi4k_grid

>  <i_i_glide_lignum>  (270) 
7

>  <i_i_glide_rotatable_bonds>  (270) 
1

>  <r_i_docking_score>  (270) 
-3.75834

>  <r_i_glide_ligand_efficiency>  (270) 
-0.221079

>  <r_i_glide_ligand_efficiency_sa>  (270) 
-0.568455

>  <r_i_glide_ligand_efficiency_ln>  (270) 
-0.980466

>  <r_i_glide_gscore>  (270) 
-3.75834

>  <r_i_glide_lipo>  (270) 
-0.138541

>  <r_i_glide_hbond>  (270) 
-0.2

>  <r_i_glide_metal>  (270) 
-0

>  <r_i_glide_rewards>  (270) 
-2.01584

>  <r_i_glide_evdw>  (270) 
-18.8208

>  <r_i_glide_ecoul>  (270) 
-4.73087

>  <r_i_glide_erotb>  (270) 
0.317382

>  <r_i_glide_esite>  (270) 
-0.0706704

>  <r_i_glide_emodel>  (270) 
-29.0726

>  <r_i_glide_energy>  (270) 
-23.5516

>  <r_i_glide_einternal>  (270) 
3.09551

>  <r_i_glide_intrahb_reward>  (270) 
-0

>  <i_i_glide_confnum>  (270) 
2

>  <i_i_glide_posenum>  (270) 
10

>  <r_i_glide_eff_state_penalty>  (270) 
0

>  <ligand_id>  (270) 
63

>  <original_smiles>  (270) 
C=C(C)C=c1ncn2c1=NC1COCC1C2C

>  <smiles>  (270) 
[H]C([H])=C(C([H])=c1nc([H])n2c1=[N+]([H])C1([H])C([H])([H])OC([H])([H])C1([H])C2([H])C([H])([H])[H])C([H])([H])[H]

$$$$
63:2:2
     RDKit          3D

 35 37  0  0  1  0  0  0  0  0999 V2000
    7.1185   -5.7915    1.4608 C   0  0  0  0  0  0  0  0  0  0  0  0
    6.5384   -6.9637    1.7833 C   0  0  0  0  0  0  0  0  0  0  0  0
    7.2815   -8.2520    1.4965 C   0  0  0  0  0  0  0  0  0  0  0  0
    5.2122   -6.9446    2.4001 C   0  0  0  0  0  0  0  0  0  0  0  0
    4.4471   -8.0140    2.7210 C   0  0  0  0  0  0  0  0  0  0  0  0
    4.7463   -9.3601    2.5242 N   0  0  0  0  0  0  0  0  0  0  0  0
    3.7693  -10.1190    2.9036 C   0  0  0  0  0  0  0  0  0  0  0  0
    2.7701   -9.2556    3.3243 N   0  0  0  0  0  0  0  0  0  0  0  0
    3.1718   -7.9797    3.2670 C   0  0  0  0  0  0  0  0  0  0  0  0
    2.4924   -6.9103    3.7277 N   0  0  0  0  0  0  0  0  0  0  0  0
    1.2829   -7.1972    4.5014 C   0  0  1  0  0  0  0  0  0  0  0  0
    0.1859   -6.1506    4.4782 C   0  0  0  0  0  0  0  0  0  0  0  0
   -0.9931   -6.9109    4.7522 O   0  0  0  0  0  0  0  0  0  0  0  0
   -0.7593   -8.3078    4.5359 C   0  0  0  0  0  0  0  0  0  0  0  0
    0.5903   -8.3557    3.8337 C   0  0  2  0  0  0  0  0  0  0  0  0
    1.4594   -9.6332    3.8975 C   0  0  1  0  0  0  0  0  0  0  0  0
    0.8012  -10.7981    3.1270 C   0  0  0  0  0  0  0  0  0  0  0  0
    8.0971   -5.7638    1.0022 H   0  0  0  0  0  0  0  0  0  0  0  0
    6.6340   -4.8457    1.6423 H   0  0  0  0  0  0  0  0  0  0  0  0
    7.4612   -8.7895    2.4258 H   0  0  0  0  0  0  0  0  0  0  0  0
    8.2407   -8.0901    1.0126 H   0  0  0  0  0  0  0  0  0  0  0  0
    6.6951   -8.8877    0.8328 H   0  0  0  0  0  0  0  0  0  0  0  0
    4.8057   -5.9597    2.6205 H   0  0  0  0  0  0  0  0  0  0  0  0
    3.6730  -11.2121    2.9241 H   0  0  0  0  0  0  0  0  0  0  0  0
    1.5428   -7.4510    5.5276 H   0  0  0  0  0  0  0  0  0  0  0  0
    0.3353   -5.3616    5.2173 H   0  0  0  0  0  0  0  0  0  0  0  0
    0.1025   -5.6874    3.4914 H   0  0  0  0  0  0  0  0  0  0  0  0
   -0.7241   -8.8298    5.4930 H   0  0  0  0  0  0  0  0  0  0  0  0
   -1.5622   -8.7429    3.9406 H   0  0  0  0  0  0  0  0  0  0  0  0
    0.4184   -8.1065    2.7818 H   0  0  0  0  0  0  0  0  0  0  0  0
    1.6098   -9.9309    4.9331 H   0  0  0  0  0  0  0  0  0  0  0  0
   -0.1822  -11.0239    3.5393 H   0  0  0  0  0  0  0  0  0  0  0  0
    1.3904  -11.7161    3.2027 H   0  0  0  0  0  0  0  0  0  0  0  0
    0.6735  -10.5720    2.0677 H   0  0  0  0  0  0  0  0  0  0  0  0
    2.8794   -5.9727    3.7080 H   0  0  0  0  0  0  0  0  0  0  0  0
  1  2  2  0
  1 18  1  0
  1 19  1  0
  2  3  1  0
  2  4  1  0
  3 20  1  0
  3 21  1  0
  3 22  1  0
  4  5  2  3
  4 23  1  0
  5  9  1  0
  5  6  1  0
  6  7  2  0
  7  8  1  0
  7 24  1  0
  8 16  1  0
  8  9  1  0
  9 10  2  0
 10 11  1  0
 10 35  1  0
 11 15  1  0
 11 12  1  0
 11 25  1  1
 12 13  1  0
 12 26  1  0
 12 27  1  0
 13 14  1  0
 14 15  1  0
 14 28  1  0
 14 29  1  0
 15 16  1  0
 15 30  1  6
 16 17  1  0
 16 31  1  1
 17 32  1  0
 17 33  1  0
 17 34  1  0
M  CHG  1  10   1
M  END
>  <i_m_ct_stereo_status>  (271) 
1

>  <s_m_source_file>  (271) 
/var/tmp/pbs.5076255.sched01/tmp8hdfbsd6/1003312lgh9.sdf

>  <i_m_source_file_index>  (271) 
7

>  <i_lp_mmshare_version>  (271) 
48012

>  <i_f3d_flags>  (271) 
0

>  <s_epik_input>  (271) 
W0NIMl09QyhbQ0gzXSkvW0NIXT1jKFxuW2NIXTEpYyhuMTIpPU5bQ0BASF0zW0NAQEhdKFtDQEhdMltDSDNdKVtDSDJdT1tDSDJdMw==

>  <s_epik_cmdline>  (271) 
J2VwaWtfcHl0aG9uJywgJy1waHQnLCAnMi4wJywgJy1waCcsICc3LjAnLCAnLXRuJywgJzgnLCAnLW1hJywgJzIwMCcsICctaW1hZScsICc8aW5maWxlLm1hZT4nLCAnLW9tYWUnLCAnPG91dGZpbGUubWFlPic=

>  <r_epik_Ionization_Penalty>  (271) 
1.95663

>  <r_epik_Ionization_Penalty_Charging>  (271) 
1.95663

>  <r_epik_Ionization_Penalty_Neutral>  (271) 
8.15623e-07

>  <r_epik_State_Penalty>  (271) 
2.08208

>  <r_epik_Charging_Adjusted_Penalty>  (271) 
4.03871

>  <i_epik_Tot_Q>  (271) 
1

>  <i_epik_Tot_abs_Q>  (271) 
1

>  <s_epik_Chemistry_Notes>  (271) 
This compound has an imine and may undergo hydrolysis.

>  <s_lp_Force_Field>  (271) 
OPLS3e

>  <r_lp_Energy>  (271) 
19.7545

>  <b_lp_Chiralities_Consistent>  (271) 
1

>  <s_lp_Variant>  (271) 
63:0-3

>  <s_i_glide_gridfile>  (271) 
pfpi4k_grid

>  <i_i_glide_lignum>  (271) 
7

>  <i_i_glide_rotatable_bonds>  (271) 
1

>  <r_i_docking_score>  (271) 
-3.41421

>  <r_i_glide_ligand_efficiency>  (271) 
-0.200836

>  <r_i_glide_ligand_efficiency_sa>  (271) 
-0.516406

>  <r_i_glide_ligand_efficiency_ln>  (271) 
-0.890692

>  <r_i_glide_gscore>  (271) 
-3.41421

>  <r_i_glide_lipo>  (271) 
-0.382852

>  <r_i_glide_hbond>  (271) 
0

>  <r_i_glide_metal>  (271) 
-0

>  <r_i_glide_rewards>  (271) 
-1.82522

>  <r_i_glide_evdw>  (271) 
-16.2563

>  <r_i_glide_ecoul>  (271) 
-4.39155

>  <r_i_glide_erotb>  (271) 
0.317382

>  <r_i_glide_esite>  (271) 
-0.0519745

>  <r_i_glide_emodel>  (271) 
-27.0549

>  <r_i_glide_energy>  (271) 
-20.6479

>  <r_i_glide_einternal>  (271) 
0.0924316

>  <r_i_glide_intrahb_reward>  (271) 
-0

>  <i_i_glide_confnum>  (271) 
1

>  <i_i_glide_posenum>  (271) 
12

>  <r_i_glide_eff_state_penalty>  (271) 
0

>  <ligand_id>  (271) 
63

>  <original_smiles>  (271) 
C=C(C)C=c1ncn2c1=NC1COCC1C2C

>  <smiles>  (271) 
[H]C([H])=C(C([H])=c1nc([H])n2c1=[N+]([H])C1([H])C([H])([H])OC([H])([H])C1([H])C2([H])C([H])([H])[H])C([H])([H])[H]

$$$$
63:3:0
     RDKit          3D

 35 37  0  0  1  0  0  0  0  0999 V2000
   -3.0856    2.8426    8.7811 C   0  0  0  0  0  0  0  0  0  0  0  0
   -2.2419    2.5893    7.7821 C   0  0  0  0  0  0  0  0  0  0  0  0
   -0.9619    1.8583    8.1216 C   0  0  0  0  0  0  0  0  0  0  0  0
   -2.6327    2.9817    6.4072 C   0  0  0  0  0  0  0  0  0  0  0  0
   -1.9471    2.9579    5.2716 C   0  0  0  0  0  0  0  0  0  0  0  0
   -2.5473    3.1455    4.0123 N   0  0  0  0  0  0  0  0  0  0  0  0
   -1.7074    2.9170    3.0785 C   0  0  0  0  0  0  0  0  0  0  0  0
   -0.5101    2.5115    3.6717 N   0  0  0  0  0  0  0  0  0  0  0  0
   -0.6090    2.6287    4.9892 C   0  0  0  0  0  0  0  0  0  0  0  0
    0.4626    2.5380    5.8079 N   0  0  0  0  0  0  0  0  0  0  0  0
    1.7843    2.3043    5.2837 C   0  0  1  0  0  0  0  0  0  0  0  0
    2.7350    1.4714    6.1282 C   0  0  0  0  0  0  0  0  0  0  0  0
    3.6496    0.9939    5.1430 O   0  0  0  0  0  0  0  0  0  0  0  0
    3.0782    1.0918    3.8290 C   0  0  0  0  0  0  0  0  0  0  0  0
    1.6174    1.4196    4.0839 C   0  0  2  0  0  0  0  0  0  0  0  0
    0.7518    2.1223    3.0050 C   0  0  1  0  0  0  0  0  0  0  0  0
    0.5297    1.2121    1.7765 C   0  0  0  0  0  0  0  0  0  0  0  0
   -2.8091    2.5695    9.8002 H   0  0  0  0  0  0  0  0  0  0  0  0
   -4.0643    3.3065    8.6392 H   0  0  0  0  0  0  0  0  0  0  0  0
   -0.6774    1.2024    7.3126 H   0  0  0  0  0  0  0  0  0  0  0  0
   -1.0867    1.1728    8.9537 H   0  0  0  0  0  0  0  0  0  0  0  0
   -0.1856    2.5827    8.3755 H   0  0  0  0  0  0  0  0  0  0  0  0
   -3.6771    3.2458    6.2975 H   0  0  0  0  0  0  0  0  0  0  0  0
   -1.8172    3.0623    2.0220 H   0  0  0  0  0  0  0  0  0  0  0  0
    2.2501    3.2545    5.0169 H   0  0  0  0  0  0  0  0  0  0  0  0
    3.2327    2.0517    6.9032 H   0  0  0  0  0  0  0  0  0  0  0  0
    2.2482    0.6225    6.6143 H   0  0  0  0  0  0  0  0  0  0  0  0
    3.5599    1.9042    3.2865 H   0  0  0  0  0  0  0  0  0  0  0  0
    3.2242    0.1640    3.2769 H   0  0  0  0  0  0  0  0  0  0  0  0
    1.1277    0.4828    4.3700 H   0  0  0  0  0  0  0  0  0  0  0  0
    1.2490    3.0409    2.6906 H   0  0  0  0  0  0  0  0  0  0  0  0
    1.4831    0.9267    1.3258 H   0  0  0  0  0  0  0  0  0  0  0  0
   -0.0405    1.7369    1.0028 H   0  0  0  0  0  0  0  0  0  0  0  0
   -0.0102    0.2942    2.0283 H   0  0  0  0  0  0  0  0  0  0  0  0
    0.3166    2.5548    6.8164 H   0  0  0  0  0  0  0  0  0  0  0  0
  1  2  2  0
  1 18  1  0
  1 19  1  0
  2  3  1  0
  2  4  1  0
  3 20  1  0
  3 21  1  0
  3 22  1  0
  4  5  2  3
  4 23  1  0
  5  9  1  0
  5  6  1  0
  6  7  2  0
  7  8  1  0
  7 24  1  0
  8 16  1  0
  8  9  1  0
  9 10  2  0
 10 11  1  0
 10 35  1  0
 11 15  1  0
 11 12  1  0
 11 25  1  6
 12 13  1  0
 12 26  1  0
 12 27  1  0
 13 14  1  0
 14 15  1  0
 14 28  1  0
 14 29  1  0
 15 16  1  0
 15 30  1  1
 16 17  1  0
 16 31  1  6
 17 32  1  0
 17 33  1  0
 17 34  1  0
M  CHG  1  10   1
M  END
>  <i_m_ct_stereo_status>  (272) 
1

>  <s_m_source_file>  (272) 
/var/tmp/pbs.5076255.sched01/tmp8hdfbsd6/1003312lgh9.sdf

>  <i_m_source_file_index>  (272) 
8

>  <i_lp_mmshare_version>  (272) 
48012

>  <i_f3d_flags>  (272) 
0

>  <s_epik_input>  (272) 
W0NIMl09QyhbQ0gzXSkvW0NIXT1jKFxuW2NIXTEpYyhuMTIpPU5bQ0BASF0zW0NAQEhdKFtDQEhdMltDSDNdKVtDSDJdT1tDSDJdMw==

>  <s_epik_cmdline>  (272) 
J2VwaWtfcHl0aG9uJywgJy1waHQnLCAnMi4wJywgJy1waCcsICc3LjAnLCAnLXRuJywgJzgnLCAnLW1hJywgJzIwMCcsICctaW1hZScsICc8aW5maWxlLm1hZT4nLCAnLW9tYWUnLCAnPG91dGZpbGUubWFlPic=

>  <r_epik_Ionization_Penalty>  (272) 
1.95663

>  <r_epik_Ionization_Penalty_Charging>  (272) 
1.95663

>  <r_epik_Ionization_Penalty_Neutral>  (272) 
8.15623e-07

>  <r_epik_State_Penalty>  (272) 
2.08208

>  <r_epik_Charging_Adjusted_Penalty>  (272) 
4.03871

>  <i_epik_Tot_Q>  (272) 
1

>  <i_epik_Tot_abs_Q>  (272) 
1

>  <s_epik_Chemistry_Notes>  (272) 
This compound has an imine and may undergo hydrolysis.

>  <s_lp_Force_Field>  (272) 
OPLS3e

>  <r_lp_Energy>  (272) 
23.3999

>  <b_lp_Chiralities_Consistent>  (272) 
1

>  <s_lp_Variant>  (272) 
63:0-4

>  <s_i_glide_gridfile>  (272) 
pfpi4k_grid

>  <i_i_glide_lignum>  (272) 
8

>  <i_i_glide_rotatable_bonds>  (272) 
1

>  <r_i_docking_score>  (272) 
-3.25495

>  <r_i_glide_ligand_efficiency>  (272) 
-0.191468

>  <r_i_glide_ligand_efficiency_sa>  (272) 
-0.492317

>  <r_i_glide_ligand_efficiency_ln>  (272) 
-0.849144

>  <r_i_glide_gscore>  (272) 
-3.25495

>  <r_i_glide_lipo>  (272) 
-0.199209

>  <r_i_glide_hbond>  (272) 
0

>  <r_i_glide_metal>  (272) 
-0

>  <r_i_glide_rewards>  (272) 
-1.82522

>  <r_i_glide_evdw>  (272) 
-16.4587

>  <r_i_glide_ecoul>  (272) 
-4.12754

>  <r_i_glide_erotb>  (272) 
0.317382

>  <r_i_glide_esite>  (272) 
-0.105842

>  <r_i_glide_emodel>  (272) 
-24.1707

>  <r_i_glide_energy>  (272) 
-20.5862

>  <r_i_glide_einternal>  (272) 
0.00673629

>  <r_i_glide_intrahb_reward>  (272) 
-0

>  <i_i_glide_confnum>  (272) 
3

>  <i_i_glide_posenum>  (272) 
34

>  <r_i_glide_eff_state_penalty>  (272) 
0

>  <ligand_id>  (272) 
63

>  <original_smiles>  (272) 
C=C(C)C=c1ncn2c1=NC1COCC1C2C

>  <smiles>  (272) 
[H]C([H])=C(C([H])=c1nc([H])n2c1=[N+]([H])C1([H])C([H])([H])OC([H])([H])C1([H])C2([H])C([H])([H])[H])C([H])([H])[H]

$$$$
63:3:1
     RDKit          3D

 35 37  0  0  1  0  0  0  0  0999 V2000
   -3.5863    2.9212    1.9105 C   0  0  0  0  0  0  0  0  0  0  0  0
   -3.7869    4.2168    2.1417 C   0  0  0  0  0  0  0  0  0  0  0  0
   -5.2087    4.7647    2.0431 C   0  0  0  0  0  0  0  0  0  0  0  0
   -2.6609    5.1081    2.4837 C   0  0  0  0  0  0  0  0  0  0  0  0
   -1.5341    4.8416    3.1775 C   0  0  0  0  0  0  0  0  0  0  0  0
   -0.4664    5.7210    3.2882 N   0  0  0  0  0  0  0  0  0  0  0  0
    0.5604    5.1019    3.8345 C   0  0  0  0  0  0  0  0  0  0  0  0
    0.1530    3.8028    4.0493 N   0  0  0  0  0  0  0  0  0  0  0  0
   -1.1106    3.6262    3.7486 C   0  0  0  0  0  0  0  0  0  0  0  0
   -1.8065    2.4874    4.0191 N   0  0  0  0  0  0  0  0  0  0  0  0
   -1.1537    1.4393    4.7872 C   0  0  1  0  0  0  0  0  0  0  0  0
   -1.5802    0.0119    4.4864 C   0  0  0  0  0  0  0  0  0  0  0  0
   -0.4388   -0.7508    4.9108 O   0  0  0  0  0  0  0  0  0  0  0  0
    0.7217    0.0810    4.9803 C   0  0  0  0  0  0  0  0  0  0  0  0
    0.2767    1.3913    4.3240 C   0  0  2  0  0  0  0  0  0  0  0  0
    1.0095    2.7117    4.6444 C   0  0  1  0  0  0  0  0  0  0  0  0
    2.4647    2.7225    4.1144 C   0  0  0  0  0  0  0  0  0  0  0  0
   -4.4338    2.2690    1.6932 H   0  0  0  0  0  0  0  0  0  0  0  0
   -2.5934    2.5091    1.9327 H   0  0  0  0  0  0  0  0  0  0  0  0
   -5.3179    5.7746    2.4528 H   0  0  0  0  0  0  0  0  0  0  0  0
   -5.9176    4.0787    2.5236 H   0  0  0  0  0  0  0  0  0  0  0  0
   -5.4376    4.8099    0.9845 H   0  0  0  0  0  0  0  0  0  0  0  0
   -2.7302    6.0798    2.0487 H   0  0  0  0  0  0  0  0  0  0  0  0
    1.5174    5.5260    4.1147 H   0  0  0  0  0  0  0  0  0  0  0  0
   -1.1774    1.6155    5.8672 H   0  0  0  0  0  0  0  0  0  0  0  0
   -2.4717   -0.2814    5.0417 H   0  0  0  0  0  0  0  0  0  0  0  0
   -1.7665   -0.1541    3.4361 H   0  0  0  0  0  0  0  0  0  0  0  0
    0.9828    0.2389    6.0259 H   0  0  0  0  0  0  0  0  0  0  0  0
    1.5680   -0.3972    4.4793 H   0  0  0  0  0  0  0  0  0  0  0  0
    0.3096    1.2315    3.2419 H   0  0  0  0  0  0  0  0  0  0  0  0
    1.0105    2.8781    5.7189 H   0  0  0  0  0  0  0  0  0  0  0  0
    3.0270    1.8967    4.5558 H   0  0  0  0  0  0  0  0  0  0  0  0
    2.9823    3.6468    4.3876 H   0  0  0  0  0  0  0  0  0  0  0  0
    2.5033    2.6168    3.0276 H   0  0  0  0  0  0  0  0  0  0  0  0
   -2.7879    2.3673    3.7433 H   0  0  0  0  0  0  0  0  0  0  0  0
  1  2  2  0
  1 18  1  0
  1 19  1  0
  2  3  1  0
  2  4  1  0
  3 20  1  0
  3 21  1  0
  3 22  1  0
  4  5  2  3
  4 23  1  0
  5  9  1  0
  5  6  1  0
  6  7  2  0
  7  8  1  0
  7 24  1  0
  8 16  1  0
  8  9  1  0
  9 10  2  0
 10 11  1  0
 10 35  1  0
 11 15  1  0
 11 12  1  0
 11 25  1  1
 12 13  1  0
 12 26  1  0
 12 27  1  0
 13 14  1  0
 14 15  1  0
 14 28  1  0
 14 29  1  0
 15 16  1  0
 15 30  1  6
 16 17  1  0
 16 31  1  1
 17 32  1  0
 17 33  1  0
 17 34  1  0
M  CHG  1  10   1
M  END
>  <i_m_ct_stereo_status>  (273) 
1

>  <s_m_source_file>  (273) 
/var/tmp/pbs.5076255.sched01/tmp8hdfbsd6/1003312lgh9.sdf

>  <i_m_source_file_index>  (273) 
8

>  <i_lp_mmshare_version>  (273) 
48012

>  <i_f3d_flags>  (273) 
0

>  <s_epik_input>  (273) 
W0NIMl09QyhbQ0gzXSkvW0NIXT1jKFxuW2NIXTEpYyhuMTIpPU5bQ0BASF0zW0NAQEhdKFtDQEhdMltDSDNdKVtDSDJdT1tDSDJdMw==

>  <s_epik_cmdline>  (273) 
J2VwaWtfcHl0aG9uJywgJy1waHQnLCAnMi4wJywgJy1waCcsICc3LjAnLCAnLXRuJywgJzgnLCAnLW1hJywgJzIwMCcsICctaW1hZScsICc8aW5maWxlLm1hZT4nLCAnLW9tYWUnLCAnPG91dGZpbGUubWFlPic=

>  <r_epik_Ionization_Penalty>  (273) 
1.95663

>  <r_epik_Ionization_Penalty_Charging>  (273) 
1.95663

>  <r_epik_Ionization_Penalty_Neutral>  (273) 
8.15623e-07

>  <r_epik_State_Penalty>  (273) 
2.08208

>  <r_epik_Charging_Adjusted_Penalty>  (273) 
4.03871

>  <i_epik_Tot_Q>  (273) 
1

>  <i_epik_Tot_abs_Q>  (273) 
1

>  <s_epik_Chemistry_Notes>  (273) 
This compound has an imine and may undergo hydrolysis.

>  <s_lp_Force_Field>  (273) 
OPLS3e

>  <r_lp_Energy>  (273) 
23.3999

>  <b_lp_Chiralities_Consistent>  (273) 
1

>  <s_lp_Variant>  (273) 
63:0-4

>  <s_i_glide_gridfile>  (273) 
pfpi4k_grid

>  <i_i_glide_lignum>  (273) 
8

>  <i_i_glide_rotatable_bonds>  (273) 
1

>  <r_i_docking_score>  (273) 
-2.99164

>  <r_i_glide_ligand_efficiency>  (273) 
-0.175979

>  <r_i_glide_ligand_efficiency_sa>  (273) 
-0.452491

>  <r_i_glide_ligand_efficiency_ln>  (273) 
-0.780451

>  <r_i_glide_gscore>  (273) 
-2.99164

>  <r_i_glide_lipo>  (273) 
-0.0267942

>  <r_i_glide_hbond>  (273) 
-0.0740871

>  <r_i_glide_metal>  (273) 
-0

>  <r_i_glide_rewards>  (273) 
-1.82522

>  <r_i_glide_evdw>  (273) 
-15.5645

>  <r_i_glide_ecoul>  (273) 
-2.83707

>  <r_i_glide_erotb>  (273) 
0.317382

>  <r_i_glide_esite>  (273) 
-0.179135

>  <r_i_glide_emodel>  (273) 
-19.8809

>  <r_i_glide_energy>  (273) 
-18.4015

>  <r_i_glide_einternal>  (273) 
3.17049

>  <r_i_glide_intrahb_reward>  (273) 
-0

>  <i_i_glide_confnum>  (273) 
6

>  <i_i_glide_posenum>  (273) 
14

>  <r_i_glide_eff_state_penalty>  (273) 
0

>  <ligand_id>  (273) 
63

>  <original_smiles>  (273) 
C=C(C)C=c1ncn2c1=NC1COCC1C2C

>  <smiles>  (273) 
[H]C([H])=C(C([H])=c1nc([H])n2c1=[N+]([H])C1([H])C([H])([H])OC([H])([H])C1([H])C2([H])C([H])([H])[H])C([H])([H])[H]

$$$$
63:3:2
     RDKit          3D

 35 37  0  0  1  0  0  0  0  0999 V2000
   -3.5872    3.0035    2.0772 C   0  0  0  0  0  0  0  0  0  0  0  0
   -2.3414    2.9805    2.5403 C   0  0  0  0  0  0  0  0  0  0  0  0
   -1.8938    4.1861    3.3432 C   0  0  0  0  0  0  0  0  0  0  0  0
   -1.5016    1.7978    2.3081 C   0  0  0  0  0  0  0  0  0  0  0  0
   -0.2014    1.5421    2.6017 C   0  0  0  0  0  0  0  0  0  0  0  0
    0.3600    0.2819    2.4858 N   0  0  0  0  0  0  0  0  0  0  0  0
    1.5981    0.3027    2.9448 C   0  0  0  0  0  0  0  0  0  0  0  0
    1.8007    1.5857    3.4091 N   0  0  0  0  0  0  0  0  0  0  0  0
    0.7915    2.3721    3.1556 C   0  0  0  0  0  0  0  0  0  0  0  0
    0.8203    3.7152    3.3158 N   0  0  0  0  0  0  0  0  0  0  0  0
    2.0517    4.3837    3.6907 C   0  0  1  0  0  0  0  0  0  0  0  0
    1.8920    5.6677    4.4889 C   0  0  0  0  0  0  0  0  0  0  0  0
    3.1276    5.7106    5.2105 O   0  0  0  0  0  0  0  0  0  0  0  0
    3.7482    4.4190    5.2308 C   0  0  0  0  0  0  0  0  0  0  0  0
    2.6768    3.4755    4.6989 C   0  0  2  0  0  0  0  0  0  0  0  0
    3.0553    2.1142    4.0649 C   0  0  1  0  0  0  0  0  0  0  0  0
    3.6378    1.1327    5.0876 C   0  0  0  0  0  0  0  0  0  0  0  0
   -4.2132    3.8799    2.2268 H   0  0  0  0  0  0  0  0  0  0  0  0
   -4.0231    2.1676    1.5245 H   0  0  0  0  0  0  0  0  0  0  0  0
   -1.2596    3.8806    4.1500 H   0  0  0  0  0  0  0  0  0  0  0  0
   -2.7172    4.6219    3.8917 H   0  0  0  0  0  0  0  0  0  0  0  0
   -1.4490    4.9324    2.6815 H   0  0  0  0  0  0  0  0  0  0  0  0
   -2.0347    0.9511    1.9012 H   0  0  0  0  0  0  0  0  0  0  0  0
    2.3184   -0.4955    2.9525 H   0  0  0  0  0  0  0  0  0  0  0  0
    2.6993    4.5494    2.8278 H   0  0  0  0  0  0  0  0  0  0  0  0
    1.7438    6.5439    3.8576 H   0  0  0  0  0  0  0  0  0  0  0  0
    1.0567    5.6192    5.1853 H   0  0  0  0  0  0  0  0  0  0  0  0
    4.6104    4.4206    4.5682 H   0  0  0  0  0  0  0  0  0  0  0  0
    4.0681    4.1587    6.2381 H   0  0  0  0  0  0  0  0  0  0  0  0
    1.9722    3.2993    5.5151 H   0  0  0  0  0  0  0  0  0  0  0  0
    3.7668    2.2843    3.2728 H   0  0  0  0  0  0  0  0  0  0  0  0
    4.5309    1.5650    5.5432 H   0  0  0  0  0  0  0  0  0  0  0  0
    3.9396    0.1986    4.6065 H   0  0  0  0  0  0  0  0  0  0  0  0
    2.9270    0.8964    5.8870 H   0  0  0  0  0  0  0  0  0  0  0  0
    0.0618    4.2733    2.9849 H   0  0  0  0  0  0  0  0  0  0  0  0
  1  2  2  0
  1 18  1  0
  1 19  1  0
  2  3  1  0
  2  4  1  0
  3 20  1  0
  3 21  1  0
  3 22  1  0
  4  5  2  3
  4 23  1  0
  5  9  1  0
  5  6  1  0
  6  7  2  0
  7  8  1  0
  7 24  1  0
  8 16  1  0
  8  9  1  0
  9 10  2  0
 10 11  1  0
 10 35  1  0
 11 15  1  0
 11 12  1  0
 11 25  1  6
 12 13  1  0
 12 26  1  0
 12 27  1  0
 13 14  1  0
 14 15  1  0
 14 28  1  0
 14 29  1  0
 15 16  1  0
 15 30  1  1
 16 17  1  0
 16 31  1  6
 17 32  1  0
 17 33  1  0
 17 34  1  0
M  CHG  1  10   1
M  END
>  <i_m_ct_stereo_status>  (274) 
1

>  <s_m_source_file>  (274) 
/var/tmp/pbs.5076255.sched01/tmp8hdfbsd6/1003312lgh9.sdf

>  <i_m_source_file_index>  (274) 
8

>  <i_lp_mmshare_version>  (274) 
48012

>  <i_f3d_flags>  (274) 
0

>  <s_epik_input>  (274) 
W0NIMl09QyhbQ0gzXSkvW0NIXT1jKFxuW2NIXTEpYyhuMTIpPU5bQ0BASF0zW0NAQEhdKFtDQEhdMltDSDNdKVtDSDJdT1tDSDJdMw==

>  <s_epik_cmdline>  (274) 
J2VwaWtfcHl0aG9uJywgJy1waHQnLCAnMi4wJywgJy1waCcsICc3LjAnLCAnLXRuJywgJzgnLCAnLW1hJywgJzIwMCcsICctaW1hZScsICc8aW5maWxlLm1hZT4nLCAnLW9tYWUnLCAnPG91dGZpbGUubWFlPic=

>  <r_epik_Ionization_Penalty>  (274) 
1.95663

>  <r_epik_Ionization_Penalty_Charging>  (274) 
1.95663

>  <r_epik_Ionization_Penalty_Neutral>  (274) 
8.15623e-07

>  <r_epik_State_Penalty>  (274) 
2.08208

>  <r_epik_Charging_Adjusted_Penalty>  (274) 
4.03871

>  <i_epik_Tot_Q>  (274) 
1

>  <i_epik_Tot_abs_Q>  (274) 
1

>  <s_epik_Chemistry_Notes>  (274) 
This compound has an imine and may undergo hydrolysis.

>  <s_lp_Force_Field>  (274) 
OPLS3e

>  <r_lp_Energy>  (274) 
23.3999

>  <b_lp_Chiralities_Consistent>  (274) 
1

>  <s_lp_Variant>  (274) 
63:0-4

>  <s_i_glide_gridfile>  (274) 
pfpi4k_grid

>  <i_i_glide_lignum>  (274) 
8

>  <i_i_glide_rotatable_bonds>  (274) 
1

>  <r_i_docking_score>  (274) 
-2.78259

>  <r_i_glide_ligand_efficiency>  (274) 
-0.163682

>  <r_i_glide_ligand_efficiency_sa>  (274) 
-0.420872

>  <r_i_glide_ligand_efficiency_ln>  (274) 
-0.725916

>  <r_i_glide_gscore>  (274) 
-2.78259

>  <r_i_glide_lipo>  (274) 
0

>  <r_i_glide_hbond>  (274) 
-0.0212976

>  <r_i_glide_metal>  (274) 
-0

>  <r_i_glide_rewards>  (274) 
-1.82522

>  <r_i_glide_evdw>  (274) 
-15.0956

>  <r_i_glide_ecoul>  (274) 
-2.44849

>  <r_i_glide_erotb>  (274) 
0.317382

>  <r_i_glide_esite>  (274) 
-0.131406

>  <r_i_glide_emodel>  (274) 
-20.0764

>  <r_i_glide_energy>  (274) 
-17.5441

>  <r_i_glide_einternal>  (274) 
0.00105328

>  <r_i_glide_intrahb_reward>  (274) 
-0

>  <i_i_glide_confnum>  (274) 
1

>  <i_i_glide_posenum>  (274) 
6

>  <r_i_glide_eff_state_penalty>  (274) 
0

>  <ligand_id>  (274) 
63

>  <original_smiles>  (274) 
C=C(C)C=c1ncn2c1=NC1COCC1C2C

>  <smiles>  (274) 
[H]C([H])=C(C([H])=c1nc([H])n2c1=[N+]([H])C1([H])C([H])([H])OC([H])([H])C1([H])C2([H])C([H])([H])[H])C([H])([H])[H]

$$$$
64:0:0
     RDKit          3D

 43 46  0  0  1  0  0  0  0  0999 V2000
    3.6508   -6.2007    0.9520 C   0  0  0  0  0  0  0  0  0  0  0  0
    4.6635   -5.4092    0.5504 C   0  0  0  0  0  0  0  0  0  0  0  0
    6.0915   -5.5819    0.9798 C   0  0  0  0  0  0  0  0  0  0  0  0
    6.5147   -4.2806    1.3489 O   0  0  0  0  0  0  0  0  0  0  0  0
    5.8442   -3.3330    0.5027 C   0  0  2  0  0  0  0  0  0  0  0  0
    5.4244   -2.0303    1.2852 C   0  0  2  0  0  0  0  0  0  0  0  0
    6.4551   -1.0808    1.0517 O   0  0  0  0  0  0  0  0  0  0  0  0
    5.2699   -2.2585    2.8035 C   0  0  0  0  0  0  0  0  0  0  0  0
    4.1967   -3.3053    3.1573 C   0  0  0  0  0  0  0  0  0  0  0  0
    2.8364   -3.1372    2.4323 C   0  0  1  0  0  0  0  0  0  0  0  0
    1.8352   -2.4220    3.3500 C   0  0  0  0  0  0  0  0  0  0  0  0
    2.9258   -2.4519    1.0521 C   0  0  1  0  0  0  0  0  0  0  0  0
    4.0777   -1.4736    0.7605 C   0  0  1  0  0  0  0  0  0  0  0  0
    3.8186   -0.0116    1.1607 C   0  0  0  0  0  0  0  0  0  0  0  0
    3.7785   -1.7908   -0.7009 C   0  0  0  0  0  0  0  0  0  0  0  0
    3.3648   -3.2009   -0.2396 C   0  0  2  0  0  0  0  0  0  0  0  0
    2.2217   -3.8062   -1.0679 C   0  0  0  0  0  0  0  0  0  0  0  0
    4.6480   -4.0868   -0.1802 C   0  0  2  0  0  0  0  0  0  0  0  0
    5.0162   -4.3349   -1.5262 O   0  0  0  0  0  0  0  0  0  0  0  0
    2.6179   -6.0054    0.7074 H   0  0  0  0  0  0  0  0  0  0  0  0
    3.8628   -7.0849    1.5473 H   0  0  0  0  0  0  0  0  0  0  0  0
    6.2173   -6.3114    1.7799 H   0  0  0  0  0  0  0  0  0  0  0  0
    6.6720   -5.9052    0.1155 H   0  0  0  0  0  0  0  0  0  0  0  0
    6.5415   -3.0419   -0.2880 H   0  0  0  0  0  0  0  0  0  0  0  0
    6.3454   -0.3665    1.6602 H   0  0  0  0  0  0  0  0  0  0  0  0
    6.2104   -2.5720    3.2307 H   0  0  0  0  0  0  0  0  0  0  0  0
    5.0284   -1.3283    3.3142 H   0  0  0  0  0  0  0  0  0  0  0  0
    4.5838   -4.3026    2.9562 H   0  0  0  0  0  0  0  0  0  0  0  0
    4.0471   -3.2974    4.2360 H   0  0  0  0  0  0  0  0  0  0  0  0
    2.4243   -4.1366    2.2988 H   0  0  0  0  0  0  0  0  0  0  0  0
    2.1483   -1.4017    3.5824 H   0  0  0  0  0  0  0  0  0  0  0  0
    1.7212   -2.9596    4.2903 H   0  0  0  0  0  0  0  0  0  0  0  0
    0.8459   -2.3728    2.8926 H   0  0  0  0  0  0  0  0  0  0  0  0
    1.9762   -1.9444    0.8548 H   0  0  0  0  0  0  0  0  0  0  0  0
    2.8514    0.3165    0.7752 H   0  0  0  0  0  0  0  0  0  0  0  0
    4.5652    0.6646    0.7421 H   0  0  0  0  0  0  0  0  0  0  0  0
    3.7774    0.1349    2.2397 H   0  0  0  0  0  0  0  0  0  0  0  0
    2.9845   -1.1886   -1.1292 H   0  0  0  0  0  0  0  0  0  0  0  0
    4.6528   -1.7505   -1.3496 H   0  0  0  0  0  0  0  0  0  0  0  0
    2.5381   -4.0488   -2.0777 H   0  0  0  0  0  0  0  0  0  0  0  0
    1.4279   -3.0750   -1.2069 H   0  0  0  0  0  0  0  0  0  0  0  0
    1.7691   -4.6818   -0.6139 H   0  0  0  0  0  0  0  0  0  0  0  0
    4.3476   -4.8878   -1.9035 H   0  0  0  0  0  0  0  0  0  0  0  0
  1  2  2  0
  1 20  1  0
  1 21  1  0
  2 18  1  0
  2  3  1  0
  3  4  1  0
  3 22  1  0
  3 23  1  0
  4  5  1  0
  5 18  1  0
  5  6  1  0
  5 24  1  6
  6 13  1  0
  6  7  1  1
  6  8  1  0
  7 25  1  0
  8  9  1  0
  8 26  1  0
  8 27  1  0
  9 10  1  0
  9 28  1  0
  9 29  1  0
 10 11  1  0
 10 12  1  0
 10 30  1  6
 11 31  1  0
 11 32  1  0
 11 33  1  0
 12 16  1  0
 12 13  1  0
 12 34  1  6
 13 14  1  6
 13 15  1  0
 14 35  1  0
 14 36  1  0
 14 37  1  0
 15 16  1  0
 15 38  1  0
 15 39  1  0
 16 17  1  6
 16 18  1  0
 17 40  1  0
 17 41  1  0
 17 42  1  0
 18 19  1  6
 19 43  1  0
M  END
>  <i_m_ct_stereo_status>  (275) 
1

>  <s_m_source_file>  (275) 
/var/tmp/pbs.5076255.sched01/tmp8hdfbsd6/1003312lgh9.sdf

>  <i_m_source_file_index>  (275) 
9

>  <i_lp_mmshare_version>  (275) 
48012

>  <i_f3d_flags>  (275) 
0

>  <s_epik_input>  (275) 
TzFbQ0gyXUMoPVtDSDJdKVtDQF0oW09IXSkoW0NASF0xW0NAXTIzW09IXSlbQ0BAXTQoW0NIM10pW0NASF0oW0NAXTMoW0NIM10pW0NIMl00KVtDQEhdKFtDSDNdKVtDSDJdW0NIMl0y

>  <s_epik_cmdline>  (275) 
J2VwaWtfcHl0aG9uJywgJy1waHQnLCAnMi4wJywgJy1waCcsICc3LjAnLCAnLXRuJywgJzgnLCAnLW1hJywgJzIwMCcsICctaW1hZScsICc8aW5maWxlLm1hZT4nLCAnLW9tYWUnLCAnPG91dGZpbGUubWFlPic=

>  <r_lp_tautomer_probability>  (275) 
1

>  <r_epik_Ionization_Penalty>  (275) 
1.85351e-07

>  <r_epik_Ionization_Penalty_Charging>  (275) 
0

>  <r_epik_Ionization_Penalty_Neutral>  (275) 
1.85351e-07

>  <r_epik_State_Penalty>  (275) 
-0

>  <r_epik_Charging_Adjusted_Penalty>  (275) 
0

>  <i_epik_Tot_Q>  (275) 
0

>  <i_epik_Tot_abs_Q>  (275) 
0

>  <s_lp_Force_Field>  (275) 
OPLS3e

>  <r_lp_Energy>  (275) 
47.0649

>  <b_lp_Chiralities_Consistent>  (275) 
1

>  <s_lp_Variant>  (275) 
64:0-1

>  <s_i_glide_gridfile>  (275) 
pfpi4k_grid

>  <i_i_glide_lignum>  (275) 
9

>  <i_i_glide_rotatable_bonds>  (275) 
2

>  <r_i_docking_score>  (275) 
-3.39742

>  <r_i_glide_ligand_efficiency>  (275) 
-0.178811

>  <r_i_glide_ligand_efficiency_sa>  (275) 
-0.477141

>  <r_i_glide_ligand_efficiency_ln>  (275) 
-0.861318

>  <r_i_glide_gscore>  (275) 
-3.39742

>  <r_i_glide_lipo>  (275) 
-0.496369

>  <r_i_glide_hbond>  (275) 
0

>  <r_i_glide_metal>  (275) 
-0

>  <r_i_glide_rewards>  (275) 
-1.60664

>  <r_i_glide_evdw>  (275) 
-14.6043

>  <r_i_glide_ecoul>  (275) 
-3.76128

>  <r_i_glide_erotb>  (275) 
0

>  <r_i_glide_esite>  (275) 
0

>  <r_i_glide_emodel>  (275) 
-21.9415

>  <r_i_glide_energy>  (275) 
-18.3656

>  <r_i_glide_einternal>  (275) 
0.158441

>  <r_i_glide_intrahb_reward>  (275) 
-0

>  <i_i_glide_confnum>  (275) 
1

>  <i_i_glide_posenum>  (275) 
6

>  <r_i_glide_eff_state_penalty>  (275) 
0

>  <ligand_id>  (275) 
64

>  <original_smiles>  (275) 
C=C1COC2C3(O)CCC(C)C4C3(C)CC4(C)C12O

>  <smiles>  (275) 
[H]OC12C(=C([H])[H])C([H])([H])OC1([H])C1(O[H])C([H])([H])C([H])([H])C([H])(C([H])([H])[H])C3([H])C2(C([H])([H])[H])C([H])([H])C31C([H])([H])[H]

$$$$
64:0:1
     RDKit          3D

 43 46  0  0  1  0  0  0  0  0999 V2000
    2.2595   -4.6828   -0.1496 C   0  0  0  0  0  0  0  0  0  0  0  0
    3.5799   -4.8116   -0.3042 C   0  0  0  0  0  0  0  0  0  0  0  0
    4.3992   -5.9584    0.1997 C   0  0  0  0  0  0  0  0  0  0  0  0
    5.5676   -5.3579    0.7320 O   0  0  0  0  0  0  0  0  0  0  0  0
    5.8456   -4.1945   -0.0456 C   0  0  2  0  0  0  0  0  0  0  0  0
    6.3079   -2.9936    0.8278 C   0  0  2  0  0  0  0  0  0  0  0  0
    7.7219   -3.0422    0.8294 O   0  0  0  0  0  0  0  0  0  0  0  0
    5.8128   -3.0711    2.2883 C   0  0  0  0  0  0  0  0  0  0  0  0
    4.2770   -3.0500    2.3930 C   0  0  0  0  0  0  0  0  0  0  0  0
    3.5489   -1.9617    1.5495 C   0  0  1  0  0  0  0  0  0  0  0  0
    3.1957   -0.7644    2.4378 C   0  0  0  0  0  0  0  0  0  0  0  0
    4.2972   -1.5117    0.2717 C   0  0  1  0  0  0  0  0  0  0  0  0
    5.8247   -1.6483    0.2167 C   0  0  1  0  0  0  0  0  0  0  0  0
    6.5949   -0.4694    0.7485 C   0  0  0  0  0  0  0  0  0  0  0  0
    5.6256   -1.6239   -1.2973 C   0  0  0  0  0  0  0  0  0  0  0  0
    4.2975   -2.3475   -1.0340 C   0  0  2  0  0  0  0  0  0  0  0  0
    3.2046   -1.9920   -2.0593 C   0  0  0  0  0  0  0  0  0  0  0  0
    4.5897   -3.8705   -0.9047 C   0  0  2  0  0  0  0  0  0  0  0  0
    4.8825   -4.2634   -2.2271 O   0  0  0  0  0  0  0  0  0  0  0  0
    1.7296   -3.8158   -0.4981 H   0  0  0  0  0  0  0  0  0  0  0  0
    1.7128   -5.4773    0.3365 H   0  0  0  0  0  0  0  0  0  0  0  0
    3.8636   -6.5940    0.9038 H   0  0  0  0  0  0  0  0  0  0  0  0
    4.6727   -6.5694   -0.6591 H   0  0  0  0  0  0  0  0  0  0  0  0
    6.6573   -4.4387   -0.7144 H   0  0  0  0  0  0  0  0  0  0  0  0
    7.9675   -3.8271    1.2989 H   0  0  0  0  0  0  0  0  0  0  0  0
    6.2006   -3.9648    2.7782 H   0  0  0  0  0  0  0  0  0  0  0  0
    6.2013   -2.2330    2.8645 H   0  0  0  0  0  0  0  0  0  0  0  0
    3.8868   -4.0328    2.1295 H   0  0  0  0  0  0  0  0  0  0  0  0
    4.0055   -2.9488    3.4413 H   0  0  0  0  0  0  0  0  0  0  0  0
    2.5861   -2.3777    1.2560 H   0  0  0  0  0  0  0  0  0  0  0  0
    4.0854   -0.2606    2.8217 H   0  0  0  0  0  0  0  0  0  0  0  0
    2.5951   -1.0815    3.2890 H   0  0  0  0  0  0  0  0  0  0  0  0
    2.6024   -0.0339    1.8866 H   0  0  0  0  0  0  0  0  0  0  0  0
    4.0082   -0.4872    0.0134 H   0  0  0  0  0  0  0  0  0  0  0  0
    6.1943    0.4516    0.3369 H   0  0  0  0  0  0  0  0  0  0  0  0
    7.6469   -0.5381    0.4818 H   0  0  0  0  0  0  0  0  0  0  0  0
    6.5015   -0.3786    1.8249 H   0  0  0  0  0  0  0  0  0  0  0  0
    5.5102   -0.6250   -1.7178 H   0  0  0  0  0  0  0  0  0  0  0  0
    6.3768   -2.1938   -1.8438 H   0  0  0  0  0  0  0  0  0  0  0  0
    3.4053   -2.4082   -3.0447 H   0  0  0  0  0  0  0  0  0  0  0  0
    3.1514   -0.9132   -2.1935 H   0  0  0  0  0  0  0  0  0  0  0  0
    2.2121   -2.3044   -1.7616 H   0  0  0  0  0  0  0  0  0  0  0  0
    4.1876   -4.8721   -2.4776 H   0  0  0  0  0  0  0  0  0  0  0  0
  1  2  2  0
  1 20  1  0
  1 21  1  0
  2 18  1  0
  2  3  1  0
  3  4  1  0
  3 22  1  0
  3 23  1  0
  4  5  1  0
  5 18  1  0
  5  6  1  0
  5 24  1  6
  6 13  1  0
  6  7  1  1
  6  8  1  0
  7 25  1  0
  8  9  1  0
  8 26  1  0
  8 27  1  0
  9 10  1  0
  9 28  1  0
  9 29  1  0
 10 11  1  0
 10 12  1  0
 10 30  1  6
 11 31  1  0
 11 32  1  0
 11 33  1  0
 12 16  1  0
 12 13  1  0
 12 34  1  6
 13 14  1  1
 13 15  1  0
 14 35  1  0
 14 36  1  0
 14 37  1  0
 15 16  1  0
 15 38  1  0
 15 39  1  0
 16 17  1  6
 16 18  1  0
 17 40  1  0
 17 41  1  0
 17 42  1  0
 18 19  1  6
 19 43  1  0
M  END
>  <i_m_ct_stereo_status>  (276) 
1

>  <s_m_source_file>  (276) 
/var/tmp/pbs.5076255.sched01/tmp8hdfbsd6/1003312lgh9.sdf

>  <i_m_source_file_index>  (276) 
9

>  <i_lp_mmshare_version>  (276) 
48012

>  <i_f3d_flags>  (276) 
0

>  <s_epik_input>  (276) 
TzFbQ0gyXUMoPVtDSDJdKVtDQF0oW09IXSkoW0NASF0xW0NAXTIzW09IXSlbQ0BAXTQoW0NIM10pW0NASF0oW0NAXTMoW0NIM10pW0NIMl00KVtDQEhdKFtDSDNdKVtDSDJdW0NIMl0y

>  <s_epik_cmdline>  (276) 
J2VwaWtfcHl0aG9uJywgJy1waHQnLCAnMi4wJywgJy1waCcsICc3LjAnLCAnLXRuJywgJzgnLCAnLW1hJywgJzIwMCcsICctaW1hZScsICc8aW5maWxlLm1hZT4nLCAnLW9tYWUnLCAnPG91dGZpbGUubWFlPic=

>  <r_lp_tautomer_probability>  (276) 
1

>  <r_epik_Ionization_Penalty>  (276) 
1.85351e-07

>  <r_epik_Ionization_Penalty_Charging>  (276) 
0

>  <r_epik_Ionization_Penalty_Neutral>  (276) 
1.85351e-07

>  <r_epik_State_Penalty>  (276) 
-0

>  <r_epik_Charging_Adjusted_Penalty>  (276) 
0

>  <i_epik_Tot_Q>  (276) 
0

>  <i_epik_Tot_abs_Q>  (276) 
0

>  <s_lp_Force_Field>  (276) 
OPLS3e

>  <r_lp_Energy>  (276) 
47.0649

>  <b_lp_Chiralities_Consistent>  (276) 
1

>  <s_lp_Variant>  (276) 
64:0-1

>  <s_i_glide_gridfile>  (276) 
pfpi4k_grid

>  <i_i_glide_lignum>  (276) 
9

>  <i_i_glide_rotatable_bonds>  (276) 
2

>  <r_i_docking_score>  (276) 
-3.01156

>  <r_i_glide_ligand_efficiency>  (276) 
-0.158503

>  <r_i_glide_ligand_efficiency_sa>  (276) 
-0.42295

>  <r_i_glide_ligand_efficiency_ln>  (276) 
-0.763494

>  <r_i_glide_gscore>  (276) 
-3.01156

>  <r_i_glide_lipo>  (276) 
-0.287079

>  <r_i_glide_hbond>  (276) 
0

>  <r_i_glide_metal>  (276) 
-0

>  <r_i_glide_rewards>  (276) 
-1.60664

>  <r_i_glide_evdw>  (276) 
-8.1115

>  <r_i_glide_ecoul>  (276) 
-4.74844

>  <r_i_glide_erotb>  (276) 
0

>  <r_i_glide_esite>  (276) 
0

>  <r_i_glide_emodel>  (276) 
-15.3316

>  <r_i_glide_energy>  (276) 
-12.8599

>  <r_i_glide_einternal>  (276) 
1.0513

>  <r_i_glide_intrahb_reward>  (276) 
-0

>  <i_i_glide_confnum>  (276) 
1

>  <i_i_glide_posenum>  (276) 
1

>  <r_i_glide_eff_state_penalty>  (276) 
0

>  <ligand_id>  (276) 
64

>  <original_smiles>  (276) 
C=C1COC2C3(O)CCC(C)C4C3(C)CC4(C)C12O

>  <smiles>  (276) 
[H]OC12C(=C([H])[H])C([H])([H])OC1([H])C1(O[H])C([H])([H])C([H])([H])C([H])(C([H])([H])[H])C3([H])C2(C([H])([H])[H])C([H])([H])C31C([H])([H])[H]

$$$$
65:0:0
     RDKit          3D

 31 37  0  0  1  0  0  0  0  0999 V2000
    1.1065   -6.2156    0.6503 C   0  0  0  0  0  0  0  0  0  0  0  0
    1.6979   -5.1148   -0.0115 O   0  0  0  0  0  0  0  0  0  0  0  0
    2.9160   -4.6545    0.5631 C   0  0  2  0  0  0  0  0  0  0  0  0
    2.8726   -3.1896    1.2194 C   0  0  0  0  0  0  0  0  0  0  0  0
    4.2413   -2.3934    0.9639 C   0  0  1  0  0  0  0  0  0  0  0  0
    4.0101   -1.3713   -0.2163 C   0  0  2  0  0  0  0  0  0  0  0  0
    3.4562   -1.8127   -1.6005 C   0  0  1  0  0  0  0  0  0  0  0  0
    4.4293   -2.0937   -2.7887 C   0  0  0  0  0  0  0  0  0  0  0  0
    4.3310   -3.6235   -2.5385 C   0  0  2  0  0  0  0  0  0  0  0  0
    3.1459   -3.2960   -1.6200 C   0  0  1  0  0  0  0  0  0  0  0  0
    3.8023   -4.1849   -0.5367 C   0  0  2  0  0  0  0  0  0  0  0  0
    5.0873   -4.2780   -1.3590 C   0  0  2  0  0  0  0  0  0  0  0  0
    5.8376   -3.2630   -0.4242 C   0  0  1  0  0  0  0  0  0  0  0  0
    5.3424   -1.8740   -0.0076 C   0  0  2  0  0  0  0  0  0  0  0  0
    4.7969   -3.6800    0.5339 C   0  0  1  0  0  0  0  0  0  0  0  0
    0.1756   -6.4788    0.1495 H   0  0  0  0  0  0  0  0  0  0  0  0
    0.8685   -5.9715    1.6849 H   0  0  0  0  0  0  0  0  0  0  0  0
    1.7472   -7.0987    0.6319 H   0  0  0  0  0  0  0  0  0  0  0  0
    3.3809   -5.4234    1.1989 H   0  0  0  0  0  0  0  0  0  0  0  0
    2.0370   -2.6060    0.8106 H   0  0  0  0  0  0  0  0  0  0  0  0
    2.7028   -3.2795    2.2855 H   0  0  0  0  0  0  0  0  0  0  0  0
    3.8165   -0.3385    0.0368 H   0  0  0  0  0  0  0  0  0  0  0  0
    2.6100   -1.2165   -1.9333 H   0  0  0  0  0  0  0  0  0  0  0  0
    4.0137   -1.8024   -3.7564 H   0  0  0  0  0  0  0  0  0  0  0  0
    5.4437   -1.6994   -2.6748 H   0  0  0  0  0  0  0  0  0  0  0  0
    4.0487   -4.2536   -3.3884 H   0  0  0  0  0  0  0  0  0  0  0  0
    2.1785   -3.5954   -2.0312 H   0  0  0  0  0  0  0  0  0  0  0  0
    5.4178   -5.3255   -1.4380 H   0  0  0  0  0  0  0  0  0  0  0  0
    6.8307   -3.5386   -0.1281 H   0  0  0  0  0  0  0  0  0  0  0  0
    6.1072   -1.2048    0.3843 H   0  0  0  0  0  0  0  0  0  0  0  0
    5.1868   -4.3795    1.2832 H   0  0  0  0  0  0  0  0  0  0  0  0
  1  2  1  0
  1 16  1  0
  1 17  1  0
  1 18  1  0
  2  3  1  0
 11  3  1  1
  3  4  1  0
  3 19  1  1
  5  4  1  6
  4 20  1  0
  4 21  1  0
  5 14  1  0
  5 15  1  0
  5  6  1  0
  6 14  1  0
  6  7  1  0
  6 22  1  1
  7 10  1  0
  7  8  1  0
  7 23  1  6
  8  9  1  0
  8 24  1  0
  8 25  1  0
  9 12  1  0
  9 10  1  0
  9 26  1  6
 10 11  1  0
 10 27  1  6
 11 15  1  0
 11 12  1  0
 12 13  1  0
 12 28  1  6
 13 14  1  0
 13 15  1  0
 13 29  1  1
 14 30  1  1
 15 31  1  1
M  END
>  <i_m_ct_stereo_status>  (277) 
1

>  <s_m_source_file>  (277) 
/var/tmp/pbs.5076255.sched01/tmp8hdfbsd6/1003312lgh9.sdf

>  <i_m_source_file_index>  (277) 
10

>  <i_lp_mmshare_version>  (277) 
48012

>  <i_f3d_flags>  (277) 
0

>  <s_epik_input>  (277) 
W0NIM11PW0NASF0oW0NIMl0xKVtDQF0yKFtDQEhdM1tDQEhdNFtDQEhdNVtDQF0xNjcpW0NAQEhdKFtDQEBIXTNbQ0gyXTQpW0NAQEhdKFtDQEBIXTU2KVtDSF0yNw==

>  <s_epik_cmdline>  (277) 
J2VwaWtfcHl0aG9uJywgJy1waHQnLCAnMi4wJywgJy1waCcsICc3LjAnLCAnLXRuJywgJzgnLCAnLW1hJywgJzIwMCcsICctaW1hZScsICc8aW5maWxlLm1hZT4nLCAnLW9tYWUnLCAnPG91dGZpbGUubWFlPic=

>  <r_lp_tautomer_probability>  (277) 
1

>  <r_epik_Ionization_Penalty>  (277) 
6.96604e-11

>  <r_epik_Ionization_Penalty_Charging>  (277) 
0

>  <r_epik_Ionization_Penalty_Neutral>  (277) 
6.96604e-11

>  <r_epik_State_Penalty>  (277) 
-0

>  <r_epik_Charging_Adjusted_Penalty>  (277) 
0

>  <i_epik_Tot_Q>  (277) 
0

>  <i_epik_Tot_abs_Q>  (277) 
0

>  <s_lp_Force_Field>  (277) 
OPLS3e

>  <r_lp_Energy>  (277) 
216.018

>  <b_lp_Chiralities_Consistent>  (277) 
1

>  <s_lp_Variant>  (277) 
65:0-1

>  <s_i_glide_gridfile>  (277) 
pfpi4k_grid

>  <i_i_glide_lignum>  (277) 
10

>  <i_i_glide_rotatable_bonds>  (277) 
1

>  <r_i_docking_score>  (277) 
-3.01215

>  <r_i_glide_ligand_efficiency>  (277) 
-0.20081

>  <r_i_glide_ligand_efficiency_sa>  (277) 
-0.49524

>  <r_i_glide_ligand_efficiency_ln>  (277) 
-0.812326

>  <r_i_glide_gscore>  (277) 
-3.01215

>  <r_i_glide_lipo>  (277) 
-0.277945

>  <r_i_glide_hbond>  (277) 
-0.0753814

>  <r_i_glide_metal>  (277) 
-0

>  <r_i_glide_rewards>  (277) 
-2.04357

>  <r_i_glide_evdw>  (277) 
-11.7369

>  <r_i_glide_ecoul>  (277) 
-0.189368

>  <r_i_glide_erotb>  (277) 
0

>  <r_i_glide_esite>  (277) 
0

>  <r_i_glide_emodel>  (277) 
-10.6671

>  <r_i_glide_energy>  (277) 
-11.9262

>  <r_i_glide_einternal>  (277) 
1.92825

>  <r_i_glide_intrahb_reward>  (277) 
-0

>  <i_i_glide_confnum>  (277) 
2

>  <i_i_glide_posenum>  (277) 
6

>  <r_i_glide_eff_state_penalty>  (277) 
0

>  <ligand_id>  (277) 
65

>  <original_smiles>  (277) 
COC1CC23C4C5CC6C5C15C6C(C42)C35

>  <smiles>  (277) 
[H]C([H])([H])OC1([H])C([H])([H])C23C4([H])C5([H])C([H])([H])C6([H])C5([H])C15C6([H])C([H])(C42[H])C35[H]

$$$$
65:0:1
     RDKit          3D

 31 37  0  0  1  0  0  0  0  0999 V2000
    3.9294   -5.6109    0.8112 C   0  0  0  0  0  0  0  0  0  0  0  0
    3.2483   -4.3580    0.8723 O   0  0  0  0  0  0  0  0  0  0  0  0
    4.1022   -3.2343    0.6155 C   0  0  2  0  0  0  0  0  0  0  0  0
    3.3438   -1.8472    0.4179 C   0  0  0  0  0  0  0  0  0  0  0  0
    4.0546   -0.9267   -0.6714 C   0  0  1  0  0  0  0  0  0  0  0  0
    3.2532   -1.0617   -2.0220 C   0  0  2  0  0  0  0  0  0  0  0  0
    2.9740   -2.4015   -2.7059 C   0  0  1  0  0  0  0  0  0  0  0  0
    3.8952   -2.9459   -3.8502 C   0  0  0  0  0  0  0  0  0  0  0  0
    4.6545   -3.8572   -2.8543 C   0  0  2  0  0  0  0  0  0  0  0  0
    3.5308   -3.5305   -1.8706 C   0  0  1  0  0  0  0  0  0  0  0  0
    4.5684   -3.2826   -0.7987 C   0  0  2  0  0  0  0  0  0  0  0  0
    5.6880   -3.2800   -1.8453 C   0  0  2  0  0  0  0  0  0  0  0  0
    5.7894   -1.7652   -1.8565 C   0  0  1  0  0  0  0  0  0  0  0  0
    4.6645   -0.7692   -2.0984 C   0  0  2  0  0  0  0  0  0  0  0  0
    5.1819   -1.8778   -0.5400 C   0  0  1  0  0  0  0  0  0  0  0  0
    3.2301   -6.4261    0.9726 H   0  0  0  0  0  0  0  0  0  0  0  0
    4.6995   -5.6720    1.5761 H   0  0  0  0  0  0  0  0  0  0  0  0
    4.3987   -5.7958   -0.1553 H   0  0  0  0  0  0  0  0  0  0  0  0
    4.9062   -3.2003    1.3596 H   0  0  0  0  0  0  0  0  0  0  0  0
    2.3243   -2.0623    0.1057 H   0  0  0  0  0  0  0  0  0  0  0  0
    3.2848   -1.3256    1.3706 H   0  0  0  0  0  0  0  0  0  0  0  0
    2.5769   -0.2721   -2.3408 H   0  0  0  0  0  0  0  0  0  0  0  0
    1.9226   -2.5925   -2.9499 H   0  0  0  0  0  0  0  0  0  0  0  0
    3.3381   -3.5286   -4.5904 H   0  0  0  0  0  0  0  0  0  0  0  0
    4.5334   -2.1933   -4.3209 H   0  0  0  0  0  0  0  0  0  0  0  0
    4.7283   -4.9189   -3.0599 H   0  0  0  0  0  0  0  0  0  0  0  0
    2.7805   -4.2693   -1.6427 H   0  0  0  0  0  0  0  0  0  0  0  0
    6.5640   -3.8358   -1.5091 H   0  0  0  0  0  0  0  0  0  0  0  0
    6.8214   -1.4506   -1.8212 H   0  0  0  0  0  0  0  0  0  0  0  0
    4.9762    0.2065   -2.4103 H   0  0  0  0  0  0  0  0  0  0  0  0
    5.9170   -1.7345    0.2413 H   0  0  0  0  0  0  0  0  0  0  0  0
  1  2  1  0
  1 16  1  0
  1 17  1  0
  1 18  1  0
  2  3  1  0
 11  3  1  1
  3  4  1  0
  3 19  1  1
  5  4  1  6
  4 20  1  0
  4 21  1  0
  5 14  1  0
  5 15  1  0
  5  6  1  0
  6 14  1  0
  6  7  1  0
  6 22  1  1
  7 10  1  0
  7  8  1  0
  7 23  1  6
  8  9  1  0
  8 24  1  0
  8 25  1  0
  9 12  1  0
  9 10  1  0
  9 26  1  6
 10 11  1  0
 10 27  1  1
 11 15  1  0
 11 12  1  0
 12 13  1  0
 12 28  1  1
 13 14  1  0
 13 15  1  0
 13 29  1  1
 14 30  1  1
 15 31  1  1
M  END
>  <i_m_ct_stereo_status>  (278) 
1

>  <s_m_source_file>  (278) 
/var/tmp/pbs.5076255.sched01/tmp8hdfbsd6/1003312lgh9.sdf

>  <i_m_source_file_index>  (278) 
10

>  <i_lp_mmshare_version>  (278) 
48012

>  <i_f3d_flags>  (278) 
0

>  <s_epik_input>  (278) 
W0NIM11PW0NASF0oW0NIMl0xKVtDQF0yKFtDQEhdM1tDQEhdNFtDQEhdNVtDQF0xNjcpW0NAQEhdKFtDQEBIXTNbQ0gyXTQpW0NAQEhdKFtDQEBIXTU2KVtDSF0yNw==

>  <s_epik_cmdline>  (278) 
J2VwaWtfcHl0aG9uJywgJy1waHQnLCAnMi4wJywgJy1waCcsICc3LjAnLCAnLXRuJywgJzgnLCAnLW1hJywgJzIwMCcsICctaW1hZScsICc8aW5maWxlLm1hZT4nLCAnLW9tYWUnLCAnPG91dGZpbGUubWFlPic=

>  <r_lp_tautomer_probability>  (278) 
1

>  <r_epik_Ionization_Penalty>  (278) 
6.96604e-11

>  <r_epik_Ionization_Penalty_Charging>  (278) 
0

>  <r_epik_Ionization_Penalty_Neutral>  (278) 
6.96604e-11

>  <r_epik_State_Penalty>  (278) 
-0

>  <r_epik_Charging_Adjusted_Penalty>  (278) 
0

>  <i_epik_Tot_Q>  (278) 
0

>  <i_epik_Tot_abs_Q>  (278) 
0

>  <s_lp_Force_Field>  (278) 
OPLS3e

>  <r_lp_Energy>  (278) 
216.018

>  <b_lp_Chiralities_Consistent>  (278) 
1

>  <s_lp_Variant>  (278) 
65:0-1

>  <s_i_glide_gridfile>  (278) 
pfpi4k_grid

>  <i_i_glide_lignum>  (278) 
10

>  <i_i_glide_rotatable_bonds>  (278) 
1

>  <r_i_docking_score>  (278) 
-2.90963

>  <r_i_glide_ligand_efficiency>  (278) 
-0.193976

>  <r_i_glide_ligand_efficiency_sa>  (278) 
-0.478385

>  <r_i_glide_ligand_efficiency_ln>  (278) 
-0.78468

>  <r_i_glide_gscore>  (278) 
-2.90963

>  <r_i_glide_lipo>  (278) 
-0.340329

>  <r_i_glide_hbond>  (278) 
0

>  <r_i_glide_metal>  (278) 
-0

>  <r_i_glide_rewards>  (278) 
-2.04357

>  <r_i_glide_evdw>  (278) 
-12.2015

>  <r_i_glide_ecoul>  (278) 
0.562267

>  <r_i_glide_erotb>  (278) 
0

>  <r_i_glide_esite>  (278) 
0

>  <r_i_glide_emodel>  (278) 
-11.923

>  <r_i_glide_energy>  (278) 
-11.6392

>  <r_i_glide_einternal>  (278) 
0.0637356

>  <r_i_glide_intrahb_reward>  (278) 
-0

>  <i_i_glide_confnum>  (278) 
2

>  <i_i_glide_posenum>  (278) 
1

>  <r_i_glide_eff_state_penalty>  (278) 
0

>  <ligand_id>  (278) 
65

>  <original_smiles>  (278) 
COC1CC23C4C5CC6C5C15C6C(C42)C35

>  <smiles>  (278) 
[H]C([H])([H])OC1([H])C([H])([H])C23C4([H])C5([H])C([H])([H])C6([H])C5([H])C15C6([H])C([H])(C42[H])C35[H]

$$$$
65:0:2
     RDKit          3D

 31 37  0  0  1  0  0  0  0  0999 V2000
    2.1751   -4.8921    1.7007 C   0  0  0  0  0  0  0  0  0  0  0  0
    2.4004   -4.3624    0.4087 O   0  0  0  0  0  0  0  0  0  0  0  0
    3.7289   -3.8806    0.1912 C   0  0  2  0  0  0  0  0  0  0  0  0
    3.9387   -2.3142    0.4320 C   0  0  0  0  0  0  0  0  0  0  0  0
    4.9843   -1.7243   -0.5895 C   0  0  1  0  0  0  0  0  0  0  0  0
    4.1714   -0.9731   -1.7509 C   0  0  2  0  0  0  0  0  0  0  0  0
    3.0946   -1.6708   -2.5570 C   0  0  1  0  0  0  0  0  0  0  0  0
    3.4113   -2.2386   -3.9666 C   0  0  0  0  0  0  0  0  0  0  0  0
    3.5046   -3.6514   -3.3876 C   0  0  2  0  0  0  0  0  0  0  0  0
    2.8516   -3.1012   -2.1308 C   0  0  1  0  0  0  0  0  0  0  0  0
    3.9528   -3.7673   -1.2843 C   0  0  2  0  0  0  0  0  0  0  0  0
    4.7481   -4.1159   -2.5730 C   0  0  2  0  0  0  0  0  0  0  0  0
    5.7658   -2.9974   -2.3044 C   0  0  1  0  0  0  0  0  0  0  0  0
    5.4751   -1.5208   -2.0656 C   0  0  2  0  0  0  0  0  0  0  0  0
    5.3318   -3.1152   -0.9360 C   0  0  1  0  0  0  0  0  0  0  0  0
    1.1484   -5.2489    1.7752 H   0  0  0  0  0  0  0  0  0  0  0  0
    2.3198   -4.1292    2.4640 H   0  0  0  0  0  0  0  0  0  0  0  0
    2.8207   -5.7460    1.9043 H   0  0  0  0  0  0  0  0  0  0  0  0
    4.4599   -4.5246    0.7141 H   0  0  0  0  0  0  0  0  0  0  0  0
    2.9826   -1.7922    0.3387 H   0  0  0  0  0  0  0  0  0  0  0  0
    4.2782   -2.1520    1.4531 H   0  0  0  0  0  0  0  0  0  0  0  0
    4.2310    0.1192   -1.7893 H   0  0  0  0  0  0  0  0  0  0  0  0
    2.1726   -1.1038   -2.6201 H   0  0  0  0  0  0  0  0  0  0  0  0
    2.5849   -2.1766   -4.6630 H   0  0  0  0  0  0  0  0  0  0  0  0
    4.3495   -1.9302   -4.4440 H   0  0  0  0  0  0  0  0  0  0  0  0
    2.9186   -4.4069   -3.9100 H   0  0  0  0  0  0  0  0  0  0  0  0
    1.8262   -3.4154   -1.9353 H   0  0  0  0  0  0  0  0  0  0  0  0
    5.0332   -5.1705   -2.5678 H   0  0  0  0  0  0  0  0  0  0  0  0
    6.8208   -3.2244   -2.5075 H   0  0  0  0  0  0  0  0  0  0  0  0
    6.2249   -0.8122   -2.3091 H   0  0  0  0  0  0  0  0  0  0  0  0
    6.0612   -3.6284   -0.3075 H   0  0  0  0  0  0  0  0  0  0  0  0
  1  2  1  0
  1 16  1  0
  1 17  1  0
  1 18  1  0
  2  3  1  0
 11  3  1  1
  3  4  1  0
  3 19  1  1
  5  4  1  6
  4 20  1  0
  4 21  1  0
  5 14  1  0
  5 15  1  0
  5  6  1  0
  6 14  1  0
  6  7  1  0
  6 22  1  1
  7 10  1  0
  7  8  1  0
  7 23  1  6
  8  9  1  0
  8 24  1  0
  8 25  1  0
  9 12  1  0
  9 10  1  0
  9 26  1  6
 10 11  1  0
 10 27  1  1
 11 15  1  0
 11 12  1  0
 12 13  1  0
 12 28  1  1
 13 14  1  0
 13 15  1  0
 13 29  1  1
 14 30  1  1
 15 31  1  1
M  END
>  <i_m_ct_stereo_status>  (279) 
1

>  <s_m_source_file>  (279) 
/var/tmp/pbs.5076255.sched01/tmp8hdfbsd6/1003312lgh9.sdf

>  <i_m_source_file_index>  (279) 
10

>  <i_lp_mmshare_version>  (279) 
48012

>  <i_f3d_flags>  (279) 
0

>  <s_epik_input>  (279) 
W0NIM11PW0NASF0oW0NIMl0xKVtDQF0yKFtDQEhdM1tDQEhdNFtDQEhdNVtDQF0xNjcpW0NAQEhdKFtDQEBIXTNbQ0gyXTQpW0NAQEhdKFtDQEBIXTU2KVtDSF0yNw==

>  <s_epik_cmdline>  (279) 
J2VwaWtfcHl0aG9uJywgJy1waHQnLCAnMi4wJywgJy1waCcsICc3LjAnLCAnLXRuJywgJzgnLCAnLW1hJywgJzIwMCcsICctaW1hZScsICc8aW5maWxlLm1hZT4nLCAnLW9tYWUnLCAnPG91dGZpbGUubWFlPic=

>  <r_lp_tautomer_probability>  (279) 
1

>  <r_epik_Ionization_Penalty>  (279) 
6.96604e-11

>  <r_epik_Ionization_Penalty_Charging>  (279) 
0

>  <r_epik_Ionization_Penalty_Neutral>  (279) 
6.96604e-11

>  <r_epik_State_Penalty>  (279) 
-0

>  <r_epik_Charging_Adjusted_Penalty>  (279) 
0

>  <i_epik_Tot_Q>  (279) 
0

>  <i_epik_Tot_abs_Q>  (279) 
0

>  <s_lp_Force_Field>  (279) 
OPLS3e

>  <r_lp_Energy>  (279) 
216.018

>  <b_lp_Chiralities_Consistent>  (279) 
1

>  <s_lp_Variant>  (279) 
65:0-1

>  <s_i_glide_gridfile>  (279) 
pfpi4k_grid

>  <i_i_glide_lignum>  (279) 
10

>  <i_i_glide_rotatable_bonds>  (279) 
1

>  <r_i_docking_score>  (279) 
-2.82808

>  <r_i_glide_ligand_efficiency>  (279) 
-0.188539

>  <r_i_glide_ligand_efficiency_sa>  (279) 
-0.464976

>  <r_i_glide_ligand_efficiency_ln>  (279) 
-0.762687

>  <r_i_glide_gscore>  (279) 
-2.82808

>  <r_i_glide_lipo>  (279) 
-0.314549

>  <r_i_glide_hbond>  (279) 
0

>  <r_i_glide_metal>  (279) 
-0

>  <r_i_glide_rewards>  (279) 
-2.04357

>  <r_i_glide_evdw>  (279) 
-9.35499

>  <r_i_glide_ecoul>  (279) 
-0.0147342

>  <r_i_glide_erotb>  (279) 
0

>  <r_i_glide_esite>  (279) 
0

>  <r_i_glide_emodel>  (279) 
-9.41481

>  <r_i_glide_energy>  (279) 
-9.36972

>  <r_i_glide_einternal>  (279) 
0.950956

>  <r_i_glide_intrahb_reward>  (279) 
-0

>  <i_i_glide_confnum>  (279) 
1

>  <i_i_glide_posenum>  (279) 
12

>  <r_i_glide_eff_state_penalty>  (279) 
0

>  <ligand_id>  (279) 
65

>  <original_smiles>  (279) 
COC1CC23C4C5CC6C5C15C6C(C42)C35

>  <smiles>  (279) 
[H]C([H])([H])OC1([H])C([H])([H])C23C4([H])C5([H])C([H])([H])C6([H])C5([H])C15C6([H])C([H])(C42[H])C35[H]

$$$$
66:0:0
     RDKit          3D

 50 54  0  0  1  0  0  0  0  0999 V2000
    5.5370   -6.5792    3.2208 C   0  0  0  0  0  0  0  0  0  0  0  0
    4.6950   -6.4613    1.9211 C   0  0  1  0  0  0  0  0  0  0  0  0
    4.9954   -7.7442    1.1374 C   0  0  0  0  0  0  0  0  0  0  0  0
    4.2162   -8.8370    1.0863 C   0  0  0  0  0  0  0  0  0  0  0  0
    2.9102   -8.9788    1.8370 C   0  0  1  0  0  0  0  0  0  0  0  0
    2.8738  -10.2316    2.4861 O   0  0  0  0  0  0  0  0  0  0  0  0
    2.7249   -7.8505    2.8744 C   0  0  0  0  0  0  0  0  0  0  0  0
    3.1805   -6.4585    2.3429 C   0  0  2  0  0  0  0  0  0  0  0  0
    2.2337   -5.9859    1.2259 C   0  0  0  0  0  0  0  0  0  0  0  0
    1.0289   -6.2547    1.2442 O   0  0  0  0  0  0  0  0  0  0  0  0
    2.8448   -5.1758    0.0830 C   0  0  1  0  0  0  0  0  0  0  0  0
    1.8190   -4.5990   -0.7000 O   0  0  0  0  0  0  0  0  0  0  0  0
    3.9734   -4.2226    0.5802 C   0  0  2  0  0  0  0  0  0  0  0  0
    3.6329   -3.2643    1.7493 C   0  0  0  0  0  0  0  0  0  0  0  0
    4.3730   -1.9687    1.3493 C   0  0  2  0  0  0  0  0  0  0  0  0
    3.4666   -1.3050    0.4765 O   0  0  0  0  0  0  0  0  0  0  0  0
    3.4615   -2.0242   -0.7244 C   0  0  1  0  0  0  0  0  0  0  0  0
    3.8181   -1.1937   -1.8118 O   0  0  0  0  0  0  0  0  0  0  0  0
    4.4985   -3.1690   -0.4838 C   0  0  2  0  0  0  0  0  0  0  0  0
    5.0358   -3.7366   -1.8151 C   0  0  0  0  0  0  0  0  0  0  0  0
    5.4653   -2.3475    0.3415 C   0  0  2  0  0  0  0  0  0  0  0  0
    6.6845   -3.1192    0.8396 C   0  0  0  0  0  0  0  0  0  0  0  0
    6.3416   -4.3936    1.6138 C   0  0  0  0  0  0  0  0  0  0  0  0
    5.1326   -5.1925    1.0453 C   0  0  1  0  0  0  0  0  0  0  0  0
    5.3284   -5.7647    3.9155 H   0  0  0  0  0  0  0  0  0  0  0  0
    6.6100   -6.6018    3.0230 H   0  0  0  0  0  0  0  0  0  0  0  0
    5.3415   -7.5081    3.7591 H   0  0  0  0  0  0  0  0  0  0  0  0
    5.9302   -7.7501    0.6045 H   0  0  0  0  0  0  0  0  0  0  0  0
    4.5181   -9.7052    0.5117 H   0  0  0  0  0  0  0  0  0  0  0  0
    2.1047   -8.9529    1.1021 H   0  0  0  0  0  0  0  0  0  0  0  0
    3.1257  -10.9090    1.8688 H   0  0  0  0  0  0  0  0  0  0  0  0
    1.6830   -7.8256    3.1960 H   0  0  0  0  0  0  0  0  0  0  0  0
    3.2784   -8.0977    3.7793 H   0  0  0  0  0  0  0  0  0  0  0  0
    3.0503   -5.7364    3.1506 H   0  0  0  0  0  0  0  0  0  0  0  0
    3.3285   -5.9055   -0.5595 H   0  0  0  0  0  0  0  0  0  0  0  0
    2.1813   -4.4286   -1.5590 H   0  0  0  0  0  0  0  0  0  0  0  0
    2.5601   -3.0779    1.8292 H   0  0  0  0  0  0  0  0  0  0  0  0
    3.9652   -3.6375    2.7161 H   0  0  0  0  0  0  0  0  0  0  0  0
    4.6823   -1.3372    2.1822 H   0  0  0  0  0  0  0  0  0  0  0  0
    2.4587   -2.3659   -0.9283 H   0  0  0  0  0  0  0  0  0  0  0  0
    3.0667   -0.6460   -1.9844 H   0  0  0  0  0  0  0  0  0  0  0  0
    5.4841   -2.9635   -2.4399 H   0  0  0  0  0  0  0  0  0  0  0  0
    4.2525   -4.2323   -2.3875 H   0  0  0  0  0  0  0  0  0  0  0  0
    5.8134   -4.4677   -1.6264 H   0  0  0  0  0  0  0  0  0  0  0  0
    5.8223   -1.4587   -0.1822 H   0  0  0  0  0  0  0  0  0  0  0  0
    7.3263   -3.3589   -0.0063 H   0  0  0  0  0  0  0  0  0  0  0  0
    7.2692   -2.4599    1.4706 H   0  0  0  0  0  0  0  0  0  0  0  0
    7.2333   -5.0211    1.6111 H   0  0  0  0  0  0  0  0  0  0  0  0
    6.1696   -4.1135    2.6534 H   0  0  0  0  0  0  0  0  0  0  0  0
    5.5201   -5.6257    0.1250 H   0  0  0  0  0  0  0  0  0  0  0  0
  2  1  1  1
  1 25  1  0
  1 26  1  0
  1 27  1  0
  2  8  1  0
  2 24  1  0
  2  3  1  0
  3  4  2  0
  3 28  1  0
  4  5  1  0
  4 29  1  0
  5  6  1  0
  5  7  1  0
  5 30  1  6
  6 31  1  0
  7  8  1  0
  7 32  1  0
  7 33  1  0
  8  9  1  0
  8 34  1  1
  9 10  2  0
  9 11  1  0
 11 12  1  0
 11 13  1  0
 11 35  1  6
 12 36  1  0
 13 19  1  0
 13 24  1  0
 13 14  1  1
 14 15  1  0
 14 37  1  0
 14 38  1  0
 15 21  1  0
 15 16  1  0
 15 39  1  1
 16 17  1  0
 17 18  1  0
 17 19  1  0
 17 40  1  6
 18 41  1  0
 19 20  1  6
 19 21  1  0
 20 42  1  0
 20 43  1  0
 20 44  1  0
 21 22  1  0
 21 45  1  6
 22 23  1  0
 22 46  1  0
 22 47  1  0
 23 24  1  0
 23 48  1  0
 23 49  1  0
 24 50  1  6
M  END
>  <i_m_ct_stereo_status>  (280) 
1

>  <s_m_source_file>  (280) 
/var/tmp/pbs.5076255.sched01/tmp8hdfbsd6/1003312lgh9.sdf

>  <i_m_source_file_index>  (280) 
11

>  <i_lp_mmshare_version>  (280) 
48012

>  <i_f3d_flags>  (280) 
0

>  <s_epik_input>  (280) 
W0NIXTE9W0NIXVtDQEBIXShbT0hdKVtDSDJdW0NASF0oQyg9TylbQ0BIXTJbT0hdKVtDQF0xKFtDSDNdKVtDQEBIXTNbQ0gyXVtDSDJdW0NAQEhdKFtDQF00KFtDQEBdMjM1KVtDSDNdKVtDQEhdKFtDSDJdNSlPW0NASF00W09IXQ==

>  <s_epik_cmdline>  (280) 
J2VwaWtfcHl0aG9uJywgJy1waHQnLCAnMi4wJywgJy1waCcsICc3LjAnLCAnLXRuJywgJzgnLCAnLW1hJywgJzIwMCcsICctaW1hZScsICc8aW5maWxlLm1hZT4nLCAnLW9tYWUnLCAnPG91dGZpbGUubWFlPic=

>  <r_lp_tautomer_probability>  (280) 
1

>  <r_epik_Ionization_Penalty>  (280) 
2.44971e-07

>  <r_epik_Ionization_Penalty_Charging>  (280) 
0

>  <r_epik_Ionization_Penalty_Neutral>  (280) 
2.44971e-07

>  <r_epik_State_Penalty>  (280) 
-0

>  <r_epik_Charging_Adjusted_Penalty>  (280) 
0

>  <i_epik_Tot_Q>  (280) 
0

>  <i_epik_Tot_abs_Q>  (280) 
0

>  <s_epik_Chemistry_Notes>  (280) 
This compound contains an acetal/aminal-like group ( X-CH(R)-Y where X, Y are N, S, or O) that may be acid/base labile, releasing an aldehyde.

>  <s_lp_Force_Field>  (280) 
OPLS3e

>  <r_lp_Energy>  (280) 
58.7924

>  <b_lp_Chiralities_Consistent>  (280) 
1

>  <s_lp_Variant>  (280) 
66:0-1

>  <s_i_glide_gridfile>  (280) 
pfpi4k_grid

>  <i_i_glide_lignum>  (280) 
11

>  <i_i_glide_rotatable_bonds>  (280) 
3

>  <r_i_docking_score>  (280) 
-4.15275

>  <r_i_glide_ligand_efficiency>  (280) 
-0.173031

>  <r_i_glide_ligand_efficiency_sa>  (280) 
-0.499108

>  <r_i_glide_ligand_efficiency_ln>  (280) 
-0.993943

>  <r_i_glide_gscore>  (280) 
-4.15275

>  <r_i_glide_lipo>  (280) 
-0.409764

>  <r_i_glide_hbond>  (280) 
-0.258677

>  <r_i_glide_metal>  (280) 
-0

>  <r_i_glide_rewards>  (280) 
-1.12904

>  <r_i_glide_evdw>  (280) 
-21.9958

>  <r_i_glide_ecoul>  (280) 
-7.64725

>  <r_i_glide_erotb>  (280) 
0

>  <r_i_glide_esite>  (280) 
-0.108383

>  <r_i_glide_emodel>  (280) 
-37.5269

>  <r_i_glide_energy>  (280) 
-29.6431

>  <r_i_glide_einternal>  (280) 
1.35716

>  <r_i_glide_intrahb_reward>  (280) 
-0

>  <i_i_glide_confnum>  (280) 
1

>  <i_i_glide_posenum>  (280) 
19

>  <r_i_glide_eff_state_penalty>  (280) 
0

>  <ligand_id>  (280) 
66

>  <original_smiles>  (280) 
CC12C=CC(O)CC1C(=O)C(O)C13CC4OC(O)C1(C)C4CCC23

>  <smiles>  (280) 
[H]OC1([H])OC2([H])C([H])([H])C34C([H])(O[H])C(=O)C5([H])C([H])([H])C([H])(O[H])C([H])=C([H])C5(C([H])([H])[H])C3([H])C([H])([H])C([H])([H])C2([H])C14C([H])([H])[H]

$$$$
66:0:1
     RDKit          3D

 50 54  0  0  1  0  0  0  0  0999 V2000
    6.4452   -1.8237    0.3186 C   0  0  0  0  0  0  0  0  0  0  0  0
    4.9409   -2.0284    0.6476 C   0  0  1  0  0  0  0  0  0  0  0  0
    4.1935   -1.2482   -0.4377 C   0  0  0  0  0  0  0  0  0  0  0  0
    3.6407   -1.7874   -1.5446 C   0  0  0  0  0  0  0  0  0  0  0  0
    3.6950   -3.2617   -1.8830 C   0  0  1  0  0  0  0  0  0  0  0  0
    4.0320   -3.4510   -3.2392 O   0  0  0  0  0  0  0  0  0  0  0  0
    4.6965   -4.0187   -0.9911 C   0  0  0  0  0  0  0  0  0  0  0  0
    4.6316   -3.5634    0.4959 C   0  0  2  0  0  0  0  0  0  0  0  0
    3.2926   -3.9870    1.1213 C   0  0  0  0  0  0  0  0  0  0  0  0
    2.7341   -5.0314    0.7852 O   0  0  0  0  0  0  0  0  0  0  0  0
    2.6871   -3.0617    2.1765 C   0  0  1  0  0  0  0  0  0  0  0  0
    1.6902   -3.7561    2.8927 O   0  0  0  0  0  0  0  0  0  0  0  0
    3.7822   -2.3992    3.0658 C   0  0  2  0  0  0  0  0  0  0  0  0
    4.8099   -3.3359    3.7559 C   0  0  0  0  0  0  0  0  0  0  0  0
    4.9888   -2.6782    5.1442 C   0  0  2  0  0  0  0  0  0  0  0  0
    3.9178   -3.2001    5.9245 O   0  0  0  0  0  0  0  0  0  0  0  0
    2.7452   -2.5990    5.4625 C   0  0  1  0  0  0  0  0  0  0  0  0
    2.0716   -1.9217    6.5031 O   0  0  0  0  0  0  0  0  0  0  0  0
    3.2419   -1.6152    4.3384 C   0  0  2  0  0  0  0  0  0  0  0  0
    2.2326   -0.4720    4.0651 C   0  0  0  0  0  0  0  0  0  0  0  0
    4.5340   -1.2179    5.0284 C   0  0  2  0  0  0  0  0  0  0  0  0
    5.4047   -0.2397    4.2368 C   0  0  0  0  0  0  0  0  0  0  0  0
    5.7159   -0.7083    2.8138 C   0  0  0  0  0  0  0  0  0  0  0  0
    4.5550   -1.4346    2.0850 C   0  0  1  0  0  0  0  0  0  0  0  0
    7.0857   -2.4199    0.9685 H   0  0  0  0  0  0  0  0  0  0  0  0
    6.7450   -0.7788    0.3973 H   0  0  0  0  0  0  0  0  0  0  0  0
    6.6843   -2.1077   -0.7058 H   0  0  0  0  0  0  0  0  0  0  0  0
    4.1091   -0.1849   -0.2864 H   0  0  0  0  0  0  0  0  0  0  0  0
    3.1057   -1.1612   -2.2461 H   0  0  0  0  0  0  0  0  0  0  0  0
    2.6890   -3.6588   -1.7418 H   0  0  0  0  0  0  0  0  0  0  0  0
    3.7956   -4.3490   -3.4551 H   0  0  0  0  0  0  0  0  0  0  0  0
    4.5213   -5.0909   -1.0783 H   0  0  0  0  0  0  0  0  0  0  0  0
    5.7037   -3.8822   -1.3838 H   0  0  0  0  0  0  0  0  0  0  0  0
    5.3938   -4.1243    1.0391 H   0  0  0  0  0  0  0  0  0  0  0  0
    2.1633   -2.2701    1.6365 H   0  0  0  0  0  0  0  0  0  0  0  0
    1.2426   -3.1381    3.4503 H   0  0  0  0  0  0  0  0  0  0  0  0
    4.4352   -4.3542    3.8665 H   0  0  0  0  0  0  0  0  0  0  0  0
    5.7520   -3.4014    3.2165 H   0  0  0  0  0  0  0  0  0  0  0  0
    5.9604   -2.8442    5.6110 H   0  0  0  0  0  0  0  0  0  0  0  0
    2.0806   -3.3924    5.1513 H   0  0  0  0  0  0  0  0  0  0  0  0
    2.6023   -1.1868    6.7627 H   0  0  0  0  0  0  0  0  0  0  0  0
    1.9874    0.0761    4.9736 H   0  0  0  0  0  0  0  0  0  0  0  0
    1.3054   -0.8591    3.6437 H   0  0  0  0  0  0  0  0  0  0  0  0
    2.6273    0.2719    3.3732 H   0  0  0  0  0  0  0  0  0  0  0  0
    4.3735   -0.7901    6.0188 H   0  0  0  0  0  0  0  0  0  0  0  0
    4.9017    0.7274    4.2027 H   0  0  0  0  0  0  0  0  0  0  0  0
    6.3361   -0.0628    4.7739 H   0  0  0  0  0  0  0  0  0  0  0  0
    6.0023    0.1593    2.2317 H   0  0  0  0  0  0  0  0  0  0  0  0
    6.6010   -1.3409    2.8655 H   0  0  0  0  0  0  0  0  0  0  0  0
    3.8451   -0.6375    1.8685 H   0  0  0  0  0  0  0  0  0  0  0  0
  2  1  1  6
  1 25  1  0
  1 26  1  0
  1 27  1  0
  2  8  1  0
  2 24  1  0
  2  3  1  0
  3  4  2  0
  3 28  1  0
  4  5  1  0
  4 29  1  0
  5  6  1  0
  5  7  1  0
  5 30  1  6
  6 31  1  0
  7  8  1  0
  7 32  1  0
  7 33  1  0
  8  9  1  0
  8 34  1  1
  9 10  2  0
  9 11  1  0
 11 12  1  0
 11 13  1  0
 11 35  1  6
 12 36  1  0
 13 19  1  0
 13 24  1  0
 13 14  1  1
 14 15  1  0
 14 37  1  0
 14 38  1  0
 15 21  1  0
 15 16  1  0
 15 39  1  1
 16 17  1  0
 17 18  1  0
 17 19  1  0
 17 40  1  6
 18 41  1  0
 19 20  1  6
 19 21  1  0
 20 42  1  0
 20 43  1  0
 20 44  1  0
 21 22  1  0
 21 45  1  1
 22 23  1  0
 22 46  1  0
 22 47  1  0
 23 24  1  0
 23 48  1  0
 23 49  1  0
 24 50  1  6
M  END
>  <i_m_ct_stereo_status>  (281) 
1

>  <s_m_source_file>  (281) 
/var/tmp/pbs.5076255.sched01/tmp8hdfbsd6/1003312lgh9.sdf

>  <i_m_source_file_index>  (281) 
11

>  <i_lp_mmshare_version>  (281) 
48012

>  <i_f3d_flags>  (281) 
0

>  <s_epik_input>  (281) 
W0NIXTE9W0NIXVtDQEBIXShbT0hdKVtDSDJdW0NASF0oQyg9TylbQ0BIXTJbT0hdKVtDQF0xKFtDSDNdKVtDQEBIXTNbQ0gyXVtDSDJdW0NAQEhdKFtDQF00KFtDQEBdMjM1KVtDSDNdKVtDQEhdKFtDSDJdNSlPW0NASF00W09IXQ==

>  <s_epik_cmdline>  (281) 
J2VwaWtfcHl0aG9uJywgJy1waHQnLCAnMi4wJywgJy1waCcsICc3LjAnLCAnLXRuJywgJzgnLCAnLW1hJywgJzIwMCcsICctaW1hZScsICc8aW5maWxlLm1hZT4nLCAnLW9tYWUnLCAnPG91dGZpbGUubWFlPic=

>  <r_lp_tautomer_probability>  (281) 
1

>  <r_epik_Ionization_Penalty>  (281) 
2.44971e-07

>  <r_epik_Ionization_Penalty_Charging>  (281) 
0

>  <r_epik_Ionization_Penalty_Neutral>  (281) 
2.44971e-07

>  <r_epik_State_Penalty>  (281) 
-0

>  <r_epik_Charging_Adjusted_Penalty>  (281) 
0

>  <i_epik_Tot_Q>  (281) 
0

>  <i_epik_Tot_abs_Q>  (281) 
0

>  <s_epik_Chemistry_Notes>  (281) 
This compound contains an acetal/aminal-like group ( X-CH(R)-Y where X, Y are N, S, or O) that may be acid/base labile, releasing an aldehyde.

>  <s_lp_Force_Field>  (281) 
OPLS3e

>  <r_lp_Energy>  (281) 
58.7924

>  <b_lp_Chiralities_Consistent>  (281) 
1

>  <s_lp_Variant>  (281) 
66:0-1

>  <s_i_glide_gridfile>  (281) 
pfpi4k_grid

>  <i_i_glide_lignum>  (281) 
11

>  <i_i_glide_rotatable_bonds>  (281) 
3

>  <r_i_docking_score>  (281) 
-3.45213

>  <r_i_glide_ligand_efficiency>  (281) 
-0.143839

>  <r_i_glide_ligand_efficiency_sa>  (281) 
-0.414903

>  <r_i_glide_ligand_efficiency_ln>  (281) 
-0.826253

>  <r_i_glide_gscore>  (281) 
-3.45213

>  <r_i_glide_lipo>  (281) 
-0.374477

>  <r_i_glide_hbond>  (281) 
-0.234066

>  <r_i_glide_metal>  (281) 
-0

>  <r_i_glide_rewards>  (281) 
-1.12904

>  <r_i_glide_evdw>  (281) 
-21.824

>  <r_i_glide_ecoul>  (281) 
-4.14578

>  <r_i_glide_erotb>  (281) 
0

>  <r_i_glide_esite>  (281) 
-0.00147793

>  <r_i_glide_emodel>  (281) 
-32.9246

>  <r_i_glide_energy>  (281) 
-25.9697

>  <r_i_glide_einternal>  (281) 
0.483176

>  <r_i_glide_intrahb_reward>  (281) 
-0

>  <i_i_glide_confnum>  (281) 
2

>  <i_i_glide_posenum>  (281) 
2

>  <r_i_glide_eff_state_penalty>  (281) 
0

>  <ligand_id>  (281) 
66

>  <original_smiles>  (281) 
CC12C=CC(O)CC1C(=O)C(O)C13CC4OC(O)C1(C)C4CCC23

>  <smiles>  (281) 
[H]OC1([H])OC2([H])C([H])([H])C34C([H])(O[H])C(=O)C5([H])C([H])([H])C([H])(O[H])C([H])=C([H])C5(C([H])([H])[H])C3([H])C([H])([H])C([H])([H])C2([H])C14C([H])([H])[H]

$$$$
66:0:2
     RDKit          3D

 50 54  0  0  1  0  0  0  0  0999 V2000
    6.5238   -6.0643    2.9028 C   0  0  0  0  0  0  0  0  0  0  0  0
    5.3853   -5.9287    1.8575 C   0  0  1  0  0  0  0  0  0  0  0  0
    5.2340   -7.3266    1.2450 C   0  0  0  0  0  0  0  0  0  0  0  0
    4.3059   -8.2381    1.5776 C   0  0  0  0  0  0  0  0  0  0  0  0
    3.2598   -8.0276    2.6514 C   0  0  1  0  0  0  0  0  0  0  0  0
    3.2037   -9.1549    3.4959 O   0  0  0  0  0  0  0  0  0  0  0  0
    3.5638   -6.7743    3.4987 C   0  0  0  0  0  0  0  0  0  0  0  0
    4.0711   -5.5744    2.6423 C   0  0  2  0  0  0  0  0  0  0  0  0
    2.9408   -5.0687    1.7360 C   0  0  0  0  0  0  0  0  0  0  0  0
    1.7684   -5.0958    2.1141 O   0  0  0  0  0  0  0  0  0  0  0  0
    3.3265   -4.5376    0.3513 C   0  0  1  0  0  0  0  0  0  0  0  0
    2.2355   -3.8435   -0.2166 O   0  0  0  0  0  0  0  0  0  0  0  0
    4.6786   -3.7611    0.3979 C   0  0  2  0  0  0  0  0  0  0  0  0
    4.8326   -2.6264    1.4478 C   0  0  0  0  0  0  0  0  0  0  0  0
    5.6260   -1.5508    0.6685 C   0  0  2  0  0  0  0  0  0  0  0  0
    4.6264   -0.8196   -0.0342 O   0  0  0  0  0  0  0  0  0  0  0  0
    4.1642   -1.6478   -1.0607 C   0  0  1  0  0  0  0  0  0  0  0  0
    4.3436   -1.0331   -2.3201 O   0  0  0  0  0  0  0  0  0  0  0  0
    5.0341   -2.9503   -0.9166 C   0  0  2  0  0  0  0  0  0  0  0  0
    5.0917   -3.7561   -2.2328 C   0  0  0  0  0  0  0  0  0  0  0  0
    6.3159   -2.2507   -0.5077 C   0  0  2  0  0  0  0  0  0  0  0  0
    7.5019   -3.1786   -0.2155 C   0  0  0  0  0  0  0  0  0  0  0  0
    7.1895   -4.2781    0.8012 C   0  0  0  0  0  0  0  0  0  0  0  0
    5.7552   -4.8775    0.7035 C   0  0  1  0  0  0  0  0  0  0  0  0
    6.6419   -5.1489    3.4848 H   0  0  0  0  0  0  0  0  0  0  0  0
    7.4818   -6.3153    2.4453 H   0  0  0  0  0  0  0  0  0  0  0  0
    6.3399   -6.8668    3.6171 H   0  0  0  0  0  0  0  0  0  0  0  0
    5.9466   -7.5872    0.4817 H   0  0  0  0  0  0  0  0  0  0  0  0
    4.2893   -9.2016    1.0816 H   0  0  0  0  0  0  0  0  0  0  0  0
    2.2967   -7.9240    2.1508 H   0  0  0  0  0  0  0  0  0  0  0  0
    3.1401   -9.9349    2.9649 H   0  0  0  0  0  0  0  0  0  0  0  0
    2.6752   -6.5034    4.0693 H   0  0  0  0  0  0  0  0  0  0  0  0
    4.2998   -7.0232    4.2619 H   0  0  0  0  0  0  0  0  0  0  0  0
    4.2880   -4.7533    3.3266 H   0  0  0  0  0  0  0  0  0  0  0  0
    3.4561   -5.4069   -0.2941 H   0  0  0  0  0  0  0  0  0  0  0  0
    2.4488   -3.6166   -1.1088 H   0  0  0  0  0  0  0  0  0  0  0  0
    3.8709   -2.2258    1.7700 H   0  0  0  0  0  0  0  0  0  0  0  0
    5.3618   -2.9441    2.3450 H   0  0  0  0  0  0  0  0  0  0  0  0
    6.2570   -0.9078    1.2813 H   0  0  0  0  0  0  0  0  0  0  0  0
    3.0918   -1.7753   -0.9373 H   0  0  0  0  0  0  0  0  0  0  0  0
    3.6895   -0.3530   -2.3963 H   0  0  0  0  0  0  0  0  0  0  0  0
    5.4557   -3.1585   -3.0685 H   0  0  0  0  0  0  0  0  0  0  0  0
    4.1163   -4.1565   -2.4978 H   0  0  0  0  0  0  0  0  0  0  0  0
    5.7747   -4.5932   -2.1474 H   0  0  0  0  0  0  0  0  0  0  0  0
    6.6301   -1.5239   -1.2543 H   0  0  0  0  0  0  0  0  0  0  0  0
    7.8318   -3.6296   -1.1501 H   0  0  0  0  0  0  0  0  0  0  0  0
    8.3496   -2.5922    0.1379 H   0  0  0  0  0  0  0  0  0  0  0  0
    7.9312   -5.0682    0.6782 H   0  0  0  0  0  0  0  0  0  0  0  0
    7.3574   -3.8530    1.7856 H   0  0  0  0  0  0  0  0  0  0  0  0
    5.7899   -5.4750   -0.2036 H   0  0  0  0  0  0  0  0  0  0  0  0
  2  1  1  1
  1 25  1  0
  1 26  1  0
  1 27  1  0
  2  8  1  0
  2 24  1  0
  2  3  1  0
  3  4  2  0
  3 28  1  0
  4  5  1  0
  4 29  1  0
  5  6  1  0
  5  7  1  0
  5 30  1  6
  6 31  1  0
  7  8  1  0
  7 32  1  0
  7 33  1  0
  8  9  1  0
  8 34  1  1
  9 10  2  0
  9 11  1  0
 11 12  1  0
 11 13  1  0
 11 35  1  6
 12 36  1  0
 13 19  1  0
 13 24  1  0
 13 14  1  1
 14 15  1  0
 14 37  1  0
 14 38  1  0
 15 21  1  0
 15 16  1  0
 15 39  1  1
 16 17  1  0
 17 18  1  0
 17 19  1  0
 17 40  1  1
 18 41  1  0
 19 20  1  6
 19 21  1  0
 20 42  1  0
 20 43  1  0
 20 44  1  0
 21 22  1  0
 21 45  1  6
 22 23  1  0
 22 46  1  0
 22 47  1  0
 23 24  1  0
 23 48  1  0
 23 49  1  0
 24 50  1  6
M  END
>  <i_m_ct_stereo_status>  (282) 
1

>  <s_m_source_file>  (282) 
/var/tmp/pbs.5076255.sched01/tmp8hdfbsd6/1003312lgh9.sdf

>  <i_m_source_file_index>  (282) 
11

>  <i_lp_mmshare_version>  (282) 
48012

>  <i_f3d_flags>  (282) 
0

>  <s_epik_input>  (282) 
W0NIXTE9W0NIXVtDQEBIXShbT0hdKVtDSDJdW0NASF0oQyg9TylbQ0BIXTJbT0hdKVtDQF0xKFtDSDNdKVtDQEBIXTNbQ0gyXVtDSDJdW0NAQEhdKFtDQF00KFtDQEBdMjM1KVtDSDNdKVtDQEhdKFtDSDJdNSlPW0NASF00W09IXQ==

>  <s_epik_cmdline>  (282) 
J2VwaWtfcHl0aG9uJywgJy1waHQnLCAnMi4wJywgJy1waCcsICc3LjAnLCAnLXRuJywgJzgnLCAnLW1hJywgJzIwMCcsICctaW1hZScsICc8aW5maWxlLm1hZT4nLCAnLW9tYWUnLCAnPG91dGZpbGUubWFlPic=

>  <r_lp_tautomer_probability>  (282) 
1

>  <r_epik_Ionization_Penalty>  (282) 
2.44971e-07

>  <r_epik_Ionization_Penalty_Charging>  (282) 
0

>  <r_epik_Ionization_Penalty_Neutral>  (282) 
2.44971e-07

>  <r_epik_State_Penalty>  (282) 
-0

>  <r_epik_Charging_Adjusted_Penalty>  (282) 
0

>  <i_epik_Tot_Q>  (282) 
0

>  <i_epik_Tot_abs_Q>  (282) 
0

>  <s_epik_Chemistry_Notes>  (282) 
This compound contains an acetal/aminal-like group ( X-CH(R)-Y where X, Y are N, S, or O) that may be acid/base labile, releasing an aldehyde.

>  <s_lp_Force_Field>  (282) 
OPLS3e

>  <r_lp_Energy>  (282) 
58.7924

>  <b_lp_Chiralities_Consistent>  (282) 
1

>  <s_lp_Variant>  (282) 
66:0-1

>  <s_i_glide_gridfile>  (282) 
pfpi4k_grid

>  <i_i_glide_lignum>  (282) 
11

>  <i_i_glide_rotatable_bonds>  (282) 
3

>  <r_i_docking_score>  (282) 
-3.42804

>  <r_i_glide_ligand_efficiency>  (282) 
-0.142835

>  <r_i_glide_ligand_efficiency_sa>  (282) 
-0.412008

>  <r_i_glide_ligand_efficiency_ln>  (282) 
-0.820488

>  <r_i_glide_gscore>  (282) 
-3.42804

>  <r_i_glide_lipo>  (282) 
-0.720198

>  <r_i_glide_hbond>  (282) 
-0.0130141

>  <r_i_glide_metal>  (282) 
-0

>  <r_i_glide_rewards>  (282) 
-1.12904

>  <r_i_glide_evdw>  (282) 
-24.4601

>  <r_i_glide_ecoul>  (282) 
-1.98817

>  <r_i_glide_erotb>  (282) 
0

>  <r_i_glide_esite>  (282) 
-0.0445533

>  <r_i_glide_emodel>  (282) 
-33.2194

>  <r_i_glide_energy>  (282) 
-26.4483

>  <r_i_glide_einternal>  (282) 
0.852251

>  <r_i_glide_intrahb_reward>  (282) 
-0

>  <i_i_glide_confnum>  (282) 
1

>  <i_i_glide_posenum>  (282) 
37

>  <r_i_glide_eff_state_penalty>  (282) 
0

>  <ligand_id>  (282) 
66

>  <original_smiles>  (282) 
CC12C=CC(O)CC1C(=O)C(O)C13CC4OC(O)C1(C)C4CCC23

>  <smiles>  (282) 
[H]OC1([H])OC2([H])C([H])([H])C34C([H])(O[H])C(=O)C5([H])C([H])([H])C([H])(O[H])C([H])=C([H])C5(C([H])([H])[H])C3([H])C([H])([H])C([H])([H])C2([H])C14C([H])([H])[H]

$$$$
67:0:0
     RDKit          3D

 51 57  0  0  1  0  0  0  0  0999 V2000
    2.7159   -9.4537    4.6659 C   0  0  0  0  0  0  0  0  0  0  0  0
    2.2845   -8.0358    4.1916 C   0  0  2  0  0  0  0  0  0  0  0  0
    3.1125   -7.0324    5.0709 C   0  0  1  0  0  0  0  0  0  0  0  0
    4.5090   -7.2100    4.9606 O   0  0  0  0  0  0  0  0  0  0  0  0
    2.7034   -5.5790    4.9088 C   0  0  2  0  0  0  0  0  0  0  0  0
    1.5142   -5.1538    5.6026 O   0  0  0  0  0  0  0  0  0  0  0  0
    1.4322   -5.3080    4.1871 C   0  0  2  0  0  0  0  0  0  0  0  0
    0.5452   -6.4578    3.7538 C   0  0  2  0  0  0  0  0  0  0  0  0
    0.7845   -7.7453    4.5442 C   0  0  1  0  0  0  0  0  0  0  0  0
   -0.2311   -8.7053    3.8671 C   0  0  1  0  0  0  0  0  0  0  0  0
   -1.5016   -8.6539    4.4814 O   0  0  0  0  0  0  0  0  0  0  0  0
   -0.3189   -8.1537    2.4341 C   0  0  0  0  0  0  0  0  0  0  0  0
    0.8471   -7.1488    2.4161 C   0  0  1  0  0  0  0  0  0  0  0  0
    0.8793   -6.3269    1.2553 O   0  0  0  0  0  0  0  0  0  0  0  0
    2.1879   -5.9438    0.9758 C   0  0  1  0  0  0  0  0  0  0  0  0
    2.4248   -4.6499    1.3974 O   0  0  0  0  0  0  0  0  0  0  0  0
    3.7338   -4.2151    1.0267 C   0  0  0  0  0  0  0  0  0  0  0  0
    4.0426   -2.8576    1.6772 C   0  0  0  0  0  0  0  0  0  0  0  0
    3.4823   -2.1908    0.4143 C   0  0  0  0  0  0  0  0  0  0  0  0
    3.7636   -3.4982   -0.3328 C   0  0  0  0  0  0  0  0  0  0  0  0
    4.7620   -5.2010    1.1688 O   0  0  0  0  0  0  0  0  0  0  0  0
    4.4255   -6.1449    2.1775 C   0  0  0  0  0  0  0  0  0  0  0  0
    3.1527   -6.9075    1.7161 C   0  0  1  0  0  0  0  0  0  0  0  0
    2.2341   -7.8424    2.5914 C   0  0  1  0  0  0  0  0  0  0  0  0
    2.3142   -9.2215    1.8584 C   0  0  0  0  0  0  0  0  0  0  0  0
    3.7294   -9.6925    4.3435 H   0  0  0  0  0  0  0  0  0  0  0  0
    2.0850  -10.2631    4.3139 H   0  0  0  0  0  0  0  0  0  0  0  0
    2.6938   -9.5294    5.7532 H   0  0  0  0  0  0  0  0  0  0  0  0
    2.9005   -7.2558    6.1175 H   0  0  0  0  0  0  0  0  0  0  0  0
    4.7112   -8.1015    5.2002 H   0  0  0  0  0  0  0  0  0  0  0  0
    3.4914   -4.8250    4.9501 H   0  0  0  0  0  0  0  0  0  0  0  0
    1.3195   -4.3673    3.6495 H   0  0  0  0  0  0  0  0  0  0  0  0
   -0.4854   -6.1146    3.8417 H   0  0  0  0  0  0  0  0  0  0  0  0
    0.6113   -7.6547    5.6191 H   0  0  0  0  0  0  0  0  0  0  0  0
    0.0741   -9.7477    3.8849 H   0  0  0  0  0  0  0  0  0  0  0  0
   -1.7488   -9.5670    4.7261 H   0  0  0  0  0  0  0  0  0  0  0  0
   -0.2680   -8.9398    1.6887 H   0  0  0  0  0  0  0  0  0  0  0  0
   -1.2585   -7.6259    2.2637 H   0  0  0  0  0  0  0  0  0  0  0  0
    2.3265   -5.9903   -0.1088 H   0  0  0  0  0  0  0  0  0  0  0  0
    3.4742   -2.6495    2.5843 H   0  0  0  0  0  0  0  0  0  0  0  0
    5.1101   -2.6733    1.8131 H   0  0  0  0  0  0  0  0  0  0  0  0
    2.4146   -1.9754    0.4880 H   0  0  0  0  0  0  0  0  0  0  0  0
    4.0417   -1.3258    0.0583 H   0  0  0  0  0  0  0  0  0  0  0  0
    4.7511   -3.5100   -0.7992 H   0  0  0  0  0  0  0  0  0  0  0  0
    2.9852   -3.8000   -1.0347 H   0  0  0  0  0  0  0  0  0  0  0  0
    5.2618   -6.8253    2.3337 H   0  0  0  0  0  0  0  0  0  0  0  0
    4.3065   -5.5642    3.0774 H   0  0  0  0  0  0  0  0  0  0  0  0
    3.5635   -7.5142    0.9069 H   0  0  0  0  0  0  0  0  0  0  0  0
    2.0534   -9.1148    0.8066 H   0  0  0  0  0  0  0  0  0  0  0  0
    1.6373   -9.9843    2.2336 H   0  0  0  0  0  0  0  0  0  0  0  0
    3.3179   -9.6487    1.8880 H   0  0  0  0  0  0  0  0  0  0  0  0
  2  1  1  6
  1 26  1  0
  1 27  1  0
  1 28  1  0
  2  9  1  0
  2 24  1  0
  2  3  1  0
  3  4  1  0
  3  5  1  0
  3 29  1  1
  4 30  1  0
  5  7  1  0
  5  6  1  0
  5 31  1  6
  6  7  1  0
  7  8  1  0
  7 32  1  6
  8 13  1  0
  8  9  1  0
  8 33  1  6
  9 10  1  0
  9 34  1  1
 10 11  1  0
 10 12  1  0
 10 35  1  6
 11 36  1  0
 12 13  1  0
 12 37  1  0
 12 38  1  0
 13 24  1  0
 13 14  1  6
 14 15  1  0
 15 23  1  0
 15 16  1  0
 15 39  1  6
 16 17  1  0
 17 20  1  0
 17 18  1  0
 17 21  1  0
 18 19  1  0
 18 40  1  0
 18 41  1  0
 19 20  1  0
 19 42  1  0
 19 43  1  0
 20 44  1  0
 20 45  1  0
 21 22  1  0
 22 23  1  0
 22 46  1  0
 22 47  1  0
 23 24  1  0
 23 48  1  6
 24 25  1  6
 25 49  1  0
 25 50  1  0
 25 51  1  0
M  END
>  <i_m_ct_stereo_status>  (283) 
1

>  <s_m_source_file>  (283) 
/var/tmp/pbs.5076255.sched01/tmp8hdfbsd6/1003312lgh9.sdf

>  <i_m_source_file_index>  (283) 
12

>  <i_lp_mmshare_version>  (283) 
48012

>  <i_f3d_flags>  (283) 
0

>  <s_epik_input>  (283) 
W0NAXTEyM1tDQEBIXTRbQ0BASF01W0NAQEhdKE81KVtDQEhdKFtPSF0pW0NAQF0oW0NIM10pKFtDQEBIXTRbQ0BASF0oW09IXSlbQ0gyXTEpW0NAXTMoW0NIM10pW0NASF02W0NAQEhdKE8yKU9DNyhPW0NIMl02KVtDSDJdW0NIMl1bQ0gyXTc=

>  <s_epik_cmdline>  (283) 
J2VwaWtfcHl0aG9uJywgJy1waHQnLCAnMi4wJywgJy1waCcsICc3LjAnLCAnLXRuJywgJzgnLCAnLW1hJywgJzIwMCcsICctaW1hZScsICc8aW5maWxlLm1hZT4nLCAnLW9tYWUnLCAnPG91dGZpbGUubWFlPic=

>  <r_lp_tautomer_probability>  (283) 
1

>  <r_epik_Ionization_Penalty>  (283) 
3.48093e-07

>  <r_epik_Ionization_Penalty_Charging>  (283) 
0

>  <r_epik_Ionization_Penalty_Neutral>  (283) 
3.48093e-07

>  <r_epik_State_Penalty>  (283) 
-0

>  <r_epik_Charging_Adjusted_Penalty>  (283) 
0

>  <i_epik_Tot_Q>  (283) 
0

>  <i_epik_Tot_abs_Q>  (283) 
0

>  <s_epik_Chemistry_Notes>  (283) 
This compound contains an acetal/aminal-like group ( X-CH(R)-Y where X, Y are N, S, or O) that may be acid/base labile, releasing an aldehyde.

>  <s_lp_Force_Field>  (283) 
OPLS3e

>  <r_lp_Energy>  (283) 
97.0162

>  <b_lp_Chiralities_Consistent>  (283) 
1

>  <s_lp_Variant>  (283) 
67:0-1

>  <s_i_glide_gridfile>  (283) 
pfpi4k_grid

>  <i_i_glide_lignum>  (283) 
12

>  <i_i_glide_rotatable_bonds>  (283) 
2

>  <r_i_docking_score>  (283) 
-3.90133

>  <r_i_glide_ligand_efficiency>  (283) 
-0.156053

>  <r_i_glide_ligand_efficiency_sa>  (283) 
-0.456302

>  <r_i_glide_ligand_efficiency_ln>  (283) 
-0.924732

>  <r_i_glide_gscore>  (283) 
-3.90133

>  <r_i_glide_lipo>  (283) 
-0.125313

>  <r_i_glide_hbond>  (283) 
-0.32

>  <r_i_glide_metal>  (283) 
-0

>  <r_i_glide_rewards>  (283) 
-1.0295

>  <r_i_glide_evdw>  (283) 
-21.3992

>  <r_i_glide_ecoul>  (283) 
-8.81093

>  <r_i_glide_erotb>  (283) 
0

>  <r_i_glide_esite>  (283) 
-0.0349175

>  <r_i_glide_emodel>  (283) 
-37.9731

>  <r_i_glide_energy>  (283) 
-30.2101

>  <r_i_glide_einternal>  (283) 
1.80782

>  <r_i_glide_intrahb_reward>  (283) 
-0

>  <i_i_glide_confnum>  (283) 
2

>  <i_i_glide_posenum>  (283) 
7

>  <r_i_glide_eff_state_penalty>  (283) 
0

>  <ligand_id>  (283) 
67

>  <original_smiles>  (283) 
CC12C(O)C3OC3C3C1C(O)CC31OC3OC4(CCC4)OCC3C12C

>  <smiles>  (283) 
[H]OC1([H])C([H])([H])C23OC4([H])OC5(OC([H])([H])C4([H])C2(C([H])([H])[H])C2(C([H])([H])[H])C([H])(O[H])C4([H])OC4([H])C3([H])C12[H])C([H])([H])C([H])([H])C5([H])[H]

$$$$
67:0:1
     RDKit          3D

 51 57  0  0  1  0  0  0  0  0999 V2000
    7.2624   -3.3666   -0.1616 C   0  0  0  0  0  0  0  0  0  0  0  0
    5.8262   -3.7855    0.2649 C   0  0  2  0  0  0  0  0  0  0  0  0
    5.9989   -5.1448    1.0411 C   0  0  1  0  0  0  0  0  0  0  0  0
    6.8687   -5.0573    2.1474 O   0  0  0  0  0  0  0  0  0  0  0  0
    4.6991   -5.8370    1.3975 C   0  0  2  0  0  0  0  0  0  0  0  0
    4.0556   -6.5726    0.3443 O   0  0  0  0  0  0  0  0  0  0  0  0
    3.4600   -5.3319    0.7325 C   0  0  2  0  0  0  0  0  0  0  0  0
    3.5588   -4.2511   -0.3207 C   0  0  2  0  0  0  0  0  0  0  0  0
    4.9367   -4.1459   -0.9770 C   0  0  1  0  0  0  0  0  0  0  0  0
    4.7017   -2.9859   -1.9844 C   0  0  1  0  0  0  0  0  0  0  0  0
    4.2303   -3.4562   -3.2348 O   0  0  0  0  0  0  0  0  0  0  0  0
    3.6343   -2.1333   -1.2718 C   0  0  0  0  0  0  0  0  0  0  0  0
    3.6062   -2.7849    0.1256 C   0  0  1  0  0  0  0  0  0  0  0  0
    2.5392   -2.3383    0.9359 O   0  0  0  0  0  0  0  0  0  0  0  0
    2.8686   -2.4142    2.2787 C   0  0  1  0  0  0  0  0  0  0  0  0
    2.2964   -3.5268    2.8726 O   0  0  0  0  0  0  0  0  0  0  0  0
    2.5604   -3.5650    4.2711 C   0  0  0  0  0  0  0  0  0  0  0  0
    2.0991   -4.9029    4.8642 C   0  0  0  0  0  0  0  0  0  0  0  0
    0.7463   -4.2385    5.1550 C   0  0  0  0  0  0  0  0  0  0  0  0
    1.4644   -2.8868    5.1069 C   0  0  0  0  0  0  0  0  0  0  0  0
    3.8815   -3.1646    4.6411 O   0  0  0  0  0  0  0  0  0  0  0  0
    4.8056   -3.4085    3.5884 C   0  0  0  0  0  0  0  0  0  0  0  0
    4.4102   -2.5062    2.3899 C   0  0  1  0  0  0  0  0  0  0  0  0
    4.9400   -2.6020    0.9076 C   0  0  1  0  0  0  0  0  0  0  0  0
    5.5861   -1.2001    0.6544 C   0  0  0  0  0  0  0  0  0  0  0  0
    7.8463   -3.0379    0.6989 H   0  0  0  0  0  0  0  0  0  0  0  0
    7.3015   -2.5710   -0.8978 H   0  0  0  0  0  0  0  0  0  0  0  0
    7.7991   -4.2026   -0.6078 H   0  0  0  0  0  0  0  0  0  0  0  0
    6.5053   -5.8456    0.3726 H   0  0  0  0  0  0  0  0  0  0  0  0
    7.0456   -5.9314    2.4618 H   0  0  0  0  0  0  0  0  0  0  0  0
    4.6390   -6.3543    2.3521 H   0  0  0  0  0  0  0  0  0  0  0  0
    2.5056   -5.4418    1.2424 H   0  0  0  0  0  0  0  0  0  0  0  0
    2.7639   -4.4378   -1.0423 H   0  0  0  0  0  0  0  0  0  0  0  0
    5.2569   -5.0582   -1.4778 H   0  0  0  0  0  0  0  0  0  0  0  0
    5.6016   -2.4115   -2.1857 H   0  0  0  0  0  0  0  0  0  0  0  0
    3.5647   -4.1163   -3.0776 H   0  0  0  0  0  0  0  0  0  0  0  0
    3.8450   -1.0651   -1.2728 H   0  0  0  0  0  0  0  0  0  0  0  0
    2.6554   -2.2519   -1.7425 H   0  0  0  0  0  0  0  0  0  0  0  0
    2.4805   -1.5146    2.7623 H   0  0  0  0  0  0  0  0  0  0  0  0
    2.0550   -5.7233    4.1469 H   0  0  0  0  0  0  0  0  0  0  0  0
    2.6367   -5.1832    5.7715 H   0  0  0  0  0  0  0  0  0  0  0  0
    0.0322   -4.3588    4.3398 H   0  0  0  0  0  0  0  0  0  0  0  0
    0.3082   -4.4923    6.1197 H   0  0  0  0  0  0  0  0  0  0  0  0
    1.8181   -2.5642    6.0884 H   0  0  0  0  0  0  0  0  0  0  0  0
    0.9174   -2.0950    4.5950 H   0  0  0  0  0  0  0  0  0  0  0  0
    5.8148   -3.1809    3.9346 H   0  0  0  0  0  0  0  0  0  0  0  0
    4.7523   -4.4683    3.4029 H   0  0  0  0  0  0  0  0  0  0  0  0
    4.6878   -1.5235    2.7706 H   0  0  0  0  0  0  0  0  0  0  0  0
    4.8810   -0.3974    0.8789 H   0  0  0  0  0  0  0  0  0  0  0  0
    5.9002   -1.0223   -0.3709 H   0  0  0  0  0  0  0  0  0  0  0  0
    6.4618   -1.0430    1.2864 H   0  0  0  0  0  0  0  0  0  0  0  0
  2  1  1  6
  1 26  1  0
  1 27  1  0
  1 28  1  0
  2  9  1  0
  2 24  1  0
  2  3  1  0
  3  4  1  0
  3  5  1  0
  3 29  1  6
  4 30  1  0
  5  7  1  0
  5  6  1  0
  5 31  1  1
  6  7  1  0
  7  8  1  0
  7 32  1  1
  8 13  1  0
  8  9  1  0
  8 33  1  6
  9 10  1  0
  9 34  1  6
 10 11  1  0
 10 12  1  0
 10 35  1  6
 11 36  1  0
 12 13  1  0
 12 37  1  0
 12 38  1  0
 13 24  1  0
 13 14  1  1
 14 15  1  0
 15 23  1  0
 15 16  1  0
 15 39  1  1
 16 17  1  0
 17 20  1  0
 17 18  1  0
 17 21  1  0
 18 19  1  0
 18 40  1  0
 18 41  1  0
 19 20  1  0
 19 42  1  0
 19 43  1  0
 20 44  1  0
 20 45  1  0
 21 22  1  0
 22 23  1  0
 22 46  1  0
 22 47  1  0
 23 24  1  0
 23 48  1  1
 24 25  1  6
 25 49  1  0
 25 50  1  0
 25 51  1  0
M  END
>  <i_m_ct_stereo_status>  (284) 
1

>  <s_m_source_file>  (284) 
/var/tmp/pbs.5076255.sched01/tmp8hdfbsd6/1003312lgh9.sdf

>  <i_m_source_file_index>  (284) 
12

>  <i_lp_mmshare_version>  (284) 
48012

>  <i_f3d_flags>  (284) 
0

>  <s_epik_input>  (284) 
W0NAXTEyM1tDQEBIXTRbQ0BASF01W0NAQEhdKE81KVtDQEhdKFtPSF0pW0NAQF0oW0NIM10pKFtDQEBIXTRbQ0BASF0oW09IXSlbQ0gyXTEpW0NAXTMoW0NIM10pW0NASF02W0NAQEhdKE8yKU9DNyhPW0NIMl02KVtDSDJdW0NIMl1bQ0gyXTc=

>  <s_epik_cmdline>  (284) 
J2VwaWtfcHl0aG9uJywgJy1waHQnLCAnMi4wJywgJy1waCcsICc3LjAnLCAnLXRuJywgJzgnLCAnLW1hJywgJzIwMCcsICctaW1hZScsICc8aW5maWxlLm1hZT4nLCAnLW9tYWUnLCAnPG91dGZpbGUubWFlPic=

>  <r_lp_tautomer_probability>  (284) 
1

>  <r_epik_Ionization_Penalty>  (284) 
3.48093e-07

>  <r_epik_Ionization_Penalty_Charging>  (284) 
0

>  <r_epik_Ionization_Penalty_Neutral>  (284) 
3.48093e-07

>  <r_epik_State_Penalty>  (284) 
-0

>  <r_epik_Charging_Adjusted_Penalty>  (284) 
0

>  <i_epik_Tot_Q>  (284) 
0

>  <i_epik_Tot_abs_Q>  (284) 
0

>  <s_epik_Chemistry_Notes>  (284) 
This compound contains an acetal/aminal-like group ( X-CH(R)-Y where X, Y are N, S, or O) that may be acid/base labile, releasing an aldehyde.

>  <s_lp_Force_Field>  (284) 
OPLS3e

>  <r_lp_Energy>  (284) 
97.0162

>  <b_lp_Chiralities_Consistent>  (284) 
1

>  <s_lp_Variant>  (284) 
67:0-1

>  <s_i_glide_gridfile>  (284) 
pfpi4k_grid

>  <i_i_glide_lignum>  (284) 
12

>  <i_i_glide_rotatable_bonds>  (284) 
2

>  <r_i_docking_score>  (284) 
-3.43523

>  <r_i_glide_ligand_efficiency>  (284) 
-0.137409

>  <r_i_glide_ligand_efficiency_sa>  (284) 
-0.401787

>  <r_i_glide_ligand_efficiency_ln>  (284) 
-0.814252

>  <r_i_glide_gscore>  (284) 
-3.43523

>  <r_i_glide_lipo>  (284) 
-0.601115

>  <r_i_glide_hbond>  (284) 
-0.252981

>  <r_i_glide_metal>  (284) 
-0

>  <r_i_glide_rewards>  (284) 
-1.02023

>  <r_i_glide_evdw>  (284) 
-24.5927

>  <r_i_glide_ecoul>  (284) 
-2.17705

>  <r_i_glide_erotb>  (284) 
0

>  <r_i_glide_esite>  (284) 
-0.00471087

>  <r_i_glide_emodel>  (284) 
-34.1631

>  <r_i_glide_energy>  (284) 
-26.7697

>  <r_i_glide_einternal>  (284) 
0.481911

>  <r_i_glide_intrahb_reward>  (284) 
-0

>  <i_i_glide_confnum>  (284) 
3

>  <i_i_glide_posenum>  (284) 
3

>  <r_i_glide_eff_state_penalty>  (284) 
0

>  <ligand_id>  (284) 
67

>  <original_smiles>  (284) 
CC12C(O)C3OC3C3C1C(O)CC31OC3OC4(CCC4)OCC3C12C

>  <smiles>  (284) 
[H]OC1([H])C([H])([H])C23OC4([H])OC5(OC([H])([H])C4([H])C2(C([H])([H])[H])C2(C([H])([H])[H])C([H])(O[H])C4([H])OC4([H])C3([H])C12[H])C([H])([H])C([H])([H])C5([H])[H]

$$$$
67:0:2
     RDKit          3D

 51 57  0  0  1  0  0  0  0  0999 V2000
    7.4034   -3.7987    0.0867 C   0  0  0  0  0  0  0  0  0  0  0  0
    5.8819   -3.8485    0.4150 C   0  0  2  0  0  0  0  0  0  0  0  0
    5.6843   -5.1409    1.2909 C   0  0  1  0  0  0  0  0  0  0  0  0
    6.4686   -5.1519    2.4649 O   0  0  0  0  0  0  0  0  0  0  0  0
    4.2349   -5.4919    1.5760 C   0  0  2  0  0  0  0  0  0  0  0  0
    3.5043   -6.1472    0.5213 O   0  0  0  0  0  0  0  0  0  0  0  0
    3.1954   -4.7751    0.7786 C   0  0  2  0  0  0  0  0  0  0  0  0
    3.6106   -3.8367   -0.3309 C   0  0  2  0  0  0  0  0  0  0  0  0
    5.0141   -4.1022   -0.8738 C   0  0  1  0  0  0  0  0  0  0  0  0
    5.1233   -3.0044   -1.9701 C   0  0  1  0  0  0  0  0  0  0  0  0
    4.6369   -3.4596   -3.2206 O   0  0  0  0  0  0  0  0  0  0  0  0
    4.2411   -1.8737   -1.4036 C   0  0  0  0  0  0  0  0  0  0  0  0
    3.9732   -2.3878    0.0252 C   0  0  1  0  0  0  0  0  0  0  0  0
    3.0137   -1.6214    0.7156 O   0  0  0  0  0  0  0  0  0  0  0  0
    3.2092   -1.6785    2.0858 C   0  0  1  0  0  0  0  0  0  0  0  0
    2.3521   -2.5821    2.6923 O   0  0  0  0  0  0  0  0  0  0  0  0
    2.5010   -2.5656    4.1097 C   0  0  0  0  0  0  0  0  0  0  0  0
    1.6996   -3.7091    4.7464 C   0  0  0  0  0  0  0  0  0  0  0  0
    0.5215   -2.7341    4.8804 C   0  0  0  0  0  0  0  0  0  0  0  0
    1.5380   -1.5901    4.8058 C   0  0  0  0  0  0  0  0  0  0  0  0
    3.8502   -2.4489    4.5662 O   0  0  0  0  0  0  0  0  0  0  0  0
    4.7623   -2.9807    3.6145 C   0  0  0  0  0  0  0  0  0  0  0  0
    4.6724   -2.1107    2.3328 C   0  0  1  0  0  0  0  0  0  0  0  0
    5.2557   -2.4502    0.9054 C   0  0  1  0  0  0  0  0  0  0  0  0
    6.2193   -1.2529    0.6176 C   0  0  0  0  0  0  0  0  0  0  0  0
    7.9893   -3.5339    0.9672 H   0  0  0  0  0  0  0  0  0  0  0  0
    7.6745   -3.0950   -0.6948 H   0  0  0  0  0  0  0  0  0  0  0  0
    7.7634   -4.7653   -0.2576 H   0  0  0  0  0  0  0  0  0  0  0  0
    6.0591   -5.9922    0.7224 H   0  0  0  0  0  0  0  0  0  0  0  0
    7.3811   -5.1662    2.2153 H   0  0  0  0  0  0  0  0  0  0  0  0
    3.9967   -5.9044    2.5546 H   0  0  0  0  0  0  0  0  0  0  0  0
    2.2135   -4.6175    1.2196 H   0  0  0  0  0  0  0  0  0  0  0  0
    2.8475   -3.9089   -1.1075 H   0  0  0  0  0  0  0  0  0  0  0  0
    5.1487   -5.1042   -1.2825 H   0  0  0  0  0  0  0  0  0  0  0  0
    6.1434   -2.6678   -2.1304 H   0  0  0  0  0  0  0  0  0  0  0  0
    3.8732   -4.0028   -3.0717 H   0  0  0  0  0  0  0  0  0  0  0  0
    4.6949   -0.8843   -1.4536 H   0  0  0  0  0  0  0  0  0  0  0  0
    3.2922   -1.8004   -1.9408 H   0  0  0  0  0  0  0  0  0  0  0  0
    3.0033   -0.6816    2.4814 H   0  0  0  0  0  0  0  0  0  0  0  0
    1.5129   -4.5554    4.0843 H   0  0  0  0  0  0  0  0  0  0  0  0
    2.0949   -4.0286    5.7125 H   0  0  0  0  0  0  0  0  0  0  0  0
   -0.1476   -2.7522    4.0178 H   0  0  0  0  0  0  0  0  0  0  0  0
   -0.0273   -2.8015    5.8203 H   0  0  0  0  0  0  0  0  0  0  0  0
    1.8882   -1.2769    5.7908 H   0  0  0  0  0  0  0  0  0  0  0  0
    1.2236   -0.7391    4.2015 H   0  0  0  0  0  0  0  0  0  0  0  0
    5.7718   -2.9663    4.0244 H   0  0  0  0  0  0  0  0  0  0  0  0
    4.4754   -4.0110    3.4920 H   0  0  0  0  0  0  0  0  0  0  0  0
    5.1423   -1.1875    2.6736 H   0  0  0  0  0  0  0  0  0  0  0  0
    5.7061   -0.2963    0.7295 H   0  0  0  0  0  0  0  0  0  0  0  0
    6.6303   -1.2449   -0.3856 H   0  0  0  0  0  0  0  0  0  0  0  0
    7.0633   -1.2454    1.3083 H   0  0  0  0  0  0  0  0  0  0  0  0
  2  1  1  6
  1 26  1  0
  1 27  1  0
  1 28  1  0
  2  9  1  0
  2 24  1  0
  2  3  1  0
  3  4  1  0
  3  5  1  0
  3 29  1  6
  4 30  1  0
  5  7  1  0
  5  6  1  0
  5 31  1  1
  6  7  1  0
  7  8  1  0
  7 32  1  1
  8 13  1  0
  8  9  1  0
  8 33  1  6
  9 10  1  0
  9 34  1  6
 10 11  1  0
 10 12  1  0
 10 35  1  6
 11 36  1  0
 12 13  1  0
 12 37  1  0
 12 38  1  0
 13 24  1  0
 13 14  1  1
 14 15  1  0
 15 23  1  0
 15 16  1  0
 15 39  1  1
 16 17  1  0
 17 20  1  0
 17 18  1  0
 17 21  1  0
 18 19  1  0
 18 40  1  0
 18 41  1  0
 19 20  1  0
 19 42  1  0
 19 43  1  0
 20 44  1  0
 20 45  1  0
 21 22  1  0
 22 23  1  0
 22 46  1  0
 22 47  1  0
 23 24  1  0
 23 48  1  1
 24 25  1  6
 25 49  1  0
 25 50  1  0
 25 51  1  0
M  END
>  <i_m_ct_stereo_status>  (285) 
1

>  <s_m_source_file>  (285) 
/var/tmp/pbs.5076255.sched01/tmp8hdfbsd6/1003312lgh9.sdf

>  <i_m_source_file_index>  (285) 
12

>  <i_lp_mmshare_version>  (285) 
48012

>  <i_f3d_flags>  (285) 
0

>  <s_epik_input>  (285) 
W0NAXTEyM1tDQEBIXTRbQ0BASF01W0NAQEhdKE81KVtDQEhdKFtPSF0pW0NAQF0oW0NIM10pKFtDQEBIXTRbQ0BASF0oW09IXSlbQ0gyXTEpW0NAXTMoW0NIM10pW0NASF02W0NAQEhdKE8yKU9DNyhPW0NIMl02KVtDSDJdW0NIMl1bQ0gyXTc=

>  <s_epik_cmdline>  (285) 
J2VwaWtfcHl0aG9uJywgJy1waHQnLCAnMi4wJywgJy1waCcsICc3LjAnLCAnLXRuJywgJzgnLCAnLW1hJywgJzIwMCcsICctaW1hZScsICc8aW5maWxlLm1hZT4nLCAnLW9tYWUnLCAnPG91dGZpbGUubWFlPic=

>  <r_lp_tautomer_probability>  (285) 
1

>  <r_epik_Ionization_Penalty>  (285) 
3.48093e-07

>  <r_epik_Ionization_Penalty_Charging>  (285) 
0

>  <r_epik_Ionization_Penalty_Neutral>  (285) 
3.48093e-07

>  <r_epik_State_Penalty>  (285) 
-0

>  <r_epik_Charging_Adjusted_Penalty>  (285) 
0

>  <i_epik_Tot_Q>  (285) 
0

>  <i_epik_Tot_abs_Q>  (285) 
0

>  <s_epik_Chemistry_Notes>  (285) 
This compound contains an acetal/aminal-like group ( X-CH(R)-Y where X, Y are N, S, or O) that may be acid/base labile, releasing an aldehyde.

>  <s_lp_Force_Field>  (285) 
OPLS3e

>  <r_lp_Energy>  (285) 
97.0162

>  <b_lp_Chiralities_Consistent>  (285) 
1

>  <s_lp_Variant>  (285) 
67:0-1

>  <s_i_glide_gridfile>  (285) 
pfpi4k_grid

>  <i_i_glide_lignum>  (285) 
12

>  <i_i_glide_rotatable_bonds>  (285) 
2

>  <r_i_docking_score>  (285) 
-3.29115

>  <r_i_glide_ligand_efficiency>  (285) 
-0.131646

>  <r_i_glide_ligand_efficiency_sa>  (285) 
-0.384936

>  <r_i_glide_ligand_efficiency_ln>  (285) 
-0.780102

>  <r_i_glide_gscore>  (285) 
-3.29115

>  <r_i_glide_lipo>  (285) 
-0.664855

>  <r_i_glide_hbond>  (285) 
-0.0851341

>  <r_i_glide_metal>  (285) 
-0

>  <r_i_glide_rewards>  (285) 
-1.02016

>  <r_i_glide_evdw>  (285) 
-26.44

>  <r_i_glide_ecoul>  (285) 
-1.26312

>  <r_i_glide_erotb>  (285) 
0

>  <r_i_glide_esite>  (285) 
-0.00953903

>  <r_i_glide_emodel>  (285) 
-34.6009

>  <r_i_glide_energy>  (285) 
-27.7032

>  <r_i_glide_einternal>  (285) 
0.636278

>  <r_i_glide_intrahb_reward>  (285) 
-0

>  <i_i_glide_confnum>  (285) 
3

>  <i_i_glide_posenum>  (285) 
9

>  <r_i_glide_eff_state_penalty>  (285) 
0

>  <ligand_id>  (285) 
67

>  <original_smiles>  (285) 
CC12C(O)C3OC3C3C1C(O)CC31OC3OC4(CCC4)OCC3C12C

>  <smiles>  (285) 
[H]OC1([H])C([H])([H])C23OC4([H])OC5(OC([H])([H])C4([H])C2(C([H])([H])[H])C2(C([H])([H])[H])C([H])(O[H])C4([H])OC4([H])C3([H])C12[H])C([H])([H])C([H])([H])C5([H])[H]

$$$$
68:0:0
     RDKit          3D

 32 34  0  0  1  0  0  0  0  0999 V2000
    0.6394   -8.0929    2.7600 N   0  0  0  0  0  0  0  0  0  0  0  0
    1.6721   -7.2466    2.6752 C   0  0  0  0  0  0  0  0  0  0  0  0
    2.5905   -7.2119    3.6642 N   0  0  0  0  0  0  0  0  0  0  0  0
    3.6156   -6.3596    3.5762 C   0  0  0  0  0  0  0  0  0  0  0  0
    3.8901   -5.4759    2.6013 N   0  0  0  0  0  0  0  0  0  0  0  0
    2.9583   -5.5177    1.6070 C   0  0  0  0  0  0  0  0  0  0  0  0
    1.8320   -6.3770    1.5719 C   0  0  0  0  0  0  0  0  0  0  0  0
    1.1022   -6.1716    0.4227 N   0  0  0  0  0  0  0  0  0  0  0  0
    1.8058   -5.2784   -0.2203 C   0  0  0  0  0  0  0  0  0  0  0  0
    2.8924   -4.7617    0.4532 N   0  0  0  0  0  0  0  0  0  0  0  0
    3.8746   -3.7452   -0.0227 C   0  0  2  0  0  0  0  0  0  0  0  0
    4.1803   -2.8641    1.0185 O   0  0  0  0  0  0  0  0  0  0  0  0
    4.0689   -1.5036    0.5901 C   0  0  1  0  0  0  0  0  0  0  0  0
    5.2487   -0.6674    1.1180 C   0  0  0  0  0  0  0  0  0  0  0  0
    5.0293   -0.2648    2.4529 O   0  0  0  0  0  0  0  0  0  0  0  0
    3.9972   -1.5756   -0.9430 C   0  0  1  0  0  0  0  0  0  0  0  0
    5.3016   -1.6177   -1.5075 O   0  0  0  0  0  0  0  0  0  0  0  0
    3.2757   -2.8932   -1.1418 C   0  0  1  0  0  0  0  0  0  0  0  0
    3.4871   -3.4371   -2.4320 O   0  0  0  0  0  0  0  0  0  0  0  0
    0.5897   -8.7382    3.5331 H   0  0  0  0  0  0  0  0  0  0  0  0
    0.0104   -8.1655    1.9737 H   0  0  0  0  0  0  0  0  0  0  0  0
    4.3165   -6.3823    4.3980 H   0  0  0  0  0  0  0  0  0  0  0  0
    1.4583   -4.9278   -1.1840 H   0  0  0  0  0  0  0  0  0  0  0  0
    4.7640   -4.3104   -0.3015 H   0  0  0  0  0  0  0  0  0  0  0  0
    3.1165   -1.1148    0.9614 H   0  0  0  0  0  0  0  0  0  0  0  0
    6.1887   -1.2158    1.0335 H   0  0  0  0  0  0  0  0  0  0  0  0
    5.3500    0.2364    0.5170 H   0  0  0  0  0  0  0  0  0  0  0  0
    4.2283    0.2400    2.4827 H   0  0  0  0  0  0  0  0  0  0  0  0
    3.4356   -0.7373   -1.3648 H   0  0  0  0  0  0  0  0  0  0  0  0
    5.6792   -2.4508   -1.2691 H   0  0  0  0  0  0  0  0  0  0  0  0
    2.2205   -2.7037   -0.9361 H   0  0  0  0  0  0  0  0  0  0  0  0
    3.1962   -4.3468   -2.4508 H   0  0  0  0  0  0  0  0  0  0  0  0
  1  2  1  0
  1 21  1  0
  1 20  1  0
  2  3  2  0
  2  7  1  0
  3  4  1  0
  4 22  1  0
  4  5  2  0
  5  6  1  0
  6 10  1  0
  6  7  2  0
  7  8  1  0
  8  9  2  0
  9 23  1  0
  9 10  1  0
 10 11  1  0
 11 18  1  0
 11 12  1  0
 11 24  1  6
 12 13  1  0
 13 14  1  0
 13 16  1  0
 13 25  1  1
 14 15  1  0
 14 26  1  0
 14 27  1  0
 15 28  1  0
 16 17  1  0
 16 18  1  0
 16 29  1  6
 17 30  1  0
 18 19  1  0
 18 31  1  1
 19 32  1  0
M  END
>  <i_m_ct_stereo_status>  (286) 
1

>  <s_m_source_file>  (286) 
/var/tmp/pbs.5076255.sched01/tmp8hdfbsd6/1003312lgh9.sdf

>  <i_m_source_file_index>  (286) 
13

>  <i_lp_mmshare_version>  (286) 
48012

>  <i_f3d_flags>  (286) 
0

>  <s_epik_input>  (286) 
bjFbY0hdW25IXVxjKD1OXFtIXSljKGMxMiluW2NIXW4yW0NAQEhdM09bQ0BASF0oW0NIMl1bT0hdKVtDQEBIXShbT0hdKVtDQEhdM1tPSF0=

>  <s_epik_cmdline>  (286) 
J2VwaWtfcHl0aG9uJywgJy1waHQnLCAnMi4wJywgJy1waCcsICc3LjAnLCAnLXRuJywgJzgnLCAnLW1hJywgJzIwMCcsICctaW1hZScsICc8aW5maWxlLm1hZT4nLCAnLW9tYWUnLCAnPG91dGZpbGUubWFlPic=

>  <r_lp_tautomer_probability>  (286) 
1

>  <r_epik_Ionization_Penalty>  (286) 
0.000428445

>  <r_epik_Ionization_Penalty_Charging>  (286) 
0

>  <r_epik_Ionization_Penalty_Neutral>  (286) 
0.000428445

>  <r_epik_State_Penalty>  (286) 
-0

>  <r_epik_Charging_Adjusted_Penalty>  (286) 
0

>  <i_epik_Tot_Q>  (286) 
0

>  <i_epik_Tot_abs_Q>  (286) 
0

>  <s_epik_Chemistry_Notes>  (286) 
This compound contains an acetal/aminal-like group ( X-CH(R)-Y where X, Y are N, S, or O) that may be acid/base labile, releasing an aldehyde.

>  <s_lp_Force_Field>  (286) 
OPLS3e

>  <r_lp_Energy>  (286) 
18.2998

>  <b_lp_Chiralities_Consistent>  (286) 
1

>  <s_lp_Variant>  (286) 
68:0-1

>  <s_i_glide_gridfile>  (286) 
pfpi4k_grid

>  <i_i_glide_lignum>  (286) 
13

>  <i_i_glide_rotatable_bonds>  (286) 
5

>  <r_i_docking_score>  (286) 
-4.16285

>  <r_i_glide_ligand_efficiency>  (286) 
-0.219098

>  <r_i_glide_ligand_efficiency_sa>  (286) 
-0.58464

>  <r_i_glide_ligand_efficiency_ln>  (286) 
-1.05537

>  <r_i_glide_gscore>  (286) 
-4.16285

>  <r_i_glide_lipo>  (286) 
-0.142185

>  <r_i_glide_hbond>  (286) 
-0.203774

>  <r_i_glide_metal>  (286) 
-0

>  <r_i_glide_rewards>  (286) 
-1.58796

>  <r_i_glide_evdw>  (286) 
-15.8814

>  <r_i_glide_ecoul>  (286) 
-11.8119

>  <r_i_glide_erotb>  (286) 
0.499276

>  <r_i_glide_esite>  (286) 
-0.162363

>  <r_i_glide_emodel>  (286) 
-36.1462

>  <r_i_glide_energy>  (286) 
-27.6932

>  <r_i_glide_einternal>  (286) 
2.08758

>  <r_i_glide_intrahb_reward>  (286) 
-0

>  <i_i_glide_confnum>  (286) 
3

>  <i_i_glide_posenum>  (286) 
38

>  <r_i_glide_eff_state_penalty>  (286) 
0

>  <ligand_id>  (286) 
68

>  <original_smiles>  (286) 
N=c1[nH]cnc2c1ncn2C1OC(CO)C(O)C1O

>  <smiles>  (286) 
[H]OC([H])([H])C1([H])OC([H])(n2c([H])nc3c(N([H])[H])nc([H])nc32)C([H])(O[H])C1([H])O[H]

$$$$
68:0:1
     RDKit          3D

 32 34  0  0  1  0  0  0  0  0999 V2000
    7.8101   -6.5850    1.2906 N   0  0  0  0  0  0  0  0  0  0  0  0
    6.5100   -6.8206    1.4946 C   0  0  0  0  0  0  0  0  0  0  0  0
    5.6538   -5.7788    1.4356 N   0  0  0  0  0  0  0  0  0  0  0  0
    4.3475   -6.0024    1.6349 C   0  0  0  0  0  0  0  0  0  0  0  0
    3.7300   -7.1555    1.8953 N   0  0  0  0  0  0  0  0  0  0  0  0
    4.5955   -8.2075    1.9374 C   0  0  0  0  0  0  0  0  0  0  0  0
    6.0021   -8.1153    1.7463 C   0  0  0  0  0  0  0  0  0  0  0  0
    6.5789   -9.3778    1.8503 N   0  0  0  0  0  0  0  0  0  0  0  0
    5.5628  -10.1662    2.0733 C   0  0  0  0  0  0  0  0  0  0  0  0
    4.3350   -9.5425    2.1575 N   0  0  0  0  0  0  0  0  0  0  0  0
    3.0246  -10.2226    2.3846 C   0  0  2  0  0  0  0  0  0  0  0  0
    1.9655   -9.3634    2.0825 O   0  0  0  0  0  0  0  0  0  0  0  0
    1.0278   -9.3372    3.1584 C   0  0  1  0  0  0  0  0  0  0  0  0
   -0.4115   -9.2613    2.6089 C   0  0  0  0  0  0  0  0  0  0  0  0
   -1.3320   -8.9938    3.6519 O   0  0  0  0  0  0  0  0  0  0  0  0
    1.3771  -10.5653    4.0198 C   0  0  1  0  0  0  0  0  0  0  0  0
    0.7671  -11.7323    3.4776 O   0  0  0  0  0  0  0  0  0  0  0  0
    2.8860  -10.6384    3.8552 C   0  0  1  0  0  0  0  0  0  0  0  0
    3.3515  -11.9488    4.1010 O   0  0  0  0  0  0  0  0  0  0  0  0
    8.1116   -5.6386    1.1258 H   0  0  0  0  0  0  0  0  0  0  0  0
    8.4656   -7.3594    1.3401 H   0  0  0  0  0  0  0  0  0  0  0  0
    3.6985   -5.1366    1.5636 H   0  0  0  0  0  0  0  0  0  0  0  0
    5.6674  -11.2405    2.1875 H   0  0  0  0  0  0  0  0  0  0  0  0
    3.0181  -11.0490    1.6937 H   0  0  0  0  0  0  0  0  0  0  0  0
    1.2604   -8.4345    3.7265 H   0  0  0  0  0  0  0  0  0  0  0  0
   -0.4772   -8.4563    1.8752 H   0  0  0  0  0  0  0  0  0  0  0  0
   -0.6947  -10.1658    2.0676 H   0  0  0  0  0  0  0  0  0  0  0  0
   -1.4452   -9.7832    4.1827 H   0  0  0  0  0  0  0  0  0  0  0  0
    1.0840  -10.4444    5.0663 H   0  0  0  0  0  0  0  0  0  0  0  0
    1.0924  -12.4976    3.9288 H   0  0  0  0  0  0  0  0  0  0  0  0
    3.3871   -9.9015    4.4876 H   0  0  0  0  0  0  0  0  0  0  0  0
    2.9246  -12.5505    3.5054 H   0  0  0  0  0  0  0  0  0  0  0  0
  1  2  1  0
  1 21  1  0
  1 20  1  0
  2  3  2  0
  2  7  1  0
  3  4  1  0
  4 22  1  0
  4  5  2  0
  5  6  1  0
  6 10  1  0
  6  7  2  0
  7  8  1  0
  8  9  2  0
  9 23  1  0
  9 10  1  0
 10 11  1  0
 11 18  1  0
 11 12  1  0
 11 24  1  6
 12 13  1  0
 13 14  1  0
 13 16  1  0
 13 25  1  1
 14 15  1  0
 14 26  1  0
 14 27  1  0
 15 28  1  0
 16 17  1  0
 16 18  1  0
 16 29  1  1
 17 30  1  0
 18 19  1  0
 18 31  1  1
 19 32  1  0
M  END
>  <i_m_ct_stereo_status>  (287) 
1

>  <s_m_source_file>  (287) 
/var/tmp/pbs.5076255.sched01/tmp8hdfbsd6/1003312lgh9.sdf

>  <i_m_source_file_index>  (287) 
13

>  <i_lp_mmshare_version>  (287) 
48012

>  <i_f3d_flags>  (287) 
0

>  <s_epik_input>  (287) 
bjFbY0hdW25IXVxjKD1OXFtIXSljKGMxMiluW2NIXW4yW0NAQEhdM09bQ0BASF0oW0NIMl1bT0hdKVtDQEBIXShbT0hdKVtDQEhdM1tPSF0=

>  <s_epik_cmdline>  (287) 
J2VwaWtfcHl0aG9uJywgJy1waHQnLCAnMi4wJywgJy1waCcsICc3LjAnLCAnLXRuJywgJzgnLCAnLW1hJywgJzIwMCcsICctaW1hZScsICc8aW5maWxlLm1hZT4nLCAnLW9tYWUnLCAnPG91dGZpbGUubWFlPic=

>  <r_lp_tautomer_probability>  (287) 
1

>  <r_epik_Ionization_Penalty>  (287) 
0.000428445

>  <r_epik_Ionization_Penalty_Charging>  (287) 
0

>  <r_epik_Ionization_Penalty_Neutral>  (287) 
0.000428445

>  <r_epik_State_Penalty>  (287) 
-0

>  <r_epik_Charging_Adjusted_Penalty>  (287) 
0

>  <i_epik_Tot_Q>  (287) 
0

>  <i_epik_Tot_abs_Q>  (287) 
0

>  <s_epik_Chemistry_Notes>  (287) 
This compound contains an acetal/aminal-like group ( X-CH(R)-Y where X, Y are N, S, or O) that may be acid/base labile, releasing an aldehyde.

>  <s_lp_Force_Field>  (287) 
OPLS3e

>  <r_lp_Energy>  (287) 
18.2998

>  <b_lp_Chiralities_Consistent>  (287) 
1

>  <s_lp_Variant>  (287) 
68:0-1

>  <s_i_glide_gridfile>  (287) 
pfpi4k_grid

>  <i_i_glide_lignum>  (287) 
13

>  <i_i_glide_rotatable_bonds>  (287) 
5

>  <r_i_docking_score>  (287) 
-3.92563

>  <r_i_glide_ligand_efficiency>  (287) 
-0.206612

>  <r_i_glide_ligand_efficiency_sa>  (287) 
-0.551324

>  <r_i_glide_ligand_efficiency_ln>  (287) 
-0.995232

>  <r_i_glide_gscore>  (287) 
-3.92563

>  <r_i_glide_lipo>  (287) 
-0.195757

>  <r_i_glide_hbond>  (287) 
-0.00373387

>  <r_i_glide_metal>  (287) 
-0

>  <r_i_glide_rewards>  (287) 
-1.64771

>  <r_i_glide_evdw>  (287) 
-19.888

>  <r_i_glide_ecoul>  (287) 
-9.27148

>  <r_i_glide_erotb>  (287) 
0.499276

>  <r_i_glide_esite>  (287) 
-0.192582

>  <r_i_glide_emodel>  (287) 
-37.2661

>  <r_i_glide_energy>  (287) 
-29.1595

>  <r_i_glide_einternal>  (287) 
2.49117

>  <r_i_glide_intrahb_reward>  (287) 
-0

>  <i_i_glide_confnum>  (287) 
6

>  <i_i_glide_posenum>  (287) 
2

>  <r_i_glide_eff_state_penalty>  (287) 
0

>  <ligand_id>  (287) 
68

>  <original_smiles>  (287) 
N=c1[nH]cnc2c1ncn2C1OC(CO)C(O)C1O

>  <smiles>  (287) 
[H]OC([H])([H])C1([H])OC([H])(n2c([H])nc3c(N([H])[H])nc([H])nc32)C([H])(O[H])C1([H])O[H]

$$$$
68:0:2
     RDKit          3D

 32 34  0  0  1  0  0  0  0  0999 V2000
    7.8095   -7.0506    1.3335 N   0  0  0  0  0  0  0  0  0  0  0  0
    6.5208   -7.2123    1.6533 C   0  0  0  0  0  0  0  0  0  0  0  0
    5.7059   -6.1380    1.6038 N   0  0  0  0  0  0  0  0  0  0  0  0
    4.4123   -6.2851    1.9207 C   0  0  0  0  0  0  0  0  0  0  0  0
    3.7636   -7.3930    2.2893 N   0  0  0  0  0  0  0  0  0  0  0  0
    4.5834   -8.4842    2.3072 C   0  0  0  0  0  0  0  0  0  0  0  0
    5.9762   -8.4676    2.0085 C   0  0  0  0  0  0  0  0  0  0  0  0
    6.5023   -9.7504    2.1380 N   0  0  0  0  0  0  0  0  0  0  0  0
    5.4689  -10.4816    2.4674 C   0  0  0  0  0  0  0  0  0  0  0  0
    4.2760   -9.7988    2.5917 N   0  0  0  0  0  0  0  0  0  0  0  0
    2.9552  -10.3823    2.9698 C   0  0  2  0  0  0  0  0  0  0  0  0
    1.9341   -9.6513    2.3625 O   0  0  0  0  0  0  0  0  0  0  0  0
    0.9387   -9.2949    3.3276 C   0  0  1  0  0  0  0  0  0  0  0  0
   -0.4667   -9.4172    2.7104 C   0  0  0  0  0  0  0  0  0  0  0  0
   -1.4595   -9.0239    3.6460 O   0  0  0  0  0  0  0  0  0  0  0  0
    1.2348  -10.1801    4.5523 C   0  0  1  0  0  0  0  0  0  0  0  0
    0.6101  -11.4484    4.4318 O   0  0  0  0  0  0  0  0  0  0  0  0
    2.7497  -10.3019    4.4894 C   0  0  1  0  0  0  0  0  0  0  0  0
    3.2049  -11.4428    5.1981 O   0  0  0  0  0  0  0  0  0  0  0  0
    8.1409   -6.1344    1.0866 H   0  0  0  0  0  0  0  0  0  0  0  0
    8.4388   -7.8463    1.3731 H   0  0  0  0  0  0  0  0  0  0  0  0
    3.8045   -5.3913    1.8493 H   0  0  0  0  0  0  0  0  0  0  0  0
    5.5379  -11.5490    2.6334 H   0  0  0  0  0  0  0  0  0  0  0  0
    2.9496  -11.3916    2.5566 H   0  0  0  0  0  0  0  0  0  0  0  0
    1.1382   -8.2552    3.6001 H   0  0  0  0  0  0  0  0  0  0  0  0
   -0.5385   -8.7766    1.8316 H   0  0  0  0  0  0  0  0  0  0  0  0
   -0.6320  -10.4289    2.3477 H   0  0  0  0  0  0  0  0  0  0  0  0
   -1.6385   -9.7480    4.2496 H   0  0  0  0  0  0  0  0  0  0  0  0
    0.9015   -9.7196    5.4847 H   0  0  0  0  0  0  0  0  0  0  0  0
   -0.3297  -11.3555    4.5805 H   0  0  0  0  0  0  0  0  0  0  0  0
    3.2151   -9.3934    4.8756 H   0  0  0  0  0  0  0  0  0  0  0  0
    2.6025  -11.6367    5.9084 H   0  0  0  0  0  0  0  0  0  0  0  0
  1  2  1  0
  1 21  1  0
  1 20  1  0
  2  3  2  0
  2  7  1  0
  3  4  1  0
  4 22  1  0
  4  5  2  0
  5  6  1  0
  6 10  1  0
  6  7  2  0
  7  8  1  0
  8  9  2  0
  9 23  1  0
  9 10  1  0
 10 11  1  0
 11 18  1  0
 11 12  1  0
 11 24  1  6
 12 13  1  0
 13 14  1  0
 13 16  1  0
 13 25  1  1
 14 15  1  0
 14 26  1  0
 14 27  1  0
 15 28  1  0
 16 17  1  0
 16 18  1  0
 16 29  1  1
 17 30  1  0
 18 19  1  0
 18 31  1  1
 19 32  1  0
M  END
>  <i_m_ct_stereo_status>  (288) 
1

>  <s_m_source_file>  (288) 
/var/tmp/pbs.5076255.sched01/tmp8hdfbsd6/1003312lgh9.sdf

>  <i_m_source_file_index>  (288) 
13

>  <i_lp_mmshare_version>  (288) 
48012

>  <i_f3d_flags>  (288) 
0

>  <s_epik_input>  (288) 
bjFbY0hdW25IXVxjKD1OXFtIXSljKGMxMiluW2NIXW4yW0NAQEhdM09bQ0BASF0oW0NIMl1bT0hdKVtDQEBIXShbT0hdKVtDQEhdM1tPSF0=

>  <s_epik_cmdline>  (288) 
J2VwaWtfcHl0aG9uJywgJy1waHQnLCAnMi4wJywgJy1waCcsICc3LjAnLCAnLXRuJywgJzgnLCAnLW1hJywgJzIwMCcsICctaW1hZScsICc8aW5maWxlLm1hZT4nLCAnLW9tYWUnLCAnPG91dGZpbGUubWFlPic=

>  <r_lp_tautomer_probability>  (288) 
1

>  <r_epik_Ionization_Penalty>  (288) 
0.000428445

>  <r_epik_Ionization_Penalty_Charging>  (288) 
0

>  <r_epik_Ionization_Penalty_Neutral>  (288) 
0.000428445

>  <r_epik_State_Penalty>  (288) 
-0

>  <r_epik_Charging_Adjusted_Penalty>  (288) 
0

>  <i_epik_Tot_Q>  (288) 
0

>  <i_epik_Tot_abs_Q>  (288) 
0

>  <s_epik_Chemistry_Notes>  (288) 
This compound contains an acetal/aminal-like group ( X-CH(R)-Y where X, Y are N, S, or O) that may be acid/base labile, releasing an aldehyde.

>  <s_lp_Force_Field>  (288) 
OPLS3e

>  <r_lp_Energy>  (288) 
18.2998

>  <b_lp_Chiralities_Consistent>  (288) 
1

>  <s_lp_Variant>  (288) 
68:0-1

>  <s_i_glide_gridfile>  (288) 
pfpi4k_grid

>  <i_i_glide_lignum>  (288) 
13

>  <i_i_glide_rotatable_bonds>  (288) 
5

>  <r_i_docking_score>  (288) 
-3.84522

>  <r_i_glide_ligand_efficiency>  (288) 
-0.20238

>  <r_i_glide_ligand_efficiency_sa>  (288) 
-0.540032

>  <r_i_glide_ligand_efficiency_ln>  (288) 
-0.974847

>  <r_i_glide_gscore>  (288) 
-3.84522

>  <r_i_glide_lipo>  (288) 
-0.140289

>  <r_i_glide_hbond>  (288) 
-0.010129

>  <r_i_glide_metal>  (288) 
-0

>  <r_i_glide_rewards>  (288) 
-1.62957

>  <r_i_glide_evdw>  (288) 
-19.7499

>  <r_i_glide_ecoul>  (288) 
-9.29844

>  <r_i_glide_erotb>  (288) 
0.499276

>  <r_i_glide_esite>  (288) 
-0.182252

>  <r_i_glide_emodel>  (288) 
-36.7757

>  <r_i_glide_energy>  (288) 
-29.0483

>  <r_i_glide_einternal>  (288) 
2.51135

>  <r_i_glide_intrahb_reward>  (288) 
-0

>  <i_i_glide_confnum>  (288) 
6

>  <i_i_glide_posenum>  (288) 
18

>  <r_i_glide_eff_state_penalty>  (288) 
0

>  <ligand_id>  (288) 
68

>  <original_smiles>  (288) 
N=c1[nH]cnc2c1ncn2C1OC(CO)C(O)C1O

>  <smiles>  (288) 
[H]OC([H])([H])C1([H])OC([H])(n2c([H])nc3c(N([H])[H])nc([H])nc32)C([H])(O[H])C1([H])O[H]

$$$$
69:0:0
     RDKit          3D

 74 79  0  0  1  0  0  0  0  0999 V2000
    8.8805   -3.9943    0.0472 C   0  0  0  0  0  0  0  0  0  0  0  0
    8.6241   -4.6246    1.2108 C   0  0  0  0  0  0  0  0  0  0  0  0
    7.6342   -5.7720    1.3849 C   0  0  0  0  0  0  0  0  0  0  0  0
    8.1859   -7.0070    2.0245 N   0  0  1  0  0  0  0  0  0  0  0  0
    8.7802   -6.8112    3.4011 C   0  0  0  0  0  0  0  0  0  0  0  0
    7.7938   -6.6133    4.5827 C   0  0  0  0  0  0  0  0  0  0  0  0
    7.1407   -7.9404    5.0739 C   0  0  1  0  0  0  0  0  0  0  0  0
    8.1982   -8.7653    5.5929 O   0  0  0  0  0  0  0  0  0  0  0  0
    8.7225   -8.4812    6.8864 C   0  0  0  0  0  0  0  0  0  0  0  0
    5.8493   -7.9993    5.9891 C   0  0  0  0  0  0  0  0  0  0  0  0
    4.8040   -9.1566    5.6112 C   0  0  0  0  0  0  0  0  0  0  0  0
    4.4329   -9.2035    4.0456 C   0  0  2  0  0  0  0  0  0  0  0  0
    4.3408  -10.4627    3.1612 C   0  0  1  0  0  0  0  0  0  0  0  0
    5.5806  -11.4022    3.0951 C   0  0  0  0  0  0  0  0  0  0  0  0
    6.8594  -10.7615    2.3807 C   0  0  0  0  0  0  0  0  0  0  0  0
    7.4648   -9.3309    2.8150 C   0  0  1  0  0  0  0  0  0  0  0  0
    7.3593   -8.2611    1.7473 C   0  0  1  0  0  0  0  0  0  0  0  0
    5.8065   -8.1168    1.7250 C   0  0  0  0  0  0  0  0  0  0  0  0
    5.2501   -8.1761    3.2095 C   0  0  1  0  0  0  0  0  0  0  0  0
    4.2259   -6.9973    3.2574 C   0  0  0  0  0  0  0  0  0  0  0  0
    4.4066   -5.7717    3.9378 C   0  0  0  0  0  0  0  0  0  0  0  0
    3.4200   -4.7747    3.9547 C   0  0  0  0  0  0  0  0  0  0  0  0
    2.1905   -4.9732    3.3023 C   0  0  0  0  0  0  0  0  0  0  0  0
    1.1626   -4.0570    3.2809 O   0  0  0  0  0  0  0  0  0  0  0  0
    1.3669   -2.7941    3.8996 C   0  0  0  0  0  0  0  0  0  0  0  0
    1.9784   -6.1914    2.6323 C   0  0  0  0  0  0  0  0  0  0  0  0
    2.9573   -7.2113    2.5835 C   0  0  0  0  0  0  0  0  0  0  0  0
    2.5431   -8.4961    1.7763 C   0  0  0  0  0  0  0  0  0  0  0  0
    1.9872   -9.7846    2.5271 C   0  0  0  0  0  0  0  0  0  0  0  0
    2.9451  -10.9071    2.8879 N   0  0  2  0  0  0  0  0  0  0  0  0
    2.3822  -11.8034    3.9299 C   0  0  0  0  0  0  0  0  0  0  0  0
    6.6167   -8.6468    3.8658 C   0  0  2  0  0  0  0  0  0  0  0  0
    8.4028   -4.2710   -0.8831 H   0  0  0  0  0  0  0  0  0  0  0  0
    9.5742   -3.1645    0.0055 H   0  0  0  0  0  0  0  0  0  0  0  0
    9.1428   -4.2654    2.0827 H   0  0  0  0  0  0  0  0  0  0  0  0
    6.7837   -5.3974    1.9542 H   0  0  0  0  0  0  0  0  0  0  0  0
    7.2623   -6.0272    0.3908 H   0  0  0  0  0  0  0  0  0  0  0  0
    9.4938   -7.6070    3.6229 H   0  0  0  0  0  0  0  0  0  0  0  0
    9.4172   -5.9285    3.3812 H   0  0  0  0  0  0  0  0  0  0  0  0
    8.3299   -6.1481    5.4052 H   0  0  0  0  0  0  0  0  0  0  0  0
    7.1115   -5.8480    4.2626 H   0  0  0  0  0  0  0  0  0  0  0  0
    9.6719   -9.0052    7.0071 H   0  0  0  0  0  0  0  0  0  0  0  0
    8.0578   -8.8484    7.6667 H   0  0  0  0  0  0  0  0  0  0  0  0
    8.9156   -7.4235    7.0586 H   0  0  0  0  0  0  0  0  0  0  0  0
    6.1152   -8.0815    7.0401 H   0  0  0  0  0  0  0  0  0  0  0  0
    5.3359   -7.0465    5.9572 H   0  0  0  0  0  0  0  0  0  0  0  0
    5.1859  -10.1219    5.9458 H   0  0  0  0  0  0  0  0  0  0  0  0
    3.9059   -8.9992    6.2095 H   0  0  0  0  0  0  0  0  0  0  0  0
    3.4116   -8.8995    4.2304 H   0  0  0  0  0  0  0  0  0  0  0  0
    4.4225  -10.1693    2.1339 H   0  0  0  0  0  0  0  0  0  0  0  0
    5.8414  -11.7615    4.0888 H   0  0  0  0  0  0  0  0  0  0  0  0
    5.3101  -12.2999    2.5343 H   0  0  0  0  0  0  0  0  0  0  0  0
    7.6619  -11.4943    2.4859 H   0  0  0  0  0  0  0  0  0  0  0  0
    6.6672  -10.7617    1.3036 H   0  0  0  0  0  0  0  0  0  0  0  0
    8.4890   -9.4793    3.1627 H   0  0  0  0  0  0  0  0  0  0  0  0
    7.6980   -8.6416    0.7842 H   0  0  0  0  0  0  0  0  0  0  0  0
    5.4978   -7.2028    1.2219 H   0  0  0  0  0  0  0  0  0  0  0  0
    5.4328   -8.8770    1.0502 H   0  0  0  0  0  0  0  0  0  0  0  0
    5.2621   -5.5393    4.5195 H   0  0  0  0  0  0  0  0  0  0  0  0
    3.6269   -3.8715    4.5023 H   0  0  0  0  0  0  0  0  0  0  0  0
    0.4681   -2.1875    3.7827 H   0  0  0  0  0  0  0  0  0  0  0  0
    2.1904   -2.2462    3.4394 H   0  0  0  0  0  0  0  0  0  0  0  0
    1.5541   -2.8926    4.9699 H   0  0  0  0  0  0  0  0  0  0  0  0
    1.0298   -6.3370    2.1418 H   0  0  0  0  0  0  0  0  0  0  0  0
    1.7143   -8.1818    1.1451 H   0  0  0  0  0  0  0  0  0  0  0  0
    3.2904   -8.7579    1.0331 H   0  0  0  0  0  0  0  0  0  0  0  0
    1.4193   -9.4630    3.4012 H   0  0  0  0  0  0  0  0  0  0  0  0
    1.2354  -10.2445    1.8819 H   0  0  0  0  0  0  0  0  0  0  0  0
    2.2634  -11.2979    4.8894 H   0  0  0  0  0  0  0  0  0  0  0  0
    3.0308  -12.6641    4.0795 H   0  0  0  0  0  0  0  0  0  0  0  0
    1.3987  -12.1737    3.6265 H   0  0  0  0  0  0  0  0  0  0  0  0
    6.6145   -9.6202    4.3514 H   0  0  0  0  0  0  0  0  0  0  0  0
    3.0358  -11.4739    2.0465 H   0  0  0  0  0  0  0  0  0  0  0  0
    9.0466   -7.1992    1.5126 H   0  0  0  0  0  0  0  0  0  0  0  0
  1  2  2  0
  1 33  1  0
  1 34  1  0
  2  3  1  0
  2 35  1  0
  3  4  1  0
  3 36  1  0
  3 37  1  0
  4 17  1  0
  4  5  1  0
  4 74  1  6
  5  6  1  0
  5 38  1  0
  5 39  1  0
  6  7  1  0
  6 40  1  0
  6 41  1  0
  7 32  1  0
  7  8  1  1
  7 10  1  0
  8  9  1  0
  9 42  1  0
  9 43  1  0
  9 44  1  0
 10 11  1  0
 10 45  1  0
 10 46  1  0
 11 12  1  0
 11 47  1  0
 11 48  1  0
 12 19  1  0
 12 13  1  0
 12 49  1  1
 13 30  1  0
 13 14  1  0
 13 50  1  6
 14 15  1  0
 14 51  1  0
 14 52  1  0
 15 16  1  0
 15 53  1  0
 15 54  1  0
 16 32  1  0
 16 17  1  0
 16 55  1  1
 17 18  1  0
 17 56  1  6
 19 18  1  6
 18 57  1  0
 18 58  1  0
 19 20  1  0
 19 32  1  0
 20 27  2  0
 20 21  1  0
 21 22  2  0
 21 59  1  0
 22 23  1  0
 22 60  1  0
 23 24  1  0
 23 26  2  0
 24 25  1  0
 25 61  1  0
 25 62  1  0
 25 63  1  0
 26 27  1  0
 26 64  1  0
 27 28  1  0
 28 29  1  0
 28 65  1  0
 28 66  1  0
 29 30  1  0
 29 67  1  0
 29 68  1  0
 30 31  1  0
 30 73  1  6
 31 69  1  0
 31 70  1  0
 31 71  1  0
 32 72  1  1
M  CHG  2   4   1  30   1
M  END
>  <i_m_ct_stereo_status>  (289) 
1

>  <s_m_source_file>  (289) 
/var/tmp/pbs.5076255.sched01/tmp8hdfbsd6/1003312lgh9.sdf

>  <i_m_source_file_index>  (289) 
14

>  <i_lp_mmshare_version>  (289) 
48012

>  <i_f3d_flags>  (289) 
0

>  <s_epik_input>  (289) 
W0NIM11PW0NAQF0oW0NASF0xMikoW0NIMl1bQ0gyXTMpW0NIMl1bQ0gyXU4oW0NIMl1bQ0hdPVtDSDJdKVtDQEhdKFtDSDJdNClbQ0BASF0xW0NIMl1bQ0gyXVtDQEhdKFtDQEBIXTNbQ0BAXTI0NSlOKFtDSDNdKVtDSDJdW0NIMl1jNmM1W2NIXVtjSF1jKFtjSF02KU9bQ0gzXQ==

>  <s_epik_cmdline>  (289) 
J2VwaWtfcHl0aG9uJywgJy1waHQnLCAnMi4wJywgJy1waCcsICc3LjAnLCAnLXRuJywgJzgnLCAnLW1hJywgJzIwMCcsICctaW1hZScsICc8aW5maWxlLm1hZT4nLCAnLW9tYWUnLCAnPG91dGZpbGUubWFlPic=

>  <r_lp_tautomer_probability>  (289) 
1

>  <r_epik_Ionization_Penalty>  (289) 
0.0345622

>  <r_epik_Ionization_Penalty_Charging>  (289) 
0.0345622

>  <r_epik_Ionization_Penalty_Neutral>  (289) 
2.10533e-12

>  <r_epik_State_Penalty>  (289) 
0.0236524

>  <r_epik_Charging_Adjusted_Penalty>  (289) 
0.0582147

>  <i_epik_Tot_Q>  (289) 
2

>  <i_epik_Tot_abs_Q>  (289) 
2

>  <s_lp_Force_Field>  (289) 
OPLS3e

>  <r_lp_Energy>  (289) 
234.657

>  <b_lp_Chiralities_Consistent>  (289) 
1

>  <s_lp_Variant>  (289) 
69:0-1

>  <s_i_glide_gridfile>  (289) 
pfpi4k_grid

>  <i_i_glide_lignum>  (289) 
14

>  <i_i_glide_rotatable_bonds>  (289) 
4

>  <r_i_docking_score>  (289) 
-3.06861

>  <r_i_glide_ligand_efficiency>  (289) 
-0.095894

>  <r_i_glide_ligand_efficiency_sa>  (289) 
-0.304445

>  <r_i_glide_ligand_efficiency_ln>  (289) 
-0.687145

>  <r_i_glide_gscore>  (289) 
-3.06861

>  <r_i_glide_lipo>  (289) 
-0.373499

>  <r_i_glide_hbond>  (289) 
-0.356581

>  <r_i_glide_metal>  (289) 
-0

>  <r_i_glide_rewards>  (289) 
-0.418328

>  <r_i_glide_evdw>  (289) 
-21.0518

>  <r_i_glide_ecoul>  (289) 
-6.52311

>  <r_i_glide_erotb>  (289) 
0.207386

>  <r_i_glide_esite>  (289) 
-0.0965326

>  <r_i_glide_emodel>  (289) 
-36.1197

>  <r_i_glide_energy>  (289) 
-27.5749

>  <r_i_glide_einternal>  (289) 
0.124413

>  <r_i_glide_intrahb_reward>  (289) 
-0

>  <i_i_glide_confnum>  (289) 
3

>  <i_i_glide_posenum>  (289) 
22

>  <r_i_glide_eff_state_penalty>  (289) 
0

>  <ligand_id>  (289) 
69

>  <original_smiles>  (289) 
C=CCN1CCC2(OC)CCC3C4CCC5C1CC3(c1ccc(OC)cc1CCN4C)C52

>  <smiles>  (289) 
[H]C([H])=C([H])C([H])([H])[N+]1([H])C([H])([H])C([H])([H])C2(OC([H])([H])[H])C([H])([H])C([H])([H])C3([H])C45c6c([H])c([H])c(OC([H])([H])[H])c([H])c6C([H])([H])C([H])([H])[N+]([H])(C([H])([H])[H])C3([H])C([H])([H])C([H])([H])C([H])(C24[H])C1([H])C5([H])[H]

$$$$
69:0:1
     RDKit          3D

 74 79  0  0  1  0  0  0  0  0999 V2000
    8.6991   -4.5070    0.2247 C   0  0  0  0  0  0  0  0  0  0  0  0
    8.0896   -5.5325    0.8489 C   0  0  0  0  0  0  0  0  0  0  0  0
    8.1345   -5.7797    2.3537 C   0  0  0  0  0  0  0  0  0  0  0  0
    8.5640   -7.1658    2.6973 N   0  0  1  0  0  0  0  0  0  0  0  0
    9.1810   -7.2683    4.0730 C   0  0  0  0  0  0  0  0  0  0  0  0
    8.2159   -7.2266    5.2923 C   0  0  0  0  0  0  0  0  0  0  0  0
    7.4701   -8.5749    5.5401 C   0  0  1  0  0  0  0  0  0  0  0  0
    8.4666   -9.5533    5.8847 O   0  0  0  0  0  0  0  0  0  0  0  0
    8.9941   -9.5643    7.2080 C   0  0  0  0  0  0  0  0  0  0  0  0
    6.1763   -8.7097    6.4448 C   0  0  0  0  0  0  0  0  0  0  0  0
    5.0511   -9.6974    5.8723 C   0  0  0  0  0  0  0  0  0  0  0  0
    4.6794   -9.4256    4.3306 C   0  0  2  0  0  0  0  0  0  0  0  0
    4.4984  -10.4881    3.2297 C   0  0  1  0  0  0  0  0  0  0  0  0
    5.6700  -11.4822    2.9773 C   0  0  0  0  0  0  0  0  0  0  0  0
    6.9919  -10.8154    2.3727 C   0  0  0  0  0  0  0  0  0  0  0  0
    7.7008   -9.5352    3.0472 C   0  0  1  0  0  0  0  0  0  0  0  0
    7.6533   -8.2803    2.1995 C   0  0  1  0  0  0  0  0  0  0  0  0
    6.1189   -8.0337    2.2298 C   0  0  0  0  0  0  0  0  0  0  0  0
    5.5714   -8.3242    3.6884 C   0  0  1  0  0  0  0  0  0  0  0  0
    4.6375   -7.1030    3.9671 C   0  0  0  0  0  0  0  0  0  0  0  0
    4.8920   -6.0416    4.8691 C   0  0  0  0  0  0  0  0  0  0  0  0
    3.9641   -5.0041    5.0690 C   0  0  0  0  0  0  0  0  0  0  0  0
    2.7504   -4.9809    4.3714 C   0  0  0  0  0  0  0  0  0  0  0  0
    1.8934   -3.9288    4.5914 O   0  0  0  0  0  0  0  0  0  0  0  0
    1.1809   -3.4408    3.4590 C   0  0  0  0  0  0  0  0  0  0  0  0
    2.4501   -6.0555    3.5097 C   0  0  0  0  0  0  0  0  0  0  0  0
    3.3620   -7.1045    3.2743 C   0  0  0  0  0  0  0  0  0  0  0  0
    2.8581   -8.1812    2.2472 C   0  0  0  0  0  0  0  0  0  0  0  0
    2.2028   -9.5376    2.7537 C   0  0  0  0  0  0  0  0  0  0  0  0
    3.0755  -10.7715    2.8919 N   0  0  2  0  0  0  0  0  0  0  0  0
    2.4498  -11.7972    3.7595 C   0  0  0  0  0  0  0  0  0  0  0  0
    6.9018   -9.0049    4.2257 C   0  0  2  0  0  0  0  0  0  0  0  0
    9.2860   -3.7705    0.7660 H   0  0  0  0  0  0  0  0  0  0  0  0
    8.6173   -4.3824   -0.8503 H   0  0  0  0  0  0  0  0  0  0  0  0
    7.5231   -6.2288    0.2468 H   0  0  0  0  0  0  0  0  0  0  0  0
    8.8326   -5.0604    2.7890 H   0  0  0  0  0  0  0  0  0  0  0  0
    7.1648   -5.5429    2.7923 H   0  0  0  0  0  0  0  0  0  0  0  0
    9.8444   -8.1318    4.1417 H   0  0  0  0  0  0  0  0  0  0  0  0
    9.8613   -6.4210    4.1843 H   0  0  0  0  0  0  0  0  0  0  0  0
    8.7890   -6.9673    6.1806 H   0  0  0  0  0  0  0  0  0  0  0  0
    7.5842   -6.3689    5.1347 H   0  0  0  0  0  0  0  0  0  0  0  0
    9.9045  -10.1658    7.2208 H   0  0  0  0  0  0  0  0  0  0  0  0
    8.2994  -10.0310    7.9050 H   0  0  0  0  0  0  0  0  0  0  0  0
    9.2553   -8.5750    7.5806 H   0  0  0  0  0  0  0  0  0  0  0  0
    6.4309   -9.0044    7.4590 H   0  0  0  0  0  0  0  0  0  0  0  0
    5.7340   -7.7342    6.5981 H   0  0  0  0  0  0  0  0  0  0  0  0
    5.3609  -10.7332    6.0159 H   0  0  0  0  0  0  0  0  0  0  0  0
    4.1649   -9.5917    6.5007 H   0  0  0  0  0  0  0  0  0  0  0  0
    3.6827   -9.0889    4.5821 H   0  0  0  0  0  0  0  0  0  0  0  0
    4.6009  -10.0177    2.2739 H   0  0  0  0  0  0  0  0  0  0  0  0
    5.9018  -12.0342    3.8859 H   0  0  0  0  0  0  0  0  0  0  0  0
    5.3483  -12.2455    2.2676 H   0  0  0  0  0  0  0  0  0  0  0  0
    7.7381  -11.6135    2.3335 H   0  0  0  0  0  0  0  0  0  0  0  0
    6.8000  -10.6003    1.3170 H   0  0  0  0  0  0  0  0  0  0  0  0
    8.7206   -9.8189    3.3196 H   0  0  0  0  0  0  0  0  0  0  0  0
    7.9475   -8.4796    1.1708 H   0  0  0  0  0  0  0  0  0  0  0  0
    5.8633   -7.0317    1.8952 H   0  0  0  0  0  0  0  0  0  0  0  0
    5.7011   -8.6366    1.4350 H   0  0  0  0  0  0  0  0  0  0  0  0
    5.7610   -5.9743    5.4764 H   0  0  0  0  0  0  0  0  0  0  0  0
    4.1919   -4.2155    5.7654 H   0  0  0  0  0  0  0  0  0  0  0  0
    0.4586   -2.6795    3.7628 H   0  0  0  0  0  0  0  0  0  0  0  0
    0.6153   -4.2054    2.9300 H   0  0  0  0  0  0  0  0  0  0  0  0
    1.8850   -2.9845    2.7617 H   0  0  0  0  0  0  0  0  0  0  0  0
    1.4971   -6.0958    3.0126 H   0  0  0  0  0  0  0  0  0  0  0  0
    2.0574   -7.6972    1.6926 H   0  0  0  0  0  0  0  0  0  0  0  0
    3.5827   -8.3495    1.4578 H   0  0  0  0  0  0  0  0  0  0  0  0
    1.6584   -9.3420    3.6805 H   0  0  0  0  0  0  0  0  0  0  0  0
    1.4208   -9.8141    2.0412 H   0  0  0  0  0  0  0  0  0  0  0  0
    2.3628  -11.4710    4.7980 H   0  0  0  0  0  0  0  0  0  0  0  0
    3.0530  -12.7014    3.7343 H   0  0  0  0  0  0  0  0  0  0  0  0
    1.4474  -12.0462    3.3980 H   0  0  0  0  0  0  0  0  0  0  0  0
    6.8309  -10.0476    4.5267 H   0  0  0  0  0  0  0  0  0  0  0  0
    3.1271  -11.1939    1.9655 H   0  0  0  0  0  0  0  0  0  0  0  0
    9.4053   -7.3133    2.1367 H   0  0  0  0  0  0  0  0  0  0  0  0
  1  2  2  0
  1 33  1  0
  1 34  1  0
  2  3  1  0
  2 35  1  0
  3  4  1  0
  3 36  1  0
  3 37  1  0
  4 17  1  0
  4  5  1  0
  4 74  1  6
  5  6  1  0
  5 38  1  0
  5 39  1  0
  6  7  1  0
  6 40  1  0
  6 41  1  0
  7 32  1  0
  7  8  1  1
  7 10  1  0
  8  9  1  0
  9 42  1  0
  9 43  1  0
  9 44  1  0
 10 11  1  0
 10 45  1  0
 10 46  1  0
 11 12  1  0
 11 47  1  0
 11 48  1  0
 12 19  1  0
 12 13  1  0
 12 49  1  1
 13 30  1  0
 13 14  1  0
 13 50  1  6
 14 15  1  0
 14 51  1  0
 14 52  1  0
 15 16  1  0
 15 53  1  0
 15 54  1  0
 16 32  1  0
 16 17  1  0
 16 55  1  1
 17 18  1  0
 17 56  1  6
 19 18  1  6
 18 57  1  0
 18 58  1  0
 19 20  1  0
 19 32  1  0
 20 27  2  0
 20 21  1  0
 21 22  2  0
 21 59  1  0
 22 23  1  0
 22 60  1  0
 23 24  1  0
 23 26  2  0
 24 25  1  0
 25 61  1  0
 25 62  1  0
 25 63  1  0
 26 27  1  0
 26 64  1  0
 27 28  1  0
 28 29  1  0
 28 65  1  0
 28 66  1  0
 29 30  1  0
 29 67  1  0
 29 68  1  0
 30 31  1  0
 30 73  1  6
 31 69  1  0
 31 70  1  0
 31 71  1  0
 32 72  1  1
M  CHG  2   4   1  30   1
M  END
>  <i_m_ct_stereo_status>  (290) 
1

>  <s_m_source_file>  (290) 
/var/tmp/pbs.5076255.sched01/tmp8hdfbsd6/1003312lgh9.sdf

>  <i_m_source_file_index>  (290) 
14

>  <i_lp_mmshare_version>  (290) 
48012

>  <i_f3d_flags>  (290) 
0

>  <s_epik_input>  (290) 
W0NIM11PW0NAQF0oW0NASF0xMikoW0NIMl1bQ0gyXTMpW0NIMl1bQ0gyXU4oW0NIMl1bQ0hdPVtDSDJdKVtDQEhdKFtDSDJdNClbQ0BASF0xW0NIMl1bQ0gyXVtDQEhdKFtDQEBIXTNbQ0BAXTI0NSlOKFtDSDNdKVtDSDJdW0NIMl1jNmM1W2NIXVtjSF1jKFtjSF02KU9bQ0gzXQ==

>  <s_epik_cmdline>  (290) 
J2VwaWtfcHl0aG9uJywgJy1waHQnLCAnMi4wJywgJy1waCcsICc3LjAnLCAnLXRuJywgJzgnLCAnLW1hJywgJzIwMCcsICctaW1hZScsICc8aW5maWxlLm1hZT4nLCAnLW9tYWUnLCAnPG91dGZpbGUubWFlPic=

>  <r_lp_tautomer_probability>  (290) 
1

>  <r_epik_Ionization_Penalty>  (290) 
0.0345622

>  <r_epik_Ionization_Penalty_Charging>  (290) 
0.0345622

>  <r_epik_Ionization_Penalty_Neutral>  (290) 
2.10533e-12

>  <r_epik_State_Penalty>  (290) 
0.0236524

>  <r_epik_Charging_Adjusted_Penalty>  (290) 
0.0582147

>  <i_epik_Tot_Q>  (290) 
2

>  <i_epik_Tot_abs_Q>  (290) 
2

>  <s_lp_Force_Field>  (290) 
OPLS3e

>  <r_lp_Energy>  (290) 
234.657

>  <b_lp_Chiralities_Consistent>  (290) 
1

>  <s_lp_Variant>  (290) 
69:0-1

>  <s_i_glide_gridfile>  (290) 
pfpi4k_grid

>  <i_i_glide_lignum>  (290) 
14

>  <i_i_glide_rotatable_bonds>  (290) 
4

>  <r_i_docking_score>  (290) 
-3.04614

>  <r_i_glide_ligand_efficiency>  (290) 
-0.095192

>  <r_i_glide_ligand_efficiency_sa>  (290) 
-0.302216

>  <r_i_glide_ligand_efficiency_ln>  (290) 
-0.682114

>  <r_i_glide_gscore>  (290) 
-3.04614

>  <r_i_glide_lipo>  (290) 
-0.242487

>  <r_i_glide_hbond>  (290) 
-0.357744

>  <r_i_glide_metal>  (290) 
-0

>  <r_i_glide_rewards>  (290) 
-0.418328

>  <r_i_glide_evdw>  (290) 
-17.2262

>  <r_i_glide_ecoul>  (290) 
-8.39189

>  <r_i_glide_erotb>  (290) 
0.207386

>  <r_i_glide_esite>  (290) 
-0.114875

>  <r_i_glide_emodel>  (290) 
-31.4288

>  <r_i_glide_energy>  (290) 
-25.6181

>  <r_i_glide_einternal>  (290) 
5.28629

>  <r_i_glide_intrahb_reward>  (290) 
-0

>  <i_i_glide_confnum>  (290) 
3

>  <i_i_glide_posenum>  (290) 
26

>  <r_i_glide_eff_state_penalty>  (290) 
0

>  <ligand_id>  (290) 
69

>  <original_smiles>  (290) 
C=CCN1CCC2(OC)CCC3C4CCC5C1CC3(c1ccc(OC)cc1CCN4C)C52

>  <smiles>  (290) 
[H]C([H])=C([H])C([H])([H])[N+]1([H])C([H])([H])C([H])([H])C2(OC([H])([H])[H])C([H])([H])C([H])([H])C3([H])C45c6c([H])c([H])c(OC([H])([H])[H])c([H])c6C([H])([H])C([H])([H])[N+]([H])(C([H])([H])[H])C3([H])C([H])([H])C([H])([H])C([H])(C24[H])C1([H])C5([H])[H]

$$$$
69:0:2
     RDKit          3D

 74 79  0  0  1  0  0  0  0  0999 V2000
    1.9331   -3.8639   -1.0694 C   0  0  0  0  0  0  0  0  0  0  0  0
    2.3273   -4.7983   -0.1825 C   0  0  0  0  0  0  0  0  0  0  0  0
    3.2262   -4.5470    1.0238 C   0  0  0  0  0  0  0  0  0  0  0  0
    4.4273   -5.4364    1.0456 N   0  0  1  0  0  0  0  0  0  0  0  0
    5.5625   -4.8877    1.8805 C   0  0  0  0  0  0  0  0  0  0  0  0
    5.4222   -5.0026    3.4239 C   0  0  0  0  0  0  0  0  0  0  0  0
    5.7180   -6.4315    3.9700 C   0  0  1  0  0  0  0  0  0  0  0  0
    7.1048   -6.7010    3.7043 O   0  0  0  0  0  0  0  0  0  0  0  0
    8.0927   -6.1844    4.5915 C   0  0  0  0  0  0  0  0  0  0  0  0
    5.2801   -6.9235    5.4105 C   0  0  0  0  0  0  0  0  0  0  0  0
    4.7434   -8.4312    5.4709 C   0  0  0  0  0  0  0  0  0  0  0  0
    3.6243   -8.7602    4.3636 C   0  0  2  0  0  0  0  0  0  0  0  0
    3.5540  -10.0186    3.4815 C   0  0  1  0  0  0  0  0  0  0  0  0
    4.8063  -10.3700    2.6226 C   0  0  0  0  0  0  0  0  0  0  0  0
    5.1138   -9.3437    1.4322 C   0  0  0  0  0  0  0  0  0  0  0  0
    5.2552   -7.7598    1.6822 C   0  0  1  0  0  0  0  0  0  0  0  0
    4.1622   -6.9342    1.0390 C   0  0  1  0  0  0  0  0  0  0  0  0
    2.9501   -7.4415    1.8720 C   0  0  0  0  0  0  0  0  0  0  0  0
    3.3824   -7.5724    3.3906 C   0  0  1  0  0  0  0  0  0  0  0  0
    2.1951   -6.9043    4.1613 C   0  0  0  0  0  0  0  0  0  0  0  0
    2.2343   -5.6573    4.8253 C   0  0  0  0  0  0  0  0  0  0  0  0
    1.1313   -5.1477    5.5266 C   0  0  0  0  0  0  0  0  0  0  0  0
   -0.0651   -5.8788    5.6104 C   0  0  0  0  0  0  0  0  0  0  0  0
   -1.1844   -5.4607    6.2901 O   0  0  0  0  0  0  0  0  0  0  0  0
   -1.1536   -4.2076    6.9590 C   0  0  0  0  0  0  0  0  0  0  0  0
   -0.1296   -7.1293    4.9689 C   0  0  0  0  0  0  0  0  0  0  0  0
    0.9624   -7.6686    4.2450 C   0  0  0  0  0  0  0  0  0  0  0  0
    0.7019   -9.0781    3.5974 C   0  0  0  0  0  0  0  0  0  0  0  0
    1.1951  -10.4119    4.3178 C   0  0  0  0  0  0  0  0  0  0  0  0
    2.5390  -11.0138    3.9335 N   0  0  2  0  0  0  0  0  0  0  0  0
    3.0351  -11.9672    4.9536 C   0  0  0  0  0  0  0  0  0  0  0  0
    4.9412   -7.3892    3.1252 C   0  0  2  0  0  0  0  0  0  0  0  0
    2.2422   -2.8265   -1.0016 H   0  0  0  0  0  0  0  0  0  0  0  0
    1.2834   -4.1329   -1.8950 H   0  0  0  0  0  0  0  0  0  0  0  0
    1.9804   -5.8096   -0.3329 H   0  0  0  0  0  0  0  0  0  0  0  0
    3.5324   -3.4983    0.9944 H   0  0  0  0  0  0  0  0  0  0  0  0
    2.6488   -4.6571    1.9397 H   0  0  0  0  0  0  0  0  0  0  0  0
    6.5258   -5.2877    1.5588 H   0  0  0  0  0  0  0  0  0  0  0  0
    5.6470   -3.8239    1.6521 H   0  0  0  0  0  0  0  0  0  0  0  0
    6.1022   -4.2994    3.8975 H   0  0  0  0  0  0  0  0  0  0  0  0
    4.4483   -4.6047    3.6478 H   0  0  0  0  0  0  0  0  0  0  0  0
    9.0697   -6.2392    4.1075 H   0  0  0  0  0  0  0  0  0  0  0  0
    8.1579   -6.7876    5.4959 H   0  0  0  0  0  0  0  0  0  0  0  0
    7.9238   -5.1474    4.8792 H   0  0  0  0  0  0  0  0  0  0  0  0
    6.0797   -6.7981    6.1348 H   0  0  0  0  0  0  0  0  0  0  0  0
    4.5159   -6.2675    5.8075 H   0  0  0  0  0  0  0  0  0  0  0  0
    5.5806   -9.1268    5.3929 H   0  0  0  0  0  0  0  0  0  0  0  0
    4.3441   -8.6004    6.4714 H   0  0  0  0  0  0  0  0  0  0  0  0
    2.8492   -8.8789    5.1096 H   0  0  0  0  0  0  0  0  0  0  0  0
    2.9377   -9.8136    2.6300 H   0  0  0  0  0  0  0  0  0  0  0  0
    5.6845  -10.4980    3.2528 H   0  0  0  0  0  0  0  0  0  0  0  0
    4.6574  -11.3504    2.1775 H   0  0  0  0  0  0  0  0  0  0  0  0
    6.0444   -9.6817    0.9701 H   0  0  0  0  0  0  0  0  0  0  0  0
    4.3776   -9.5174    0.6420 H   0  0  0  0  0  0  0  0  0  0  0  0
    6.2557   -7.4545    1.3652 H   0  0  0  0  0  0  0  0  0  0  0  0
    4.0473   -7.2202   -0.0040 H   0  0  0  0  0  0  0  0  0  0  0  0
    2.0896   -6.7867    1.7675 H   0  0  0  0  0  0  0  0  0  0  0  0
    2.5970   -8.3423    1.3878 H   0  0  0  0  0  0  0  0  0  0  0  0
    3.0990   -5.0492    4.8928 H   0  0  0  0  0  0  0  0  0  0  0  0
    1.2409   -4.1966    6.0160 H   0  0  0  0  0  0  0  0  0  0  0  0
   -2.1256   -4.0351    7.4256 H   0  0  0  0  0  0  0  0  0  0  0  0
   -0.9725   -3.3867    6.2638 H   0  0  0  0  0  0  0  0  0  0  0  0
   -0.4010   -4.1964    7.7485 H   0  0  0  0  0  0  0  0  0  0  0  0
   -1.0468   -7.6915    5.0417 H   0  0  0  0  0  0  0  0  0  0  0  0
   -0.3818   -9.1840    3.5619 H   0  0  0  0  0  0  0  0  0  0  0  0
    0.9472   -9.0811    2.5387 H   0  0  0  0  0  0  0  0  0  0  0  0
    1.1253  -10.2769    5.3982 H   0  0  0  0  0  0  0  0  0  0  0  0
    0.4575  -11.1906    4.1060 H   0  0  0  0  0  0  0  0  0  0  0  0
    3.2799  -11.4719    5.8940 H   0  0  0  0  0  0  0  0  0  0  0  0
    3.9145  -12.5055    4.5938 H   0  0  0  0  0  0  0  0  0  0  0  0
    2.2619  -12.7064    5.1649 H   0  0  0  0  0  0  0  0  0  0  0  0
    5.5789   -8.2295    3.3828 H   0  0  0  0  0  0  0  0  0  0  0  0
    2.3521  -11.5856    3.1184 H   0  0  0  0  0  0  0  0  0  0  0  0
    4.8111   -5.2939    0.1211 H   0  0  0  0  0  0  0  0  0  0  0  0
  1  2  2  0
  1 33  1  0
  1 34  1  0
  2  3  1  0
  2 35  1  0
  3  4  1  0
  3 36  1  0
  3 37  1  0
  4 17  1  0
  4  5  1  0
  4 74  1  6
  5  6  1  0
  5 38  1  0
  5 39  1  0
  6  7  1  0
  6 40  1  0
  6 41  1  0
  7 32  1  0
  7  8  1  1
  7 10  1  0
  8  9  1  0
  9 42  1  0
  9 43  1  0
  9 44  1  0
 10 11  1  0
 10 45  1  0
 10 46  1  0
 11 12  1  0
 11 47  1  0
 11 48  1  0
 12 19  1  0
 12 13  1  0
 12 49  1  1
 13 30  1  0
 13 14  1  0
 13 50  1  6
 14 15  1  0
 14 51  1  0
 14 52  1  0
 15 16  1  0
 15 53  1  0
 15 54  1  0
 16 32  1  0
 16 17  1  0
 16 55  1  6
 17 18  1  0
 17 56  1  6
 19 18  1  6
 18 57  1  0
 18 58  1  0
 19 20  1  0
 19 32  1  0
 20 27  2  0
 20 21  1  0
 21 22  2  0
 21 59  1  0
 22 23  1  0
 22 60  1  0
 23 24  1  0
 23 26  2  0
 24 25  1  0
 25 61  1  0
 25 62  1  0
 25 63  1  0
 26 27  1  0
 26 64  1  0
 27 28  1  0
 28 29  1  0
 28 65  1  0
 28 66  1  0
 29 30  1  0
 29 67  1  0
 29 68  1  0
 30 31  1  0
 30 73  1  6
 31 69  1  0
 31 70  1  0
 31 71  1  0
 32 72  1  1
M  CHG  2   4   1  30   1
M  END
>  <i_m_ct_stereo_status>  (291) 
1

>  <s_m_source_file>  (291) 
/var/tmp/pbs.5076255.sched01/tmp8hdfbsd6/1003312lgh9.sdf

>  <i_m_source_file_index>  (291) 
14

>  <i_lp_mmshare_version>  (291) 
48012

>  <i_f3d_flags>  (291) 
0

>  <s_epik_input>  (291) 
W0NIM11PW0NAQF0oW0NASF0xMikoW0NIMl1bQ0gyXTMpW0NIMl1bQ0gyXU4oW0NIMl1bQ0hdPVtDSDJdKVtDQEhdKFtDSDJdNClbQ0BASF0xW0NIMl1bQ0gyXVtDQEhdKFtDQEBIXTNbQ0BAXTI0NSlOKFtDSDNdKVtDSDJdW0NIMl1jNmM1W2NIXVtjSF1jKFtjSF02KU9bQ0gzXQ==

>  <s_epik_cmdline>  (291) 
J2VwaWtfcHl0aG9uJywgJy1waHQnLCAnMi4wJywgJy1waCcsICc3LjAnLCAnLXRuJywgJzgnLCAnLW1hJywgJzIwMCcsICctaW1hZScsICc8aW5maWxlLm1hZT4nLCAnLW9tYWUnLCAnPG91dGZpbGUubWFlPic=

>  <r_lp_tautomer_probability>  (291) 
1

>  <r_epik_Ionization_Penalty>  (291) 
0.0345622

>  <r_epik_Ionization_Penalty_Charging>  (291) 
0.0345622

>  <r_epik_Ionization_Penalty_Neutral>  (291) 
2.10533e-12

>  <r_epik_State_Penalty>  (291) 
0.0236524

>  <r_epik_Charging_Adjusted_Penalty>  (291) 
0.0582147

>  <i_epik_Tot_Q>  (291) 
2

>  <i_epik_Tot_abs_Q>  (291) 
2

>  <s_lp_Force_Field>  (291) 
OPLS3e

>  <r_lp_Energy>  (291) 
234.657

>  <b_lp_Chiralities_Consistent>  (291) 
1

>  <s_lp_Variant>  (291) 
69:0-1

>  <s_i_glide_gridfile>  (291) 
pfpi4k_grid

>  <i_i_glide_lignum>  (291) 
14

>  <i_i_glide_rotatable_bonds>  (291) 
4

>  <r_i_docking_score>  (291) 
-2.46002

>  <r_i_glide_ligand_efficiency>  (291) 
-0.0768757

>  <r_i_glide_ligand_efficiency_sa>  (291) 
-0.244065

>  <r_i_glide_ligand_efficiency_ln>  (291) 
-0.550866

>  <r_i_glide_gscore>  (291) 
-2.46002

>  <r_i_glide_lipo>  (291) 
-0.258623

>  <r_i_glide_hbond>  (291) 
0

>  <r_i_glide_metal>  (291) 
-0

>  <r_i_glide_rewards>  (291) 
-0.418328

>  <r_i_glide_evdw>  (291) 
-21.0289

>  <r_i_glide_ecoul>  (291) 
-6.193

>  <r_i_glide_erotb>  (291) 
0.207386

>  <r_i_glide_esite>  (291) 
-0.0100633

>  <r_i_glide_emodel>  (291) 
-34.006

>  <r_i_glide_energy>  (291) 
-27.2219

>  <r_i_glide_einternal>  (291) 
0.446985

>  <r_i_glide_intrahb_reward>  (291) 
-0

>  <i_i_glide_confnum>  (291) 
3

>  <i_i_glide_posenum>  (291) 
28

>  <r_i_glide_eff_state_penalty>  (291) 
0

>  <ligand_id>  (291) 
69

>  <original_smiles>  (291) 
C=CCN1CCC2(OC)CCC3C4CCC5C1CC3(c1ccc(OC)cc1CCN4C)C52

>  <smiles>  (291) 
[H]C([H])=C([H])C([H])([H])[N+]1([H])C([H])([H])C([H])([H])C2(OC([H])([H])[H])C([H])([H])C([H])([H])C3([H])C45c6c([H])c([H])c(OC([H])([H])[H])c([H])c6C([H])([H])C([H])([H])[N+]([H])(C([H])([H])[H])C3([H])C([H])([H])C([H])([H])C([H])(C24[H])C1([H])C5([H])[H]

$$$$
69:1:0
     RDKit          3D

 73 78  0  0  1  0  0  0  0  0999 V2000
    0.4148   -2.3294    4.2771 C   0  0  0  0  0  0  0  0  0  0  0  0
    1.2846   -3.1032    3.6184 C   0  0  0  0  0  0  0  0  0  0  0  0
    2.7957   -3.0540    3.7996 C   0  0  0  0  0  0  0  0  0  0  0  0
    3.4327   -4.3678    3.9706 N   0  0  0  0  0  0  0  0  0  0  0  0
    4.8657   -4.2034    4.3314 C   0  0  0  0  0  0  0  0  0  0  0  0
    5.5393   -5.3156    5.2152 C   0  0  0  0  0  0  0  0  0  0  0  0
    5.5717   -6.7530    4.6330 C   0  0  1  0  0  0  0  0  0  0  0  0
    6.7998   -6.7419    3.8715 O   0  0  0  0  0  0  0  0  0  0  0  0
    7.3796   -7.9442    3.3631 C   0  0  0  0  0  0  0  0  0  0  0  0
    5.4668   -8.0049    5.5765 C   0  0  0  0  0  0  0  0  0  0  0  0
    4.7340   -9.2540    4.8932 C   0  0  0  0  0  0  0  0  0  0  0  0
    3.2878   -8.8796    4.3049 C   0  0  2  0  0  0  0  0  0  0  0  0
    2.7171   -9.3080    2.9428 C   0  0  1  0  0  0  0  0  0  0  0  0
    3.5169   -8.9409    1.6457 C   0  0  0  0  0  0  0  0  0  0  0  0
    3.6586   -7.3655    1.3281 C   0  0  0  0  0  0  0  0  0  0  0  0
    4.1378   -6.2925    2.4419 C   0  0  1  0  0  0  0  0  0  0  0  0
    3.0484   -5.3470    2.9104 C   0  0  1  0  0  0  0  0  0  0  0  0
    2.0755   -6.3640    3.5355 C   0  0  0  0  0  0  0  0  0  0  0  0
    2.9613   -7.3628    4.3876 C   0  0  1  0  0  0  0  0  0  0  0  0
    2.2335   -7.3490    5.7572 C   0  0  0  0  0  0  0  0  0  0  0  0
    2.6461   -6.5913    6.8656 C   0  0  0  0  0  0  0  0  0  0  0  0
    1.9783   -6.6610    8.0989 C   0  0  0  0  0  0  0  0  0  0  0  0
    0.8491   -7.4856    8.2522 C   0  0  0  0  0  0  0  0  0  0  0  0
    0.1302   -7.6105    9.4215 O   0  0  0  0  0  0  0  0  0  0  0  0
    0.5951   -6.9252   10.5742 C   0  0  0  0  0  0  0  0  0  0  0  0
    0.3880   -8.2110    7.1342 C   0  0  0  0  0  0  0  0  0  0  0  0
    1.0223   -8.1402    5.8744 C   0  0  0  0  0  0  0  0  0  0  0  0
    0.3031   -8.8918    4.6900 C   0  0  0  0  0  0  0  0  0  0  0  0
    0.7713  -10.3324    4.2008 C   0  0  0  0  0  0  0  0  0  0  0  0
    1.7639  -10.4415    3.0552 N   0  0  2  0  0  0  0  0  0  0  0  0
    2.4167  -11.7676    3.0121 C   0  0  0  0  0  0  0  0  0  0  0  0
    4.3698   -6.9613    3.7663 C   0  0  2  0  0  0  0  0  0  0  0  0
    0.7351   -1.5956    5.0051 H   0  0  0  0  0  0  0  0  0  0  0  0
   -0.6427   -2.4231    4.0879 H   0  0  0  0  0  0  0  0  0  0  0  0
    0.8936   -3.8028    2.8940 H   0  0  0  0  0  0  0  0  0  0  0  0
    3.2298   -2.5418    2.9408 H   0  0  0  0  0  0  0  0  0  0  0  0
    3.0097   -2.4351    4.6728 H   0  0  0  0  0  0  0  0  0  0  0  0
    5.4659   -3.9799    3.4483 H   0  0  0  0  0  0  0  0  0  0  0  0
    4.9330   -3.3002    4.9422 H   0  0  0  0  0  0  0  0  0  0  0  0
    6.5756   -5.0059    5.3647 H   0  0  0  0  0  0  0  0  0  0  0  0
    5.1715   -5.2758    6.2293 H   0  0  0  0  0  0  0  0  0  0  0  0
    8.3318   -7.7101    2.8865 H   0  0  0  0  0  0  0  0  0  0  0  0
    6.7614   -8.4302    2.6084 H   0  0  0  0  0  0  0  0  0  0  0  0
    7.6044   -8.6611    4.1500 H   0  0  0  0  0  0  0  0  0  0  0  0
    6.4473   -8.2787    5.9594 H   0  0  0  0  0  0  0  0  0  0  0  0
    4.9248   -7.7398    6.4811 H   0  0  0  0  0  0  0  0  0  0  0  0
    5.3557   -9.6956    4.1148 H   0  0  0  0  0  0  0  0  0  0  0  0
    4.6524  -10.0446    5.6413 H   0  0  0  0  0  0  0  0  0  0  0  0
    2.8018   -9.4780    5.0604 H   0  0  0  0  0  0  0  0  0  0  0  0
    1.8859   -8.6815    2.6949 H   0  0  0  0  0  0  0  0  0  0  0  0
    4.5010   -9.4090    1.6779 H   0  0  0  0  0  0  0  0  0  0  0  0
    3.0252   -9.4076    0.7885 H   0  0  0  0  0  0  0  0  0  0  0  0
    4.3498   -7.2909    0.4836 H   0  0  0  0  0  0  0  0  0  0  0  0
    2.7091   -7.0275    0.9046 H   0  0  0  0  0  0  0  0  0  0  0  0
    5.0208   -5.7640    2.0757 H   0  0  0  0  0  0  0  0  0  0  0  0
    2.6211   -4.8305    2.0542 H   0  0  0  0  0  0  0  0  0  0  0  0
    1.3668   -5.8240    4.1617 H   0  0  0  0  0  0  0  0  0  0  0  0
    1.4493   -6.7740    2.7518 H   0  0  0  0  0  0  0  0  0  0  0  0
    3.4734   -5.9342    6.7974 H   0  0  0  0  0  0  0  0  0  0  0  0
    2.3611   -6.0666    8.9087 H   0  0  0  0  0  0  0  0  0  0  0  0
   -0.0687   -7.1418   11.4106 H   0  0  0  0  0  0  0  0  0  0  0  0
    0.5921   -5.8455   10.4314 H   0  0  0  0  0  0  0  0  0  0  0  0
    1.5947   -7.2494   10.8600 H   0  0  0  0  0  0  0  0  0  0  0  0
   -0.4998   -8.8174    7.2473 H   0  0  0  0  0  0  0  0  0  0  0  0
   -0.7208   -9.0431    5.0330 H   0  0  0  0  0  0  0  0  0  0  0  0
    0.1582   -8.2133    3.8519 H   0  0  0  0  0  0  0  0  0  0  0  0
    1.1008  -10.9057    5.0686 H   0  0  0  0  0  0  0  0  0  0  0  0
   -0.1214  -10.8550    3.8555 H   0  0  0  0  0  0  0  0  0  0  0  0
    3.0381  -11.9604    3.8923 H   0  0  0  0  0  0  0  0  0  0  0  0
    3.0177  -11.8841    2.1146 H   0  0  0  0  0  0  0  0  0  0  0  0
    1.6316  -12.5202    2.9548 H   0  0  0  0  0  0  0  0  0  0  0  0
    4.8522   -7.7391    3.2041 H   0  0  0  0  0  0  0  0  0  0  0  0
    1.2105  -10.3975    2.2095 H   0  0  0  0  0  0  0  0  0  0  0  0
  1  2  2  0
  1 33  1  0
  1 34  1  0
  2  3  1  0
  2 35  1  0
  3  4  1  0
  3 36  1  0
  3 37  1  0
  4 17  1  0
  4  5  1  0
  5  6  1  0
  5 38  1  0
  5 39  1  0
  6  7  1  0
  6 40  1  0
  6 41  1  0
  7 32  1  0
  7  8  1  6
  7 10  1  0
  8  9  1  0
  9 42  1  0
  9 43  1  0
  9 44  1  0
 10 11  1  0
 10 45  1  0
 10 46  1  0
 11 12  1  0
 11 47  1  0
 11 48  1  0
 12 19  1  0
 12 13  1  0
 12 49  1  1
 13 30  1  0
 13 14  1  0
 13 50  1  6
 14 15  1  0
 14 51  1  0
 14 52  1  0
 15 16  1  0
 15 53  1  0
 15 54  1  0
 16 32  1  0
 16 17  1  0
 16 55  1  6
 17 18  1  0
 17 56  1  6
 19 18  1  6
 18 57  1  0
 18 58  1  0
 19 20  1  0
 19 32  1  0
 20 27  2  0
 20 21  1  0
 21 22  2  0
 21 59  1  0
 22 23  1  0
 22 60  1  0
 23 24  1  0
 23 26  2  0
 24 25  1  0
 25 61  1  0
 25 62  1  0
 25 63  1  0
 26 27  1  0
 26 64  1  0
 27 28  1  0
 28 29  1  0
 28 65  1  0
 28 66  1  0
 29 30  1  0
 29 67  1  0
 29 68  1  0
 30 31  1  0
 30 73  1  6
 31 69  1  0
 31 70  1  0
 31 71  1  0
 32 72  1  6
M  CHG  1  30   1
M  END
>  <i_m_ct_stereo_status>  (292) 
1

>  <s_m_source_file>  (292) 
/var/tmp/pbs.5076255.sched01/tmp8hdfbsd6/1003312lgh9.sdf

>  <i_m_source_file_index>  (292) 
15

>  <i_lp_mmshare_version>  (292) 
48012

>  <i_f3d_flags>  (292) 
0

>  <s_epik_input>  (292) 
W0NIM11PW0NAQF0oW0NASF0xMikoW0NIMl1bQ0gyXTMpW0NIMl1bQ0gyXU4oW0NIMl1bQ0hdPVtDSDJdKVtDQEhdKFtDSDJdNClbQ0BASF0xW0NIMl1bQ0gyXVtDQEhdKFtDQEBIXTNbQ0BAXTI0NSlOKFtDSDNdKVtDSDJdW0NIMl1jNmM1W2NIXVtjSF1jKFtjSF02KU9bQ0gzXQ==

>  <s_epik_cmdline>  (292) 
J2VwaWtfcHl0aG9uJywgJy1waHQnLCAnMi4wJywgJy1waCcsICc3LjAnLCAnLXRuJywgJzgnLCAnLW1hJywgJzIwMCcsICctaW1hZScsICc8aW5maWxlLm1hZT4nLCAnLW9tYWUnLCAnPG91dGZpbGUubWFlPic=

>  <r_lp_tautomer_probability>  (292) 
1

>  <r_epik_Ionization_Penalty>  (292) 
1.80765

>  <r_epik_Ionization_Penalty_Charging>  (292) 
0.00161878

>  <r_epik_Ionization_Penalty_Neutral>  (292) 
1.80603

>  <r_epik_State_Penalty>  (292) 
1.9201

>  <r_epik_Charging_Adjusted_Penalty>  (292) 
1.92172

>  <i_epik_Tot_Q>  (292) 
1

>  <i_epik_Tot_abs_Q>  (292) 
1

>  <s_lp_Force_Field>  (292) 
OPLS3e

>  <r_lp_Energy>  (292) 
225.934

>  <b_lp_Chiralities_Consistent>  (292) 
1

>  <s_lp_Variant>  (292) 
69:0-2

>  <s_i_glide_gridfile>  (292) 
pfpi4k_grid

>  <i_i_glide_lignum>  (292) 
15

>  <i_i_glide_rotatable_bonds>  (292) 
4

>  <r_i_docking_score>  (292) 
-2.45972

>  <r_i_glide_ligand_efficiency>  (292) 
-0.0768663

>  <r_i_glide_ligand_efficiency_sa>  (292) 
-0.244035

>  <r_i_glide_ligand_efficiency_ln>  (292) 
-0.550799

>  <r_i_glide_gscore>  (292) 
-2.45972

>  <r_i_glide_lipo>  (292) 
-0.187597

>  <r_i_glide_hbond>  (292) 
-0.32

>  <r_i_glide_metal>  (292) 
-0

>  <r_i_glide_rewards>  (292) 
-0.4252

>  <r_i_glide_evdw>  (292) 
-16.2604

>  <r_i_glide_ecoul>  (292) 
-6.14773

>  <r_i_glide_erotb>  (292) 
0.208253

>  <r_i_glide_esite>  (292) 
0

>  <r_i_glide_emodel>  (292) 
-26.6068

>  <r_i_glide_energy>  (292) 
-22.4081

>  <r_i_glide_einternal>  (292) 
2.90097

>  <r_i_glide_intrahb_reward>  (292) 
-0

>  <i_i_glide_confnum>  (292) 
1

>  <i_i_glide_posenum>  (292) 
34

>  <r_i_glide_eff_state_penalty>  (292) 
0

>  <ligand_id>  (292) 
69

>  <original_smiles>  (292) 
C=CCN1CCC2(OC)CCC3C4CCC5C1CC3(c1ccc(OC)cc1CCN4C)C52

>  <smiles>  (292) 
[H]C([H])=C([H])C([H])([H])N1C([H])([H])C([H])([H])C2(OC([H])([H])[H])C([H])([H])C([H])([H])C3([H])C45c6c([H])c([H])c(OC([H])([H])[H])c([H])c6C([H])([H])C([H])([H])[N+]([H])(C([H])([H])[H])C3([H])C([H])([H])C([H])([H])C([H])(C1([H])C4([H])[H])C25[H]

$$$$
69:1:1
     RDKit          3D

 73 78  0  0  1  0  0  0  0  0999 V2000
   -1.3778   -9.2406    2.3021 C   0  0  0  0  0  0  0  0  0  0  0  0
   -1.3055   -8.2391    3.1855 C   0  0  0  0  0  0  0  0  0  0  0  0
   -0.8558   -8.4062    4.6302 C   0  0  0  0  0  0  0  0  0  0  0  0
    0.2165   -7.4873    5.0626 N   0  0  0  0  0  0  0  0  0  0  0  0
    0.6105   -7.7894    6.4669 C   0  0  0  0  0  0  0  0  0  0  0  0
    2.0978   -7.5210    6.8892 C   0  0  0  0  0  0  0  0  0  0  0  0
    2.6097   -6.0560    6.7732 C   0  0  1  0  0  0  0  0  0  0  0  0
    2.1677   -5.3674    7.9531 O   0  0  0  0  0  0  0  0  0  0  0  0
    2.9245   -5.5155    9.1480 C   0  0  0  0  0  0  0  0  0  0  0  0
    4.1042   -5.7236    6.4010 C   0  0  0  0  0  0  0  0  0  0  0  0
    4.2807   -4.3853    5.5471 C   0  0  0  0  0  0  0  0  0  0  0  0
    3.3827   -4.3673    4.2188 C   0  0  2  0  0  0  0  0  0  0  0  0
    2.5595   -3.1740    3.6752 C   0  0  1  0  0  0  0  0  0  0  0  0
    1.4955   -2.5467    4.6506 C   0  0  0  0  0  0  0  0  0  0  0  0
    0.2638   -3.4926    5.0630 C   0  0  0  0  0  0  0  0  0  0  0  0
    0.4616   -5.0065    5.6050 C   0  0  1  0  0  0  0  0  0  0  0  0
    0.0167   -6.0728    4.6369 C   0  0  1  0  0  0  0  0  0  0  0  0
    0.9862   -5.8108    3.4703 C   0  0  0  0  0  0  0  0  0  0  0  0
    2.4042   -5.5690    4.1273 C   0  0  1  0  0  0  0  0  0  0  0  0
    3.2909   -6.5301    3.2909 C   0  0  0  0  0  0  0  0  0  0  0  0
    3.6847   -7.8131    3.7227 C   0  0  0  0  0  0  0  0  0  0  0  0
    4.5369   -8.6291    2.9497 C   0  0  0  0  0  0  0  0  0  0  0  0
    4.9995   -8.1823    1.6967 C   0  0  0  0  0  0  0  0  0  0  0  0
    5.8427   -8.9063    0.8949 O   0  0  0  0  0  0  0  0  0  0  0  0
    6.3501  -10.1380    1.3701 C   0  0  0  0  0  0  0  0  0  0  0  0
    4.5569   -6.9330    1.2117 C   0  0  0  0  0  0  0  0  0  0  0  0
    3.6870   -6.0951    1.9619 C   0  0  0  0  0  0  0  0  0  0  0  0
    3.1833   -4.8010    1.2324 C   0  0  0  0  0  0  0  0  0  0  0  0
    3.8226   -3.3601    1.5278 C   0  0  0  0  0  0  0  0  0  0  0  0
    3.2352   -2.4658    2.5775 N   0  0  2  0  0  0  0  0  0  0  0  0
    4.1450   -1.4077    3.0005 C   0  0  0  0  0  0  0  0  0  0  0  0
    1.9194   -5.3827    5.6244 C   0  0  2  0  0  0  0  0  0  0  0  0
   -1.0963  -10.2464    2.5729 H   0  0  0  0  0  0  0  0  0  0  0  0
   -1.7158   -9.0601    1.2936 H   0  0  0  0  0  0  0  0  0  0  0  0
   -1.6215   -7.2606    2.8637 H   0  0  0  0  0  0  0  0  0  0  0  0
   -1.7515   -8.2814    5.2182 H   0  0  0  0  0  0  0  0  0  0  0  0
   -0.5223   -9.4345    4.7882 H   0  0  0  0  0  0  0  0  0  0  0  0
   -0.0758   -7.3248    7.1714 H   0  0  0  0  0  0  0  0  0  0  0  0
    0.4768   -8.8633    6.6089 H   0  0  0  0  0  0  0  0  0  0  0  0
    2.1587   -7.8262    7.9341 H   0  0  0  0  0  0  0  0  0  0  0  0
    2.7684   -8.2395    6.4450 H   0  0  0  0  0  0  0  0  0  0  0  0
    2.3124   -5.2018    9.9958 H   0  0  0  0  0  0  0  0  0  0  0  0
    3.8001   -4.8678    9.1286 H   0  0  0  0  0  0  0  0  0  0  0  0
    3.2477   -6.5386    9.3384 H   0  0  0  0  0  0  0  0  0  0  0  0
    4.7357   -5.6758    7.2861 H   0  0  0  0  0  0  0  0  0  0  0  0
    4.5250   -6.5498    5.8396 H   0  0  0  0  0  0  0  0  0  0  0  0
    4.0931   -3.5081    6.1628 H   0  0  0  0  0  0  0  0  0  0  0  0
    5.3413   -4.3025    5.2776 H   0  0  0  0  0  0  0  0  0  0  0  0
    4.2450   -4.4603    3.5839 H   0  0  0  0  0  0  0  0  0  0  0  0
    1.8287   -3.5327    2.9904 H   0  0  0  0  0  0  0  0  0  0  0  0
    1.9845   -2.1617    5.5424 H   0  0  0  0  0  0  0  0  0  0  0  0
    1.0675   -1.6672    4.1597 H   0  0  0  0  0  0  0  0  0  0  0  0
   -0.2999   -2.9472    5.8251 H   0  0  0  0  0  0  0  0  0  0  0  0
   -0.4171   -3.4980    4.2160 H   0  0  0  0  0  0  0  0  0  0  0  0
   -0.0209   -5.1046    6.5785 H   0  0  0  0  0  0  0  0  0  0  0  0
   -1.0195   -5.9175    4.3737 H   0  0  0  0  0  0  0  0  0  0  0  0
    0.9772   -6.6693    2.8073 H   0  0  0  0  0  0  0  0  0  0  0  0
    0.5823   -5.0167    2.8580 H   0  0  0  0  0  0  0  0  0  0  0  0
    3.3406   -8.2138    4.6346 H   0  0  0  0  0  0  0  0  0  0  0  0
    4.8092   -9.5847    3.3468 H   0  0  0  0  0  0  0  0  0  0  0  0
    6.9852  -10.5722    0.6008 H   0  0  0  0  0  0  0  0  0  0  0  0
    5.5636  -10.8555    1.5863 H   0  0  0  0  0  0  0  0  0  0  0  0
    6.9634   -9.9999    2.2585 H   0  0  0  0  0  0  0  0  0  0  0  0
    4.8807   -6.6271    0.2311 H   0  0  0  0  0  0  0  0  0  0  0  0
    3.3669   -4.9793    0.1740 H   0  0  0  0  0  0  0  0  0  0  0  0
    2.0969   -4.7556    1.2640 H   0  0  0  0  0  0  0  0  0  0  0  0
    4.8998   -3.5043    1.6824 H   0  0  0  0  0  0  0  0  0  0  0  0
    3.7707   -2.8047    0.5832 H   0  0  0  0  0  0  0  0  0  0  0  0
    5.0102   -1.8067    3.5406 H   0  0  0  0  0  0  0  0  0  0  0  0
    3.6510   -0.6765    3.6496 H   0  0  0  0  0  0  0  0  0  0  0  0
    4.5297   -0.8522    2.1378 H   0  0  0  0  0  0  0  0  0  0  0  0
    2.0818   -4.3941    6.0421 H   0  0  0  0  0  0  0  0  0  0  0  0
    2.4722   -1.9777    2.0947 H   0  0  0  0  0  0  0  0  0  0  0  0
  1  2  2  0
  1 33  1  0
  1 34  1  0
  2  3  1  0
  2 35  1  0
  3  4  1  0
  3 36  1  0
  3 37  1  0
  4 17  1  0
  4  5  1  0
  5  6  1  0
  5 38  1  0
  5 39  1  0
  6  7  1  0
  6 40  1  0
  6 41  1  0
  7 32  1  0
  7  8  1  1
  7 10  1  0
  8  9  1  0
  9 42  1  0
  9 43  1  0
  9 44  1  0
 10 11  1  0
 10 45  1  0
 10 46  1  0
 11 12  1  0
 11 47  1  0
 11 48  1  0
 12 19  1  0
 12 13  1  0
 12 49  1  6
 13 30  1  0
 13 14  1  0
 13 50  1  6
 14 15  1  0
 14 51  1  0
 14 52  1  0
 15 16  1  0
 15 53  1  0
 15 54  1  0
 16 32  1  0
 16 17  1  0
 16 55  1  1
 17 18  1  0
 17 56  1  6
 19 18  1  6
 18 57  1  0
 18 58  1  0
 19 20  1  0
 19 32  1  0
 20 27  2  0
 20 21  1  0
 21 22  2  0
 21 59  1  0
 22 23  1  0
 22 60  1  0
 23 24  1  0
 23 26  2  0
 24 25  1  0
 25 61  1  0
 25 62  1  0
 25 63  1  0
 26 27  1  0
 26 64  1  0
 27 28  1  0
 28 29  1  0
 28 65  1  0
 28 66  1  0
 29 30  1  0
 29 67  1  0
 29 68  1  0
 30 31  1  0
 30 73  1  6
 31 69  1  0
 31 70  1  0
 31 71  1  0
 32 72  1  1
M  CHG  1  30   1
M  END
>  <i_m_ct_stereo_status>  (293) 
1

>  <s_m_source_file>  (293) 
/var/tmp/pbs.5076255.sched01/tmp8hdfbsd6/1003312lgh9.sdf

>  <i_m_source_file_index>  (293) 
15

>  <i_lp_mmshare_version>  (293) 
48012

>  <i_f3d_flags>  (293) 
0

>  <s_epik_input>  (293) 
W0NIM11PW0NAQF0oW0NASF0xMikoW0NIMl1bQ0gyXTMpW0NIMl1bQ0gyXU4oW0NIMl1bQ0hdPVtDSDJdKVtDQEhdKFtDSDJdNClbQ0BASF0xW0NIMl1bQ0gyXVtDQEhdKFtDQEBIXTNbQ0BAXTI0NSlOKFtDSDNdKVtDSDJdW0NIMl1jNmM1W2NIXVtjSF1jKFtjSF02KU9bQ0gzXQ==

>  <s_epik_cmdline>  (293) 
J2VwaWtfcHl0aG9uJywgJy1waHQnLCAnMi4wJywgJy1waCcsICc3LjAnLCAnLXRuJywgJzgnLCAnLW1hJywgJzIwMCcsICctaW1hZScsICc8aW5maWxlLm1hZT4nLCAnLW9tYWUnLCAnPG91dGZpbGUubWFlPic=

>  <r_lp_tautomer_probability>  (293) 
1

>  <r_epik_Ionization_Penalty>  (293) 
1.80765

>  <r_epik_Ionization_Penalty_Charging>  (293) 
0.00161878

>  <r_epik_Ionization_Penalty_Neutral>  (293) 
1.80603

>  <r_epik_State_Penalty>  (293) 
1.9201

>  <r_epik_Charging_Adjusted_Penalty>  (293) 
1.92172

>  <i_epik_Tot_Q>  (293) 
1

>  <i_epik_Tot_abs_Q>  (293) 
1

>  <s_lp_Force_Field>  (293) 
OPLS3e

>  <r_lp_Energy>  (293) 
225.934

>  <b_lp_Chiralities_Consistent>  (293) 
1

>  <s_lp_Variant>  (293) 
69:0-2

>  <s_i_glide_gridfile>  (293) 
pfpi4k_grid

>  <i_i_glide_lignum>  (293) 
15

>  <i_i_glide_rotatable_bonds>  (293) 
4

>  <r_i_docking_score>  (293) 
-2.14488

>  <r_i_glide_ligand_efficiency>  (293) 
-0.0670275

>  <r_i_glide_ligand_efficiency_sa>  (293) 
-0.212799

>  <r_i_glide_ligand_efficiency_ln>  (293) 
-0.480297

>  <r_i_glide_gscore>  (293) 
-2.14488

>  <r_i_glide_lipo>  (293) 
-0.423666

>  <r_i_glide_hbond>  (293) 
0

>  <r_i_glide_metal>  (293) 
-0

>  <r_i_glide_rewards>  (293) 
-0.4252

>  <r_i_glide_evdw>  (293) 
-20.4116

>  <r_i_glide_ecoul>  (293) 
-3.22459

>  <r_i_glide_erotb>  (293) 
0.208253

>  <r_i_glide_esite>  (293) 
0

>  <r_i_glide_emodel>  (293) 
-28.38

>  <r_i_glide_energy>  (293) 
-23.6362

>  <r_i_glide_einternal>  (293) 
0.0706617

>  <r_i_glide_intrahb_reward>  (293) 
-0

>  <i_i_glide_confnum>  (293) 
1

>  <i_i_glide_posenum>  (293) 
4

>  <r_i_glide_eff_state_penalty>  (293) 
0

>  <ligand_id>  (293) 
69

>  <original_smiles>  (293) 
C=CCN1CCC2(OC)CCC3C4CCC5C1CC3(c1ccc(OC)cc1CCN4C)C52

>  <smiles>  (293) 
[H]C([H])=C([H])C([H])([H])N1C([H])([H])C([H])([H])C2(OC([H])([H])[H])C([H])([H])C([H])([H])C3([H])C45c6c([H])c([H])c(OC([H])([H])[H])c([H])c6C([H])([H])C([H])([H])[N+]([H])(C([H])([H])[H])C3([H])C([H])([H])C([H])([H])C([H])(C1([H])C4([H])[H])C25[H]

$$$$
69:1:2
     RDKit          3D

 73 78  0  0  1  0  0  0  0  0999 V2000
    1.4404   -4.1836   -1.1249 C   0  0  0  0  0  0  0  0  0  0  0  0
    2.2006   -4.9154   -0.2964 C   0  0  0  0  0  0  0  0  0  0  0  0
    3.4310   -4.3965    0.4397 C   0  0  0  0  0  0  0  0  0  0  0  0
    3.8913   -5.2318    1.5638 N   0  0  0  0  0  0  0  0  0  0  0  0
    5.0710   -4.5988    2.2169 C   0  0  0  0  0  0  0  0  0  0  0  0
    5.3024   -4.8682    3.7496 C   0  0  0  0  0  0  0  0  0  0  0  0
    5.5118   -6.3434    4.1881 C   0  0  1  0  0  0  0  0  0  0  0  0
    6.9389   -6.5000    4.0441 O   0  0  0  0  0  0  0  0  0  0  0  0
    7.6253   -7.6416    4.5638 C   0  0  0  0  0  0  0  0  0  0  0  0
    4.9949   -6.8382    5.5856 C   0  0  0  0  0  0  0  0  0  0  0  0
    4.5472   -8.3750    5.5769 C   0  0  0  0  0  0  0  0  0  0  0  0
    3.4558   -8.6986    4.4470 C   0  0  2  0  0  0  0  0  0  0  0  0
    3.4372   -9.9255    3.5074 C   0  0  1  0  0  0  0  0  0  0  0  0
    4.7110  -10.1710    2.6154 C   0  0  0  0  0  0  0  0  0  0  0  0
    5.0225   -9.0611    1.4906 C   0  0  0  0  0  0  0  0  0  0  0  0
    5.0732   -7.4794    1.8286 C   0  0  1  0  0  0  0  0  0  0  0  0
    3.9261   -6.6915    1.2439 C   0  0  1  0  0  0  0  0  0  0  0  0
    2.7432   -7.3522    1.9839 C   0  0  0  0  0  0  0  0  0  0  0  0
    3.1909   -7.5017    3.4931 C   0  0  1  0  0  0  0  0  0  0  0  0
    1.9869   -6.8699    4.2401 C   0  0  0  0  0  0  0  0  0  0  0  0
    1.9624   -5.5527    4.7401 C   0  0  0  0  0  0  0  0  0  0  0  0
    0.8706   -5.0504    5.4642 C   0  0  0  0  0  0  0  0  0  0  0  0
   -0.2636   -5.8574    5.6921 C   0  0  0  0  0  0  0  0  0  0  0  0
   -1.3675   -5.4553    6.4051 O   0  0  0  0  0  0  0  0  0  0  0  0
   -1.3723   -4.1742    6.9956 C   0  0  0  0  0  0  0  0  0  0  0  0
   -0.2861   -7.1557    5.1290 C   0  0  0  0  0  0  0  0  0  0  0  0
    0.7910   -7.6821    4.3857 C   0  0  0  0  0  0  0  0  0  0  0  0
    0.5611   -9.0962    3.7270 C   0  0  0  0  0  0  0  0  0  0  0  0
    1.1393  -10.4445    4.3754 C   0  0  0  0  0  0  0  0  0  0  0  0
    2.4888  -10.9686    3.9506 N   0  0  2  0  0  0  0  0  0  0  0  0
    3.0465  -11.9281    4.9115 C   0  0  0  0  0  0  0  0  0  0  0  0
    4.7376   -7.2332    3.2733 C   0  0  2  0  0  0  0  0  0  0  0  0
    1.6418   -3.1423   -1.3339 H   0  0  0  0  0  0  0  0  0  0  0  0
    0.5967   -4.6441   -1.6058 H   0  0  0  0  0  0  0  0  0  0  0  0
    1.9201   -5.9493   -0.1853 H   0  0  0  0  0  0  0  0  0  0  0  0
    4.2343   -4.2653   -0.2825 H   0  0  0  0  0  0  0  0  0  0  0  0
    3.1959   -3.4025    0.8250 H   0  0  0  0  0  0  0  0  0  0  0  0
    5.9801   -4.7886    1.6476 H   0  0  0  0  0  0  0  0  0  0  0  0
    4.9263   -3.5191    2.1472 H   0  0  0  0  0  0  0  0  0  0  0  0
    6.2102   -4.3297    4.0282 H   0  0  0  0  0  0  0  0  0  0  0  0
    4.5764   -4.3416    4.3494 H   0  0  0  0  0  0  0  0  0  0  0  0
    8.6950   -7.5247    4.3966 H   0  0  0  0  0  0  0  0  0  0  0  0
    7.3333   -8.5768    4.0855 H   0  0  0  0  0  0  0  0  0  0  0  0
    7.4990   -7.7435    5.6395 H   0  0  0  0  0  0  0  0  0  0  0  0
    5.7428   -6.6490    6.3549 H   0  0  0  0  0  0  0  0  0  0  0  0
    4.1585   -6.2310    5.9101 H   0  0  0  0  0  0  0  0  0  0  0  0
    5.4025   -9.0419    5.4825 H   0  0  0  0  0  0  0  0  0  0  0  0
    4.1480   -8.6106    6.5686 H   0  0  0  0  0  0  0  0  0  0  0  0
    2.6892   -8.8555    5.1890 H   0  0  0  0  0  0  0  0  0  0  0  0
    2.8055   -9.7229    2.6721 H   0  0  0  0  0  0  0  0  0  0  0  0
    5.5848  -10.3286    3.2462 H   0  0  0  0  0  0  0  0  0  0  0  0
    4.5809  -11.1161    2.0892 H   0  0  0  0  0  0  0  0  0  0  0  0
    5.9904   -9.3367    1.0614 H   0  0  0  0  0  0  0  0  0  0  0  0
    4.3308   -9.2301    0.6602 H   0  0  0  0  0  0  0  0  0  0  0  0
    6.0490   -7.0827    1.5441 H   0  0  0  0  0  0  0  0  0  0  0  0
    3.8925   -6.8436    0.1684 H   0  0  0  0  0  0  0  0  0  0  0  0
    1.8691   -6.7159    1.8966 H   0  0  0  0  0  0  0  0  0  0  0  0
    2.4564   -8.2475    1.4405 H   0  0  0  0  0  0  0  0  0  0  0  0
    2.7747   -4.8973    4.5789 H   0  0  0  0  0  0  0  0  0  0  0  0
    0.9296   -4.0475    5.8360 H   0  0  0  0  0  0  0  0  0  0  0  0
   -2.3280   -4.0250    7.5036 H   0  0  0  0  0  0  0  0  0  0  0  0
   -1.2726   -3.3769    6.2535 H   0  0  0  0  0  0  0  0  0  0  0  0
   -0.5820   -4.0774    7.7444 H   0  0  0  0  0  0  0  0  0  0  0  0
   -1.1711   -7.7571    5.2639 H   0  0  0  0  0  0  0  0  0  0  0  0
   -0.5186   -9.2387    3.7261 H   0  0  0  0  0  0  0  0  0  0  0  0
    0.7821   -9.0545    2.6604 H   0  0  0  0  0  0  0  0  0  0  0  0
    1.0745  -10.3512    5.4649 H   0  0  0  0  0  0  0  0  0  0  0  0
    0.4184  -11.2358    4.1444 H   0  0  0  0  0  0  0  0  0  0  0  0
    3.2927  -11.4595    5.8689 H   0  0  0  0  0  0  0  0  0  0  0  0
    3.9447  -12.4145    4.5186 H   0  0  0  0  0  0  0  0  0  0  0  0
    2.3160  -12.7134    5.1152 H   0  0  0  0  0  0  0  0  0  0  0  0
    5.3659   -8.0742    3.4845 H   0  0  0  0  0  0  0  0  0  0  0  0
    2.3090  -11.5173    3.1081 H   0  0  0  0  0  0  0  0  0  0  0  0
  1  2  2  0
  1 33  1  0
  1 34  1  0
  2  3  1  0
  2 35  1  0
  3  4  1  0
  3 36  1  0
  3 37  1  0
  4 17  1  0
  4  5  1  0
  5  6  1  0
  5 38  1  0
  5 39  1  0
  6  7  1  0
  6 40  1  0
  6 41  1  0
  7 32  1  0
  7  8  1  1
  7 10  1  0
  8  9  1  0
  9 42  1  0
  9 43  1  0
  9 44  1  0
 10 11  1  0
 10 45  1  0
 10 46  1  0
 11 12  1  0
 11 47  1  0
 11 48  1  0
 12 19  1  0
 12 13  1  0
 12 49  1  1
 13 30  1  0
 13 14  1  0
 13 50  1  6
 14 15  1  0
 14 51  1  0
 14 52  1  0
 15 16  1  0
 15 53  1  0
 15 54  1  0
 16 32  1  0
 16 17  1  0
 16 55  1  6
 17 18  1  0
 17 56  1  6
 19 18  1  6
 18 57  1  0
 18 58  1  0
 19 20  1  0
 19 32  1  0
 20 27  2  0
 20 21  1  0
 21 22  2  0
 21 59  1  0
 22 23  1  0
 22 60  1  0
 23 24  1  0
 23 26  2  0
 24 25  1  0
 25 61  1  0
 25 62  1  0
 25 63  1  0
 26 27  1  0
 26 64  1  0
 27 28  1  0
 28 29  1  0
 28 65  1  0
 28 66  1  0
 29 30  1  0
 29 67  1  0
 29 68  1  0
 30 31  1  0
 30 73  1  6
 31 69  1  0
 31 70  1  0
 31 71  1  0
 32 72  1  1
M  CHG  1  30   1
M  END
>  <i_m_ct_stereo_status>  (294) 
1

>  <s_m_source_file>  (294) 
/var/tmp/pbs.5076255.sched01/tmp8hdfbsd6/1003312lgh9.sdf

>  <i_m_source_file_index>  (294) 
15

>  <i_lp_mmshare_version>  (294) 
48012

>  <i_f3d_flags>  (294) 
0

>  <s_epik_input>  (294) 
W0NIM11PW0NAQF0oW0NASF0xMikoW0NIMl1bQ0gyXTMpW0NIMl1bQ0gyXU4oW0NIMl1bQ0hdPVtDSDJdKVtDQEhdKFtDSDJdNClbQ0BASF0xW0NIMl1bQ0gyXVtDQEhdKFtDQEBIXTNbQ0BAXTI0NSlOKFtDSDNdKVtDSDJdW0NIMl1jNmM1W2NIXVtjSF1jKFtjSF02KU9bQ0gzXQ==

>  <s_epik_cmdline>  (294) 
J2VwaWtfcHl0aG9uJywgJy1waHQnLCAnMi4wJywgJy1waCcsICc3LjAnLCAnLXRuJywgJzgnLCAnLW1hJywgJzIwMCcsICctaW1hZScsICc8aW5maWxlLm1hZT4nLCAnLW9tYWUnLCAnPG91dGZpbGUubWFlPic=

>  <r_lp_tautomer_probability>  (294) 
1

>  <r_epik_Ionization_Penalty>  (294) 
1.80765

>  <r_epik_Ionization_Penalty_Charging>  (294) 
0.00161878

>  <r_epik_Ionization_Penalty_Neutral>  (294) 
1.80603

>  <r_epik_State_Penalty>  (294) 
1.9201

>  <r_epik_Charging_Adjusted_Penalty>  (294) 
1.92172

>  <i_epik_Tot_Q>  (294) 
1

>  <i_epik_Tot_abs_Q>  (294) 
1

>  <s_lp_Force_Field>  (294) 
OPLS3e

>  <r_lp_Energy>  (294) 
225.934

>  <b_lp_Chiralities_Consistent>  (294) 
1

>  <s_lp_Variant>  (294) 
69:0-2

>  <s_i_glide_gridfile>  (294) 
pfpi4k_grid

>  <i_i_glide_lignum>  (294) 
15

>  <i_i_glide_rotatable_bonds>  (294) 
4

>  <r_i_docking_score>  (294) 
-2.02041

>  <r_i_glide_ligand_efficiency>  (294) 
-0.063138

>  <r_i_glide_ligand_efficiency_sa>  (294) 
-0.200451

>  <r_i_glide_ligand_efficiency_ln>  (294) 
-0.452426

>  <r_i_glide_gscore>  (294) 
-2.02041

>  <r_i_glide_lipo>  (294) 
-0.155649

>  <r_i_glide_hbond>  (294) 
0

>  <r_i_glide_metal>  (294) 
-0

>  <r_i_glide_rewards>  (294) 
-0.4252

>  <r_i_glide_evdw>  (294) 
-21.0207

>  <r_i_glide_ecoul>  (294) 
-3.91369

>  <r_i_glide_erotb>  (294) 
0.208253

>  <r_i_glide_esite>  (294) 
-0.00973194

>  <r_i_glide_emodel>  (294) 
-27.2355

>  <r_i_glide_energy>  (294) 
-24.9344

>  <r_i_glide_einternal>  (294) 
4.12133

>  <r_i_glide_intrahb_reward>  (294) 
-0

>  <i_i_glide_confnum>  (294) 
1

>  <i_i_glide_posenum>  (294) 
35

>  <r_i_glide_eff_state_penalty>  (294) 
0

>  <ligand_id>  (294) 
69

>  <original_smiles>  (294) 
C=CCN1CCC2(OC)CCC3C4CCC5C1CC3(c1ccc(OC)cc1CCN4C)C52

>  <smiles>  (294) 
[H]C([H])=C([H])C([H])([H])N1C([H])([H])C([H])([H])C2(OC([H])([H])[H])C([H])([H])C([H])([H])C3([H])C45c6c([H])c([H])c(OC([H])([H])[H])c([H])c6C([H])([H])C([H])([H])[N+]([H])(C([H])([H])[H])C3([H])C([H])([H])C([H])([H])C([H])(C1([H])C4([H])[H])C25[H]

$$$$
70:0:0
     RDKit          3D

 40 43  0  0  1  0  0  0  0  0999 V2000
    3.4454   -5.1006    3.2638 C   0  0  0  0  0  0  0  0  0  0  0  0
    3.2862   -4.2972    1.9628 C   0  0  2  0  0  0  0  0  0  0  0  0
    2.6250   -5.0727    0.8310 C   0  0  0  0  0  0  0  0  0  0  0  0
    1.6733   -5.8349    0.9751 O   0  0  0  0  0  0  0  0  0  0  0  0
    3.2435   -4.7943   -0.3210 N   0  0  0  0  0  0  0  0  0  0  0  0
    4.2317   -3.7274   -0.2236 C   0  0  2  0  0  0  0  0  0  0  0  0
    5.4863   -3.9089   -1.1191 C   0  0  2  0  0  0  0  0  0  0  0  0
    6.7317   -3.1581   -0.5530 C   0  0  0  0  0  0  0  0  0  0  0  0
    6.9109   -3.1678    0.9827 C   0  0  0  0  0  0  0  0  0  0  0  0
    5.6162   -2.9869    1.8039 C   0  0  0  0  0  0  0  0  0  0  0  0
    4.6078   -3.9773    1.2499 C   0  0  1  0  0  0  0  0  0  0  0  0
    5.2264   -3.5485   -2.6146 C   0  0  0  0  0  0  0  0  0  0  0  0
    4.2716   -2.3492   -2.8481 C   0  0  2  0  0  0  0  0  0  0  0  0
    4.7438   -1.0414   -2.2125 C   0  0  0  0  0  0  0  0  0  0  0  0
    4.2806   -1.1200   -0.7429 C   0  0  0  0  0  0  0  0  0  0  0  0
    3.4605   -2.4253   -0.6290 C   0  0  1  0  0  0  0  0  0  0  0  0
    2.9816   -2.5867   -2.0867 C   0  0  0  0  0  0  0  0  0  0  0  0
    2.4713   -5.3512    3.6778 H   0  0  0  0  0  0  0  0  0  0  0  0
    3.9844   -4.5204    4.0112 H   0  0  0  0  0  0  0  0  0  0  0  0
    3.9877   -6.0324    3.1069 H   0  0  0  0  0  0  0  0  0  0  0  0
    2.7170   -3.3829    2.1426 H   0  0  0  0  0  0  0  0  0  0  0  0
    3.0078   -5.2295   -1.2140 H   0  0  0  0  0  0  0  0  0  0  0  0
    5.7453   -4.9660   -1.0901 H   0  0  0  0  0  0  0  0  0  0  0  0
    7.6287   -3.5955   -0.9860 H   0  0  0  0  0  0  0  0  0  0  0  0
    6.7682   -2.1301   -0.8924 H   0  0  0  0  0  0  0  0  0  0  0  0
    7.3883   -4.0983    1.2907 H   0  0  0  0  0  0  0  0  0  0  0  0
    7.6024   -2.3767    1.2528 H   0  0  0  0  0  0  0  0  0  0  0  0
    5.8100   -3.1955    2.8576 H   0  0  0  0  0  0  0  0  0  0  0  0
    5.2308   -1.9724    1.7651 H   0  0  0  0  0  0  0  0  0  0  0  0
    5.1601   -4.9243    1.2654 H   0  0  0  0  0  0  0  0  0  0  0  0
    6.1771   -3.3569   -3.1111 H   0  0  0  0  0  0  0  0  0  0  0  0
    4.7996   -4.4200   -3.1147 H   0  0  0  0  0  0  0  0  0  0  0  0
    4.0910   -2.2175   -3.9146 H   0  0  0  0  0  0  0  0  0  0  0  0
    5.8117   -0.8802   -2.3197 H   0  0  0  0  0  0  0  0  0  0  0  0
    4.2544   -0.1953   -2.7000 H   0  0  0  0  0  0  0  0  0  0  0  0
    5.1088   -1.0143   -0.0534 H   0  0  0  0  0  0  0  0  0  0  0  0
    3.6330   -0.2798   -0.5132 H   0  0  0  0  0  0  0  0  0  0  0  0
    2.6107   -2.2643    0.0314 H   0  0  0  0  0  0  0  0  0  0  0  0
    2.2587   -1.8063   -2.3268 H   0  0  0  0  0  0  0  0  0  0  0  0
    2.5043   -3.5360   -2.3367 H   0  0  0  0  0  0  0  0  0  0  0  0
  1  2  1  0
  1 18  1  0
  1 19  1  0
  1 20  1  0
  2 11  1  0
  2  3  1  0
  2 21  1  1
  3  4  2  0
  3  5  1  0
  6  5  1  6
  5 22  1  0
  6 11  1  0
  6 16  1  0
  6  7  1  0
  7  8  1  0
  7 12  1  0
  7 23  1  6
  8  9  1  0
  8 24  1  0
  8 25  1  0
  9 10  1  0
  9 26  1  0
  9 27  1  0
 10 11  1  0
 10 28  1  0
 10 29  1  0
 11 30  1  6
 12 13  1  0
 12 31  1  0
 12 32  1  0
 13 17  1  0
 13 14  1  0
 13 33  1  6
 14 15  1  0
 14 34  1  0
 14 35  1  0
 15 16  1  0
 15 36  1  0
 15 37  1  0
 16 17  1  0
 16 38  1  1
 17 39  1  0
 17 40  1  0
M  END
>  <i_m_ct_stereo_status>  (295) 
1

>  <s_m_source_file>  (295) 
/var/tmp/pbs.5076255.sched01/tmp8hdfbsd6/1003312lgh9.sdf

>  <i_m_source_file_index>  (295) 
16

>  <i_lp_mmshare_version>  (295) 
48012

>  <i_f3d_flags>  (295) 
0

>  <s_epik_input>  (295) 
Tz1DKFtOSF0xKVtDQEBIXShbQ0gzXSlbQ0BASF0yW0NIMl1bQ0gyXVtDSDJdW0NAQEhdKFtDQEBdMTIzKVtDSDJdW0NAQEhdNFtDSDJdW0NIMl1bQ0BIXTNbQ0gyXTQ=

>  <s_epik_cmdline>  (295) 
J2VwaWtfcHl0aG9uJywgJy1waHQnLCAnMi4wJywgJy1waCcsICc3LjAnLCAnLXRuJywgJzgnLCAnLW1hJywgJzIwMCcsICctaW1hZScsICc8aW5maWxlLm1hZT4nLCAnLW9tYWUnLCAnPG91dGZpbGUubWFlPic=

>  <r_lp_tautomer_probability>  (295) 
1

>  <r_epik_Ionization_Penalty>  (295) 
3.6375e-07

>  <r_epik_Ionization_Penalty_Charging>  (295) 
0

>  <r_epik_Ionization_Penalty_Neutral>  (295) 
3.6375e-07

>  <r_epik_State_Penalty>  (295) 
-0

>  <r_epik_Charging_Adjusted_Penalty>  (295) 
0

>  <i_epik_Tot_Q>  (295) 
0

>  <i_epik_Tot_abs_Q>  (295) 
0

>  <s_lp_Force_Field>  (295) 
OPLS3e

>  <r_lp_Energy>  (295) 
46.1518

>  <b_lp_Chiralities_Consistent>  (295) 
1

>  <s_lp_Variant>  (295) 
70:0-1

>  <s_i_glide_gridfile>  (295) 
pfpi4k_grid

>  <i_i_glide_lignum>  (295) 
16

>  <i_i_glide_rotatable_bonds>  (295) 
0

>  <r_i_docking_score>  (295) 
-4.7005

>  <r_i_glide_ligand_efficiency>  (295) 
-0.2765

>  <r_i_glide_ligand_efficiency_sa>  (295) 
-0.710959

>  <r_i_glide_ligand_efficiency_ln>  (295) 
-1.22626

>  <r_i_glide_gscore>  (295) 
-4.7005

>  <r_i_glide_lipo>  (295) 
-0.569179

>  <r_i_glide_hbond>  (295) 
-0.426855

>  <r_i_glide_metal>  (295) 
-0

>  <r_i_glide_rewards>  (295) 
-1.81807

>  <r_i_glide_evdw>  (295) 
-18.9222

>  <r_i_glide_ecoul>  (295) 
-5.7523

>  <r_i_glide_erotb>  (295) 
0

>  <r_i_glide_esite>  (295) 
-0.0774371

>  <r_i_glide_emodel>  (295) 
-31.5857

>  <r_i_glide_energy>  (295) 
-24.6745

>  <r_i_glide_einternal>  (295) 
0

>  <r_i_glide_intrahb_reward>  (295) 
-0

>  <i_i_glide_confnum>  (295) 
2

>  <i_i_glide_posenum>  (295) 
23

>  <r_i_glide_eff_state_penalty>  (295) 
0

>  <ligand_id>  (295) 
70

>  <original_smiles>  (295) 
CC1C(=O)NC23C(CCCC12)CC1CCC3C1

>  <smiles>  (295) 
[H]N1C(=O)C([H])(C([H])([H])[H])C2([H])C([H])([H])C([H])([H])C([H])([H])C3([H])C([H])([H])C4([H])C([H])([H])C([H])([H])C([H])(C4([H])[H])C132

$$$$
70:0:1
     RDKit          3D

 40 43  0  0  1  0  0  0  0  0999 V2000
    3.6804   -3.5955    3.0947 C   0  0  0  0  0  0  0  0  0  0  0  0
    3.3365   -3.3447    1.6205 C   0  0  2  0  0  0  0  0  0  0  0  0
    2.8296   -4.5844    0.8924 C   0  0  0  0  0  0  0  0  0  0  0  0
    2.0413   -5.4006    1.3684 O   0  0  0  0  0  0  0  0  0  0  0  0
    3.3644   -4.6385   -0.3294 N   0  0  0  0  0  0  0  0  0  0  0  0
    4.1029   -3.4281   -0.7068 C   0  0  2  0  0  0  0  0  0  0  0  0
    5.3499   -3.6573   -1.5941 C   0  0  2  0  0  0  0  0  0  0  0  0
    6.4219   -2.5363   -1.4180 C   0  0  0  0  0  0  0  0  0  0  0  0
    6.6352   -1.9767    0.0156 C   0  0  0  0  0  0  0  0  0  0  0  0
    5.3438   -1.7633    0.8268 C   0  0  0  0  0  0  0  0  0  0  0  0
    4.5502   -3.0566    0.7227 C   0  0  1  0  0  0  0  0  0  0  0  0
    4.9804   -3.8560   -3.0986 C   0  0  0  0  0  0  0  0  0  0  0  0
    3.7771   -3.0281   -3.6305 C   0  0  2  0  0  0  0  0  0  0  0  0
    4.0023   -1.5219   -3.5348 C   0  0  0  0  0  0  0  0  0  0  0  0
    3.5957   -1.1847   -2.0919 C   0  0  0  0  0  0  0  0  0  0  0  0
    3.0793   -2.4992   -1.4533 C   0  0  1  0  0  0  0  0  0  0  0  0
    2.5656   -3.1883   -2.7197 C   0  0  0  0  0  0  0  0  0  0  0  0
    2.7907   -3.8578    3.6596 H   0  0  0  0  0  0  0  0  0  0  0  0
    4.1080   -2.7077    3.5539 H   0  0  0  0  0  0  0  0  0  0  0  0
    4.3949   -4.4078    3.2157 H   0  0  0  0  0  0  0  0  0  0  0  0
    2.5951   -2.5478    1.5328 H   0  0  0  0  0  0  0  0  0  0  0  0
    3.1152   -5.3336   -1.0199 H   0  0  0  0  0  0  0  0  0  0  0  0
    5.8173   -4.5798   -1.2461 H   0  0  0  0  0  0  0  0  0  0  0  0
    7.3755   -2.9263   -1.7717 H   0  0  0  0  0  0  0  0  0  0  0  0
    6.2175   -1.7119   -2.0849 H   0  0  0  0  0  0  0  0  0  0  0  0
    7.2881   -2.6530    0.5669 H   0  0  0  0  0  0  0  0  0  0  0  0
    7.1723   -1.0312   -0.0256 H   0  0  0  0  0  0  0  0  0  0  0  0
    5.5944   -1.5537    1.8675 H   0  0  0  0  0  0  0  0  0  0  0  0
    4.7619   -0.9124    0.4820 H   0  0  0  0  0  0  0  0  0  0  0  0
    5.2821   -3.8180    1.0178 H   0  0  0  0  0  0  0  0  0  0  0  0
    5.8579   -3.6782   -3.7185 H   0  0  0  0  0  0  0  0  0  0  0  0
    4.7299   -4.9042   -3.2485 H   0  0  0  0  0  0  0  0  0  0  0  0
    3.5494   -3.3175   -4.6543 H   0  0  0  0  0  0  0  0  0  0  0  0
    5.0033   -1.2088   -3.7930 H   0  0  0  0  0  0  0  0  0  0  0  0
    3.3363   -1.0002   -4.2250 H   0  0  0  0  0  0  0  0  0  0  0  0
    4.3735   -0.6589   -1.5462 H   0  0  0  0  0  0  0  0  0  0  0  0
    2.7499   -0.5073   -2.1756 H   0  0  0  0  0  0  0  0  0  0  0  0
    2.2462   -2.2999   -0.7894 H   0  0  0  0  0  0  0  0  0  0  0  0
    1.7069   -2.6547   -3.1351 H   0  0  0  0  0  0  0  0  0  0  0  0
    2.2299   -4.2138   -2.5797 H   0  0  0  0  0  0  0  0  0  0  0  0
  1  2  1  0
  1 18  1  0
  1 19  1  0
  1 20  1  0
  2 11  1  0
  2  3  1  0
  2 21  1  1
  3  4  2  0
  3  5  1  0
  6  5  1  1
  5 22  1  0
  6 11  1  0
  6 16  1  0
  6  7  1  0
  7  8  1  0
  7 12  1  0
  7 23  1  1
  8  9  1  0
  8 24  1  0
  8 25  1  0
  9 10  1  0
  9 26  1  0
  9 27  1  0
 10 11  1  0
 10 28  1  0
 10 29  1  0
 11 30  1  1
 12 13  1  0
 12 31  1  0
 12 32  1  0
 13 17  1  0
 13 14  1  0
 13 33  1  6
 14 15  1  0
 14 34  1  0
 14 35  1  0
 15 16  1  0
 15 36  1  0
 15 37  1  0
 16 17  1  0
 16 38  1  1
 17 39  1  0
 17 40  1  0
M  END
>  <i_m_ct_stereo_status>  (296) 
1

>  <s_m_source_file>  (296) 
/var/tmp/pbs.5076255.sched01/tmp8hdfbsd6/1003312lgh9.sdf

>  <i_m_source_file_index>  (296) 
16

>  <i_lp_mmshare_version>  (296) 
48012

>  <i_f3d_flags>  (296) 
0

>  <s_epik_input>  (296) 
Tz1DKFtOSF0xKVtDQEBIXShbQ0gzXSlbQ0BASF0yW0NIMl1bQ0gyXVtDSDJdW0NAQEhdKFtDQEBdMTIzKVtDSDJdW0NAQEhdNFtDSDJdW0NIMl1bQ0BIXTNbQ0gyXTQ=

>  <s_epik_cmdline>  (296) 
J2VwaWtfcHl0aG9uJywgJy1waHQnLCAnMi4wJywgJy1waCcsICc3LjAnLCAnLXRuJywgJzgnLCAnLW1hJywgJzIwMCcsICctaW1hZScsICc8aW5maWxlLm1hZT4nLCAnLW9tYWUnLCAnPG91dGZpbGUubWFlPic=

>  <r_lp_tautomer_probability>  (296) 
1

>  <r_epik_Ionization_Penalty>  (296) 
3.6375e-07

>  <r_epik_Ionization_Penalty_Charging>  (296) 
0

>  <r_epik_Ionization_Penalty_Neutral>  (296) 
3.6375e-07

>  <r_epik_State_Penalty>  (296) 
-0

>  <r_epik_Charging_Adjusted_Penalty>  (296) 
0

>  <i_epik_Tot_Q>  (296) 
0

>  <i_epik_Tot_abs_Q>  (296) 
0

>  <s_lp_Force_Field>  (296) 
OPLS3e

>  <r_lp_Energy>  (296) 
46.1518

>  <b_lp_Chiralities_Consistent>  (296) 
1

>  <s_lp_Variant>  (296) 
70:0-1

>  <s_i_glide_gridfile>  (296) 
pfpi4k_grid

>  <i_i_glide_lignum>  (296) 
16

>  <i_i_glide_rotatable_bonds>  (296) 
0

>  <r_i_docking_score>  (296) 
-4.53623

>  <r_i_glide_ligand_efficiency>  (296) 
-0.266837

>  <r_i_glide_ligand_efficiency_sa>  (296) 
-0.686113

>  <r_i_glide_ligand_efficiency_ln>  (296) 
-1.1834

>  <r_i_glide_gscore>  (296) 
-4.53623

>  <r_i_glide_lipo>  (296) 
-0.699905

>  <r_i_glide_hbond>  (296) 
-0.343742

>  <r_i_glide_metal>  (296) 
-0

>  <r_i_glide_rewards>  (296) 
-1.81807

>  <r_i_glide_evdw>  (296) 
-19.4859

>  <r_i_glide_ecoul>  (296) 
-4.27363

>  <r_i_glide_erotb>  (296) 
0

>  <r_i_glide_esite>  (296) 
-0.0591701

>  <r_i_glide_emodel>  (296) 
-30.4183

>  <r_i_glide_energy>  (296) 
-23.7595

>  <r_i_glide_einternal>  (296) 
0

>  <r_i_glide_intrahb_reward>  (296) 
-0

>  <i_i_glide_confnum>  (296) 
2

>  <i_i_glide_posenum>  (296) 
13

>  <r_i_glide_eff_state_penalty>  (296) 
0

>  <ligand_id>  (296) 
70

>  <original_smiles>  (296) 
CC1C(=O)NC23C(CCCC12)CC1CCC3C1

>  <smiles>  (296) 
[H]N1C(=O)C([H])(C([H])([H])[H])C2([H])C([H])([H])C([H])([H])C([H])([H])C3([H])C([H])([H])C4([H])C([H])([H])C([H])([H])C([H])(C4([H])[H])C132

$$$$
70:0:2
     RDKit          3D

 40 43  0  0  1  0  0  0  0  0999 V2000
    2.6737   -3.3788   -3.5834 C   0  0  0  0  0  0  0  0  0  0  0  0
    3.0459   -2.5666   -2.3391 C   0  0  2  0  0  0  0  0  0  0  0  0
    4.2691   -1.6916   -2.5302 C   0  0  0  0  0  0  0  0  0  0  0  0
    4.5270   -1.0970   -3.5745 O   0  0  0  0  0  0  0  0  0  0  0  0
    5.0188   -1.7007   -1.4205 N   0  0  0  0  0  0  0  0  0  0  0  0
    4.3700   -2.3857   -0.3030 C   0  0  2  0  0  0  0  0  0  0  0  0
    5.3277   -3.2002    0.6097 C   0  0  2  0  0  0  0  0  0  0  0  0
    4.5936   -4.3720    1.3506 C   0  0  0  0  0  0  0  0  0  0  0  0
    3.5101   -5.1488    0.5549 C   0  0  0  0  0  0  0  0  0  0  0  0
    2.6114   -4.2599   -0.3248 C   0  0  0  0  0  0  0  0  0  0  0  0
    3.5369   -3.3726   -1.1425 C   0  0  1  0  0  0  0  0  0  0  0  0
    6.0944   -2.2778    1.5994 C   0  0  0  0  0  0  0  0  0  0  0  0
    5.2932   -1.0741    2.1691 C   0  0  2  0  0  0  0  0  0  0  0  0
    4.0296   -1.4717    2.9410 C   0  0  0  0  0  0  0  0  0  0  0  0
    2.9544   -1.6393    1.8517 C   0  0  0  0  0  0  0  0  0  0  0  0
    3.6378   -1.2552    0.5140 C   0  0  1  0  0  0  0  0  0  0  0  0
    4.6961   -0.2677    1.0267 C   0  0  0  0  0  0  0  0  0  0  0  0
    2.3759   -2.7244   -4.4006 H   0  0  0  0  0  0  0  0  0  0  0  0
    1.8302   -4.0220   -3.3600 H   0  0  0  0  0  0  0  0  0  0  0  0
    3.4988   -4.0018   -3.9285 H   0  0  0  0  0  0  0  0  0  0  0  0
    2.2171   -1.9154   -2.0652 H   0  0  0  0  0  0  0  0  0  0  0  0
    5.8415   -1.1381   -1.3025 H   0  0  0  0  0  0  0  0  0  0  0  0
    6.0710   -3.6811   -0.0264 H   0  0  0  0  0  0  0  0  0  0  0  0
    5.3400   -5.0898    1.6814 H   0  0  0  0  0  0  0  0  0  0  0  0
    4.1396   -4.0325    2.2745 H   0  0  0  0  0  0  0  0  0  0  0  0
    3.9945   -5.8921   -0.0819 H   0  0  0  0  0  0  0  0  0  0  0  0
    2.8900   -5.7191    1.2447 H   0  0  0  0  0  0  0  0  0  0  0  0
    2.0056   -4.8809   -0.9859 H   0  0  0  0  0  0  0  0  0  0  0  0
    1.8970   -3.6702    0.2379 H   0  0  0  0  0  0  0  0  0  0  0  0
    4.2379   -4.0852   -1.5871 H   0  0  0  0  0  0  0  0  0  0  0  0
    6.4547   -2.8836    2.4256 H   0  0  0  0  0  0  0  0  0  0  0  0
    6.9833   -1.8830    1.0991 H   0  0  0  0  0  0  0  0  0  0  0  0
    5.9424   -0.4606    2.7935 H   0  0  0  0  0  0  0  0  0  0  0  0
    4.1659   -2.3474    3.5743 H   0  0  0  0  0  0  0  0  0  0  0  0
    3.7354   -0.6589    3.6057 H   0  0  0  0  0  0  0  0  0  0  0  0
    2.5042   -2.6245    1.8825 H   0  0  0  0  0  0  0  0  0  0  0  0
    2.1401   -0.9399    2.0432 H   0  0  0  0  0  0  0  0  0  0  0  0
    2.9344   -0.7284   -0.1261 H   0  0  0  0  0  0  0  0  0  0  0  0
    4.2117    0.6334    1.3987 H   0  0  0  0  0  0  0  0  0  0  0  0
    5.4460    0.0500    0.3030 H   0  0  0  0  0  0  0  0  0  0  0  0
  1  2  1  0
  1 18  1  0
  1 19  1  0
  1 20  1  0
  2 11  1  0
  2  3  1  0
  2 21  1  1
  3  4  2  0
  3  5  1  0
  6  5  1  6
  5 22  1  0
  6 11  1  0
  6 16  1  0
  6  7  1  0
  7  8  1  0
  7 12  1  0
  7 23  1  6
  8  9  1  0
  8 24  1  0
  8 25  1  0
  9 10  1  0
  9 26  1  0
  9 27  1  0
 10 11  1  0
 10 28  1  0
 10 29  1  0
 11 30  1  6
 12 13  1  0
 12 31  1  0
 12 32  1  0
 13 17  1  0
 13 14  1  0
 13 33  1  1
 14 15  1  0
 14 34  1  0
 14 35  1  0
 15 16  1  0
 15 36  1  0
 15 37  1  0
 16 17  1  0
 16 38  1  6
 17 39  1  0
 17 40  1  0
M  END
>  <i_m_ct_stereo_status>  (297) 
1

>  <s_m_source_file>  (297) 
/var/tmp/pbs.5076255.sched01/tmp8hdfbsd6/1003312lgh9.sdf

>  <i_m_source_file_index>  (297) 
16

>  <i_lp_mmshare_version>  (297) 
48012

>  <i_f3d_flags>  (297) 
0

>  <s_epik_input>  (297) 
Tz1DKFtOSF0xKVtDQEBIXShbQ0gzXSlbQ0BASF0yW0NIMl1bQ0gyXVtDSDJdW0NAQEhdKFtDQEBdMTIzKVtDSDJdW0NAQEhdNFtDSDJdW0NIMl1bQ0BIXTNbQ0gyXTQ=

>  <s_epik_cmdline>  (297) 
J2VwaWtfcHl0aG9uJywgJy1waHQnLCAnMi4wJywgJy1waCcsICc3LjAnLCAnLXRuJywgJzgnLCAnLW1hJywgJzIwMCcsICctaW1hZScsICc8aW5maWxlLm1hZT4nLCAnLW9tYWUnLCAnPG91dGZpbGUubWFlPic=

>  <r_lp_tautomer_probability>  (297) 
1

>  <r_epik_Ionization_Penalty>  (297) 
3.6375e-07

>  <r_epik_Ionization_Penalty_Charging>  (297) 
0

>  <r_epik_Ionization_Penalty_Neutral>  (297) 
3.6375e-07

>  <r_epik_State_Penalty>  (297) 
-0

>  <r_epik_Charging_Adjusted_Penalty>  (297) 
0

>  <i_epik_Tot_Q>  (297) 
0

>  <i_epik_Tot_abs_Q>  (297) 
0

>  <s_lp_Force_Field>  (297) 
OPLS3e

>  <r_lp_Energy>  (297) 
46.1518

>  <b_lp_Chiralities_Consistent>  (297) 
1

>  <s_lp_Variant>  (297) 
70:0-1

>  <s_i_glide_gridfile>  (297) 
pfpi4k_grid

>  <i_i_glide_lignum>  (297) 
16

>  <i_i_glide_rotatable_bonds>  (297) 
0

>  <r_i_docking_score>  (297) 
-3.92506

>  <r_i_glide_ligand_efficiency>  (297) 
-0.230886

>  <r_i_glide_ligand_efficiency_sa>  (297) 
-0.593672

>  <r_i_glide_ligand_efficiency_ln>  (297) 
-1.02396

>  <r_i_glide_gscore>  (297) 
-3.92506

>  <r_i_glide_lipo>  (297) 
-0.697939

>  <r_i_glide_hbond>  (297) 
0

>  <r_i_glide_metal>  (297) 
-0

>  <r_i_glide_rewards>  (297) 
-1.81807

>  <r_i_glide_evdw>  (297) 
-21.3923

>  <r_i_glide_ecoul>  (297) 
-1.90327

>  <r_i_glide_erotb>  (297) 
0

>  <r_i_glide_esite>  (297) 
-0.0539347

>  <r_i_glide_emodel>  (297) 
-29.0534

>  <r_i_glide_energy>  (297) 
-23.2956

>  <r_i_glide_einternal>  (297) 
0

>  <r_i_glide_intrahb_reward>  (297) 
-0

>  <i_i_glide_confnum>  (297) 
2

>  <i_i_glide_posenum>  (297) 
7

>  <r_i_glide_eff_state_penalty>  (297) 
0

>  <ligand_id>  (297) 
70

>  <original_smiles>  (297) 
CC1C(=O)NC23C(CCCC12)CC1CCC3C1

>  <smiles>  (297) 
[H]N1C(=O)C([H])(C([H])([H])[H])C2([H])C([H])([H])C([H])([H])C([H])([H])C3([H])C([H])([H])C4([H])C([H])([H])C([H])([H])C([H])(C4([H])[H])C132

$$$$
71:0:0
     RDKit          3D

 17 18  0  0  1  0  0  0  0  0999 V2000
    2.4399   -2.9045   -3.1673 C   0  0  0  0  0  0  0  0  0  0  0  0
    3.6268   -3.0779   -2.3419 N   0  0  0  0  0  0  0  0  0  0  0  0
    4.9006   -2.8948   -2.9398 C   0  0  0  0  0  0  0  0  0  0  0  0
    6.0539   -3.0553   -2.2578 C   0  0  0  0  0  0  0  0  0  0  0  0
    5.9065   -3.4143   -0.9133 N   0  0  0  0  0  0  0  0  0  0  0  0
    6.9433   -3.6048   -0.0660 N   0  0  0  0  0  0  0  0  0  0  0  0
    6.3074   -3.9322    1.0632 C   0  0  0  0  0  0  0  0  0  0  0  0
    4.9391   -3.9537    1.0049 N   0  0  0  0  0  0  0  0  0  0  0  0
    4.7590   -3.6183   -0.2690 C   0  0  0  0  0  0  0  0  0  0  0  0
    3.4849   -3.4456   -1.0359 C   0  0  0  0  0  0  0  0  0  0  0  0
    2.4006   -3.6443   -0.4786 O   0  0  0  0  0  0  0  0  0  0  0  0
    2.6634   -2.6248   -4.1960 H   0  0  0  0  0  0  0  0  0  0  0  0
    1.8158   -2.1259   -2.7332 H   0  0  0  0  0  0  0  0  0  0  0  0
    1.8590   -3.8273   -3.1874 H   0  0  0  0  0  0  0  0  0  0  0  0
    4.8743   -2.6222   -3.9855 H   0  0  0  0  0  0  0  0  0  0  0  0
    7.0649   -2.9485   -2.6190 H   0  0  0  0  0  0  0  0  0  0  0  0
    6.8481   -4.1629    1.9699 H   0  0  0  0  0  0  0  0  0  0  0  0
  1  2  1  0
  1 12  1  0
  1 13  1  0
  1 14  1  0
  2 10  1  0
  2  3  1  0
  3  4  2  0
  3 15  1  0
  4  5  1  0
  4 16  1  0
  5  9  1  0
  5  6  1  0
  6  7  2  0
  7  8  1  0
  7 17  1  0
  8  9  2  0
  9 10  1  0
 10 11  2  0
M  END
>  <i_m_ct_stereo_status>  (298) 
1

>  <s_m_source_file>  (298) 
/var/tmp/pbs.5076255.sched01/tmp8hdfbsd6/1003312lgh9.sdf

>  <i_m_source_file_index>  (298) 
17

>  <i_lp_mmshare_version>  (298) 
48012

>  <i_f3d_flags>  (298) 
0

>  <s_epik_input>  (298) 
W2NIXTFbY0hdbihbQ0gzXSljKD1PKWMobjEyKW5bY0hdbjI=

>  <s_epik_cmdline>  (298) 
J2VwaWtfcHl0aG9uJywgJy1waHQnLCAnMi4wJywgJy1waCcsICc3LjAnLCAnLXRuJywgJzgnLCAnLW1hJywgJzIwMCcsICctaW1hZScsICc8aW5maWxlLm1hZT4nLCAnLW9tYWUnLCAnPG91dGZpbGUubWFlPic=

>  <r_epik_Ionization_Penalty>  (298) 
0.000299551

>  <r_epik_Ionization_Penalty_Charging>  (298) 
2.45476e-10

>  <r_epik_Ionization_Penalty_Neutral>  (298) 
0.000299551

>  <r_epik_State_Penalty>  (298) 
0.000180057

>  <r_epik_Charging_Adjusted_Penalty>  (298) 
0.000180057

>  <i_epik_Tot_Q>  (298) 
0

>  <i_epik_Tot_abs_Q>  (298) 
0

>  <s_lp_Force_Field>  (298) 
OPLS3e

>  <r_lp_Energy>  (298) 
27.839

>  <b_lp_Chiralities_Consistent>  (298) 
1

>  <s_lp_Variant>  (298) 
71:0-1

>  <s_i_glide_gridfile>  (298) 
pfpi4k_grid

>  <i_i_glide_lignum>  (298) 
17

>  <i_i_glide_rotatable_bonds>  (298) 
0

>  <r_i_docking_score>  (298) 
-4.14549

>  <r_i_glide_ligand_efficiency>  (298) 
-0.376863

>  <r_i_glide_ligand_efficiency_sa>  (298) 
-0.838135

>  <r_i_glide_ligand_efficiency_ln>  (298) 
-1.22002

>  <r_i_glide_gscore>  (298) 
-4.14549

>  <r_i_glide_lipo>  (298) 
-0.501897

>  <r_i_glide_hbond>  (298) 
0

>  <r_i_glide_metal>  (298) 
-0

>  <r_i_glide_rewards>  (298) 
-2.55709

>  <r_i_glide_evdw>  (298) 
-17.324

>  <r_i_glide_ecoul>  (298) 
-1.30841

>  <r_i_glide_erotb>  (298) 
0

>  <r_i_glide_esite>  (298) 
-0.024037

>  <r_i_glide_emodel>  (298) 
-24.41

>  <r_i_glide_energy>  (298) 
-18.6324

>  <r_i_glide_einternal>  (298) 
0

>  <r_i_glide_intrahb_reward>  (298) 
-0

>  <i_i_glide_confnum>  (298) 
2

>  <i_i_glide_posenum>  (298) 
35

>  <r_i_glide_eff_state_penalty>  (298) 
0

>  <ligand_id>  (298) 
71

>  <original_smiles>  (298) 
Cn1ccn2ncnc2c1=O

>  <smiles>  (298) 
[H]c1nc2c(=O)n(C([H])([H])[H])c([H])c([H])n2n1

$$$$
71:0:1
     RDKit          3D

 17 18  0  0  1  0  0  0  0  0999 V2000
    3.8542   -0.8947   -4.1875 C   0  0  0  0  0  0  0  0  0  0  0  0
    3.5837   -1.7588   -3.0431 N   0  0  0  0  0  0  0  0  0  0  0  0
    2.4664   -2.6304   -3.0930 C   0  0  0  0  0  0  0  0  0  0  0  0
    2.1271   -3.4384   -2.0652 C   0  0  0  0  0  0  0  0  0  0  0  0
    2.9778   -3.3877   -0.9556 N   0  0  0  0  0  0  0  0  0  0  0  0
    2.8105   -4.1324    0.1601 N   0  0  0  0  0  0  0  0  0  0  0  0
    3.8529   -3.7443    0.8995 C   0  0  0  0  0  0  0  0  0  0  0  0
    4.6739   -2.8011    0.3433 N   0  0  0  0  0  0  0  0  0  0  0  0
    4.0549   -2.6183   -0.8213 C   0  0  0  0  0  0  0  0  0  0  0  0
    4.4153   -1.7160   -1.9557 C   0  0  0  0  0  0  0  0  0  0  0  0
    5.4191   -1.0105   -1.8855 O   0  0  0  0  0  0  0  0  0  0  0  0
    3.1275   -1.0106   -4.9868 H   0  0  0  0  0  0  0  0  0  0  0  0
    4.8371   -1.1165   -4.5937 H   0  0  0  0  0  0  0  0  0  0  0  0
    3.8483    0.1476   -3.8774 H   0  0  0  0  0  0  0  0  0  0  0  0
    1.8741   -2.5685   -3.9979 H   0  0  0  0  0  0  0  0  0  0  0  0
    1.2941   -4.1207   -1.9894 H   0  0  0  0  0  0  0  0  0  0  0  0
    4.0311   -4.1574    1.8812 H   0  0  0  0  0  0  0  0  0  0  0  0
  1  2  1  0
  1 12  1  0
  1 13  1  0
  1 14  1  0
  2 10  1  0
  2  3  1  0
  3  4  2  0
  3 15  1  0
  4  5  1  0
  4 16  1  0
  5  9  1  0
  5  6  1  0
  6  7  2  0
  7  8  1  0
  7 17  1  0
  8  9  2  0
  9 10  1  0
 10 11  2  0
M  END
>  <i_m_ct_stereo_status>  (299) 
1

>  <s_m_source_file>  (299) 
/var/tmp/pbs.5076255.sched01/tmp8hdfbsd6/1003312lgh9.sdf

>  <i_m_source_file_index>  (299) 
17

>  <i_lp_mmshare_version>  (299) 
48012

>  <i_f3d_flags>  (299) 
0

>  <s_epik_input>  (299) 
W2NIXTFbY0hdbihbQ0gzXSljKD1PKWMobjEyKW5bY0hdbjI=

>  <s_epik_cmdline>  (299) 
J2VwaWtfcHl0aG9uJywgJy1waHQnLCAnMi4wJywgJy1waCcsICc3LjAnLCAnLXRuJywgJzgnLCAnLW1hJywgJzIwMCcsICctaW1hZScsICc8aW5maWxlLm1hZT4nLCAnLW9tYWUnLCAnPG91dGZpbGUubWFlPic=

>  <r_epik_Ionization_Penalty>  (299) 
0.000299551

>  <r_epik_Ionization_Penalty_Charging>  (299) 
2.45476e-10

>  <r_epik_Ionization_Penalty_Neutral>  (299) 
0.000299551

>  <r_epik_State_Penalty>  (299) 
0.000180057

>  <r_epik_Charging_Adjusted_Penalty>  (299) 
0.000180057

>  <i_epik_Tot_Q>  (299) 
0

>  <i_epik_Tot_abs_Q>  (299) 
0

>  <s_lp_Force_Field>  (299) 
OPLS3e

>  <r_lp_Energy>  (299) 
27.839

>  <b_lp_Chiralities_Consistent>  (299) 
1

>  <s_lp_Variant>  (299) 
71:0-1

>  <s_i_glide_gridfile>  (299) 
pfpi4k_grid

>  <i_i_glide_lignum>  (299) 
17

>  <i_i_glide_rotatable_bonds>  (299) 
0

>  <r_i_docking_score>  (299) 
-4.00631

>  <r_i_glide_ligand_efficiency>  (299) 
-0.36421

>  <r_i_glide_ligand_efficiency_sa>  (299) 
-0.809996

>  <r_i_glide_ligand_efficiency_ln>  (299) 
-1.17906

>  <r_i_glide_gscore>  (299) 
-4.00631

>  <r_i_glide_lipo>  (299) 
-0.400924

>  <r_i_glide_hbond>  (299) 
-0.00886641

>  <r_i_glide_metal>  (299) 
-0

>  <r_i_glide_rewards>  (299) 
-2.39105

>  <r_i_glide_evdw>  (299) 
-18.2601

>  <r_i_glide_ecoul>  (299) 
-1.8403

>  <r_i_glide_erotb>  (299) 
0

>  <r_i_glide_esite>  (299) 
-0.0164261

>  <r_i_glide_emodel>  (299) 
-25.6828

>  <r_i_glide_energy>  (299) 
-20.1004

>  <r_i_glide_einternal>  (299) 
0

>  <r_i_glide_intrahb_reward>  (299) 
-0

>  <i_i_glide_confnum>  (299) 
1

>  <i_i_glide_posenum>  (299) 
1

>  <r_i_glide_eff_state_penalty>  (299) 
0

>  <ligand_id>  (299) 
71

>  <original_smiles>  (299) 
Cn1ccn2ncnc2c1=O

>  <smiles>  (299) 
[H]c1nc2c(=O)n(C([H])([H])[H])c([H])c([H])n2n1

$$$$
71:0:2
     RDKit          3D

 17 18  0  0  1  0  0  0  0  0999 V2000
    2.6594   -2.5150   -3.7672 C   0  0  0  0  0  0  0  0  0  0  0  0
    3.7184   -2.3051   -2.7867 N   0  0  0  0  0  0  0  0  0  0  0  0
    3.5463   -1.3235   -1.7850 C   0  0  0  0  0  0  0  0  0  0  0  0
    4.4682   -1.0859   -0.8329 C   0  0  0  0  0  0  0  0  0  0  0  0
    5.6288   -1.8584   -0.9263 N   0  0  0  0  0  0  0  0  0  0  0  0
    6.6728   -1.7415   -0.0785 N   0  0  0  0  0  0  0  0  0  0  0  0
    7.5193   -2.6524   -0.5561 C   0  0  0  0  0  0  0  0  0  0  0  0
    7.1113   -3.2947   -1.6848 N   0  0  0  0  0  0  0  0  0  0  0  0
    5.9006   -2.7763   -1.8461 C   0  0  0  0  0  0  0  0  0  0  0  0
    4.8573   -3.0418   -2.8906 C   0  0  0  0  0  0  0  0  0  0  0  0
    5.0539   -3.8536   -3.7893 O   0  0  0  0  0  0  0  0  0  0  0  0
    1.8161   -1.8633   -3.6039 H   0  0  0  0  0  0  0  0  0  0  0  0
    2.3000   -3.5434   -3.7459 H   0  0  0  0  0  0  0  0  0  0  0  0
    3.0449   -2.2947   -4.7579 H   0  0  0  0  0  0  0  0  0  0  0  0
    2.6168   -0.7674   -1.8366 H   0  0  0  0  0  0  0  0  0  0  0  0
    4.4374   -0.3735   -0.0224 H   0  0  0  0  0  0  0  0  0  0  0  0
    8.4864   -2.8215   -0.1029 H   0  0  0  0  0  0  0  0  0  0  0  0
  1  2  1  0
  1 12  1  0
  1 13  1  0
  1 14  1  0
  2 10  1  0
  2  3  1  0
  3  4  2  0
  3 15  1  0
  4  5  1  0
  4 16  1  0
  5  9  1  0
  5  6  1  0
  6  7  2  0
  7  8  1  0
  7 17  1  0
  8  9  2  0
  9 10  1  0
 10 11  2  0
M  END
>  <i_m_ct_stereo_status>  (300) 
1

>  <s_m_source_file>  (300) 
/var/tmp/pbs.5076255.sched01/tmp8hdfbsd6/1003312lgh9.sdf

>  <i_m_source_file_index>  (300) 
17

>  <i_lp_mmshare_version>  (300) 
48012

>  <i_f3d_flags>  (300) 
0

>  <s_epik_input>  (300) 
W2NIXTFbY0hdbihbQ0gzXSljKD1PKWMobjEyKW5bY0hdbjI=

>  <s_epik_cmdline>  (300) 
J2VwaWtfcHl0aG9uJywgJy1waHQnLCAnMi4wJywgJy1waCcsICc3LjAnLCAnLXRuJywgJzgnLCAnLW1hJywgJzIwMCcsICctaW1hZScsICc8aW5maWxlLm1hZT4nLCAnLW9tYWUnLCAnPG91dGZpbGUubWFlPic=

>  <r_epik_Ionization_Penalty>  (300) 
0.000299551

>  <r_epik_Ionization_Penalty_Charging>  (300) 
2.45476e-10

>  <r_epik_Ionization_Penalty_Neutral>  (300) 
0.000299551

>  <r_epik_State_Penalty>  (300) 
0.000180057

>  <r_epik_Charging_Adjusted_Penalty>  (300) 
0.000180057

>  <i_epik_Tot_Q>  (300) 
0

>  <i_epik_Tot_abs_Q>  (300) 
0

>  <s_lp_Force_Field>  (300) 
OPLS3e

>  <r_lp_Energy>  (300) 
27.839

>  <b_lp_Chiralities_Consistent>  (300) 
1

>  <s_lp_Variant>  (300) 
71:0-1

>  <s_i_glide_gridfile>  (300) 
pfpi4k_grid

>  <i_i_glide_lignum>  (300) 
17

>  <i_i_glide_rotatable_bonds>  (300) 
0

>  <r_i_docking_score>  (300) 
-3.99091

>  <r_i_glide_ligand_efficiency>  (300) 
-0.36281

>  <r_i_glide_ligand_efficiency_sa>  (300) 
-0.806881

>  <r_i_glide_ligand_efficiency_ln>  (300) 
-1.17452

>  <r_i_glide_gscore>  (300) 
-3.99091

>  <r_i_glide_lipo>  (300) 
-0.365855

>  <r_i_glide_hbond>  (300) 
-0.0614494

>  <r_i_glide_metal>  (300) 
-0

>  <r_i_glide_rewards>  (300) 
-2.33605

>  <r_i_glide_evdw>  (300) 
-18.705

>  <r_i_glide_ecoul>  (300) 
-1.55761

>  <r_i_glide_erotb>  (300) 
0

>  <r_i_glide_esite>  (300) 
-0.0586587

>  <r_i_glide_emodel>  (300) 
-25.8097

>  <r_i_glide_energy>  (300) 
-20.2626

>  <r_i_glide_einternal>  (300) 
0

>  <r_i_glide_intrahb_reward>  (300) 
-0

>  <i_i_glide_confnum>  (300) 
1

>  <i_i_glide_posenum>  (300) 
2

>  <r_i_glide_eff_state_penalty>  (300) 
0

>  <ligand_id>  (300) 
71

>  <original_smiles>  (300) 
Cn1ccn2ncnc2c1=O

>  <smiles>  (300) 
[H]c1nc2c(=O)n(C([H])([H])[H])c([H])c([H])n2n1

$$$$
72:0:0
     RDKit          3D

 72 77  0  0  1  0  0  0  0  0999 V2000
    5.0175   -3.4539    8.9906 C   0  0  0  0  0  0  0  0  0  0  0  0
    4.6080   -2.2288    8.1577 C   0  0  2  0  0  0  0  0  0  0  0  0
    3.2675   -2.3835    7.7364 O   0  0  0  0  0  0  0  0  0  0  0  0
    5.5208   -2.0083    6.9111 C   0  0  0  0  0  0  0  0  0  0  0  0
    5.6354   -3.1753    6.0236 N   0  0  0  0  0  0  0  0  0  0  0  0
    5.1252   -3.2523    4.7435 C   0  0  0  0  0  0  0  0  0  0  0  0
    5.3757   -4.5208    4.3250 C   0  0  0  0  0  0  0  0  0  0  0  0
    5.0247   -5.1397    3.0341 C   0  0  0  0  0  0  0  0  0  0  0  0
    5.4555   -6.4085    2.7952 C   0  0  0  0  0  0  0  0  0  0  0  0
    5.1714   -7.1239    1.5717 C   0  0  0  0  0  0  0  0  0  0  0  0
    4.4606   -6.5133    0.6274 C   0  0  0  0  0  0  0  0  0  0  0  0
    3.9818   -5.1950    0.7800 N   0  0  0  0  0  0  0  0  0  0  0  0
    3.2563   -4.6759   -0.2758 N   0  0  0  0  0  0  0  0  0  0  0  0
    2.8028   -3.4599   -0.1554 C   0  0  0  0  0  0  0  0  0  0  0  0
    3.0582   -2.6518    1.0730 C   0  0  0  0  0  0  0  0  0  0  0  0
    2.5937   -1.4215    1.1767 N   0  0  0  0  0  0  0  0  0  0  0  0
    2.7107   -0.4239    2.2456 C   0  0  0  0  0  0  0  0  0  0  0  0
    3.0668   -0.7709    3.5633 C   0  0  0  0  0  0  0  0  0  0  0  0
    3.2681    0.2120    4.5421 C   0  0  0  0  0  0  0  0  0  0  0  0
    2.9297    1.5492    4.2552 C   0  0  0  0  0  0  0  0  0  0  0  0
    2.4099    1.8823    2.9883 C   0  0  0  0  0  0  0  0  0  0  0  0
    2.3247    0.9012    1.9740 C   0  0  0  0  0  0  0  0  0  0  0  0
    2.0079    3.3131    2.7254 C   0  0  0  0  0  0  0  0  0  0  0  0
    0.7533    3.7361    3.4810 C   0  0  0  0  0  0  0  0  0  0  0  0
    0.5661    3.1117    4.8584 N   0  0  2  0  0  0  0  0  0  0  0  0
   -0.7546    3.4891    5.4390 C   0  0  0  0  0  0  0  0  0  0  0  0
   -0.8324    3.2974    6.9778 C   0  0  0  0  0  0  0  0  0  0  0  0
   -0.7778    1.7852    7.3298 C   0  0  0  0  0  0  0  0  0  0  0  0
   -1.8495    1.0942    6.6940 O   0  0  0  0  0  0  0  0  0  0  0  0
   -1.7775    1.1760    5.2690 C   0  0  0  0  0  0  0  0  0  0  0  0
   -1.8910    2.6398    4.8133 C   0  0  0  0  0  0  0  0  0  0  0  0
    1.7644    3.2718    5.7846 C   0  0  0  0  0  0  0  0  0  0  0  0
    3.0829    2.6442    5.3193 C   0  0  0  0  0  0  0  0  0  0  0  0
    3.7862   -3.2152    2.0775 N   0  0  0  0  0  0  0  0  0  0  0  0
    4.2497   -4.4537    1.9776 C   0  0  0  0  0  0  0  0  0  0  0  0
    6.1657   -5.1091    5.3741 C   0  0  0  0  0  0  0  0  0  0  0  0
    6.3734   -4.2596    6.3698 N   0  0  0  0  0  0  0  0  0  0  0  0
    6.0330   -3.3300    9.3729 H   0  0  0  0  0  0  0  0  0  0  0  0
    4.9916   -4.3753    8.4126 H   0  0  0  0  0  0  0  0  0  0  0  0
    4.3404   -3.6286    9.8229 H   0  0  0  0  0  0  0  0  0  0  0  0
    4.6432   -1.3382    8.7948 H   0  0  0  0  0  0  0  0  0  0  0  0
    2.7343   -2.5409    8.5101 H   0  0  0  0  0  0  0  0  0  0  0  0
    5.1499   -1.1532    6.3561 H   0  0  0  0  0  0  0  0  0  0  0  0
    6.5262   -1.6869    7.2231 H   0  0  0  0  0  0  0  0  0  0  0  0
    4.7225   -2.4018    4.3051 H   0  0  0  0  0  0  0  0  0  0  0  0
    6.0163   -6.9298    3.5268 H   0  0  0  0  0  0  0  0  0  0  0  0
    5.5235   -8.1304    1.4401 H   0  0  0  0  0  0  0  0  0  0  0  0
    4.2090   -6.9726   -0.3058 H   0  0  0  0  0  0  0  0  0  0  0  0
    2.2176   -2.9918   -0.9327 H   0  0  0  0  0  0  0  0  0  0  0  0
    3.0497   -1.7832    3.8187 H   0  0  0  0  0  0  0  0  0  0  0  0
    3.5933   -0.0321    5.5410 H   0  0  0  0  0  0  0  0  0  0  0  0
    1.9296    1.1513    0.9787 H   0  0  0  0  0  0  0  0  0  0  0  0
    2.8447    3.9584    2.9441 H   0  0  0  0  0  0  0  0  0  0  0  0
    1.8655    3.3858    1.6588 H   0  0  0  0  0  0  0  0  0  0  0  0
    0.7202    4.8204    3.5581 H   0  0  0  0  0  0  0  0  0  0  0  0
   -0.1044    3.4514    2.8654 H   0  0  0  0  0  0  0  0  0  0  0  0
   -0.9423    4.5464    5.2275 H   0  0  0  0  0  0  0  0  0  0  0  0
   -0.0631    3.8805    7.4923 H   0  0  0  0  0  0  0  0  0  0  0  0
   -1.7523    3.7309    7.3633 H   0  0  0  0  0  0  0  0  0  0  0  0
    0.1442    1.2890    7.0098 H   0  0  0  0  0  0  0  0  0  0  0  0
   -0.8138    1.6641    8.4139 H   0  0  0  0  0  0  0  0  0  0  0  0
   -0.8522    0.7300    4.8932 H   0  0  0  0  0  0  0  0  0  0  0  0
   -2.5680    0.5849    4.8473 H   0  0  0  0  0  0  0  0  0  0  0  0
   -2.8556    3.0377    5.1091 H   0  0  0  0  0  0  0  0  0  0  0  0
   -1.8968    2.6844    3.7263 H   0  0  0  0  0  0  0  0  0  0  0  0
    1.8867    4.3145    6.0745 H   0  0  0  0  0  0  0  0  0  0  0  0
    1.6084    2.7237    6.7085 H   0  0  0  0  0  0  0  0  0  0  0  0
    3.5780    2.2242    6.1992 H   0  0  0  0  0  0  0  0  0  0  0  0
    3.7431    3.4236    4.9368 H   0  0  0  0  0  0  0  0  0  0  0  0
    6.6501   -6.0943    5.4479 H   0  0  0  0  0  0  0  0  0  0  0  0
    2.0432   -1.0963    0.3491 H   0  0  0  0  0  0  0  0  0  0  0  0
    0.5019    2.1206    4.6757 H   0  0  0  0  0  0  0  0  0  0  0  0
  1  2  1  0
  1 38  1  0
  1 39  1  0
  1 40  1  0
  2  3  1  0
  2  4  1  0
  2 41  1  1
  3 42  1  0
  4  5  1  0
  4 43  1  0
  4 44  1  0
  5 37  1  0
  5  6  1  0
  6  7  2  0
  6 45  1  0
  7  8  1  0
  7 36  1  0
  8 35  1  0
  8  9  2  0
  9 10  1  0
  9 46  1  0
 10 11  2  0
 10 47  1  0
 11 12  1  0
 11 48  1  0
 12 35  1  0
 12 13  1  0
 13 14  2  0
 14 15  1  0
 14 49  1  0
 15 16  2  3
 15 34  1  0
 16 17  1  0
 16 71  1  0
 17 22  1  0
 17 18  2  0
 18 19  1  0
 18 50  1  0
 19 20  2  0
 19 51  1  0
 20 33  1  0
 20 21  1  0
 21 22  2  0
 21 23  1  0
 22 52  1  0
 23 24  1  0
 23 53  1  0
 23 54  1  0
 24 25  1  0
 24 55  1  0
 24 56  1  0
 25 26  1  0
 25 32  1  0
 25 72  1  6
 26 31  1  0
 26 27  1  0
 26 57  1  0
 27 28  1  0
 27 58  1  0
 27 59  1  0
 28 29  1  0
 28 60  1  0
 28 61  1  0
 29 30  1  0
 30 31  1  0
 30 62  1  0
 30 63  1  0
 31 64  1  0
 31 65  1  0
 32 33  1  0
 32 66  1  0
 32 67  1  0
 33 68  1  0
 33 69  1  0
 34 35  2  0
 36 37  2  0
 36 70  1  0
M  CHG  2  16   1  25   1
M  END
>  <i_m_ct_stereo_status>  (301) 
1

>  <s_m_source_file>  (301) 
/var/tmp/pbs.5076255.sched01/tmp8hdfbsd6/1003312lgh9.sdf

>  <i_m_source_file_index>  (301) 
18

>  <i_lp_mmshare_version>  (301) 
48012

>  <i_f3d_flags>  (301) 
0

>  <s_epik_input>  (301) 
W0NIM11bQ0BIXShbT0hdKVtDSDJdbjFbY0hdYyhbY0hdbjEpLWMoW2NIXVtjSF1bY0hdMiljKG4yMyluYyhcW2NIXW4zKT1OL2MoW2NIXVtjSF00KVtjSF1jKGM0NSlbQ0gyXVtDSDJdTihbQ0gyXVtDSDJdNSlbQ0hdNltDSDJdW0NIMl1PW0NIMl1bQ0gyXTY=

>  <s_epik_cmdline>  (301) 
J2VwaWtfcHl0aG9uJywgJy1waHQnLCAnMi4wJywgJy1waCcsICc3LjAnLCAnLXRuJywgJzgnLCAnLW1hJywgJzIwMCcsICctaW1hZScsICc8aW5maWxlLm1hZT4nLCAnLW9tYWUnLCAnPG91dGZpbGUubWFlPic=

>  <r_lp_tautomer_probability>  (301) 
1

>  <r_epik_Ionization_Penalty>  (301) 
0.0284919

>  <r_epik_Ionization_Penalty_Charging>  (301) 
0.0284912

>  <r_epik_Ionization_Penalty_Neutral>  (301) 
6.82903e-07

>  <r_epik_State_Penalty>  (301) 
0.0247207

>  <r_epik_Charging_Adjusted_Penalty>  (301) 
0.0532119

>  <i_epik_Tot_Q>  (301) 
2

>  <i_epik_Tot_abs_Q>  (301) 
2

>  <s_epik_Chemistry_Notes>  (301) 
This compound has an imine and may undergo hydrolysis.

>  <s_lp_Force_Field>  (301) 
OPLS3e

>  <r_lp_Energy>  (301) 
98.5954

>  <b_lp_Chiralities_Consistent>  (301) 
1

>  <s_lp_Variant>  (301) 
72:0-1

>  <s_i_glide_gridfile>  (301) 
pfpi4k_grid

>  <i_i_glide_lignum>  (301) 
18

>  <i_i_glide_rotatable_bonds>  (301) 
6

>  <r_i_docking_score>  (301) 
-3.25099

>  <r_i_glide_ligand_efficiency>  (301) 
-0.0878646

>  <r_i_glide_ligand_efficiency_sa>  (301) 
-0.292785

>  <r_i_glide_ligand_efficiency_ln>  (301) 
-0.705064

>  <r_i_glide_gscore>  (301) 
-3.25099

>  <r_i_glide_lipo>  (301) 
-0.258029

>  <r_i_glide_hbond>  (301) 
-0.302646

>  <r_i_glide_metal>  (301) 
-0

>  <r_i_glide_rewards>  (301) 
-0.0677439

>  <r_i_glide_evdw>  (301) 
-24.4959

>  <r_i_glide_ecoul>  (301) 
-11.5088

>  <r_i_glide_erotb>  (301) 
0.405914

>  <r_i_glide_esite>  (301) 
-0.0773758

>  <r_i_glide_emodel>  (301) 
-42.0353

>  <r_i_glide_energy>  (301) 
-36.0047

>  <r_i_glide_einternal>  (301) 
0.663124

>  <r_i_glide_intrahb_reward>  (301) 
-0

>  <i_i_glide_confnum>  (301) 
4

>  <i_i_glide_posenum>  (301) 
1

>  <r_i_glide_eff_state_penalty>  (301) 
0

>  <ligand_id>  (301) 
72

>  <original_smiles>  (301) 
CC(O)Cn1cc(-c2cccn3ncc(=Nc4ccc5c(c4)CCN(C4CCOCC4)CC5)nc23)cn1

>  <smiles>  (301) 
[H]OC([H])(C([H])([H])[H])C([H])([H])n1nc([H])c(-c2c([H])c([H])c([H])n3nc([H])c(=[N+]([H])c4c([H])c([H])c5c(c4[H])C([H])([H])C([H])([H])[N+]([H])(C4([H])C([H])([H])C([H])([H])OC([H])([H])C4([H])[H])C([H])([H])C5([H])[H])nc23)c1[H]

$$$$
72:0:1
     RDKit          3D

 72 77  0  0  1  0  0  0  0  0999 V2000
    7.9583   -2.4311    7.6949 C   0  0  0  0  0  0  0  0  0  0  0  0
    7.6556   -3.8649    8.1755 C   0  0  2  0  0  0  0  0  0  0  0  0
    8.5176   -4.7575    7.5027 O   0  0  0  0  0  0  0  0  0  0  0  0
    6.1949   -4.3334    7.9704 C   0  0  0  0  0  0  0  0  0  0  0  0
    5.7475   -4.2552    6.5868 N   0  0  0  0  0  0  0  0  0  0  0  0
    5.6653   -5.2452    5.6244 C   0  0  0  0  0  0  0  0  0  0  0  0
    5.2251   -4.6201    4.4751 C   0  0  0  0  0  0  0  0  0  0  0  0
    4.9752   -5.2138    3.1632 C   0  0  0  0  0  0  0  0  0  0  0  0
    5.3924   -6.4898    2.9506 C   0  0  0  0  0  0  0  0  0  0  0  0
    5.1977   -7.1836    1.6976 C   0  0  0  0  0  0  0  0  0  0  0  0
    4.5825   -6.5461    0.7109 C   0  0  0  0  0  0  0  0  0  0  0  0
    4.1224   -5.2271    0.8311 N   0  0  0  0  0  0  0  0  0  0  0  0
    3.4911   -4.6759   -0.2656 N   0  0  0  0  0  0  0  0  0  0  0  0
    3.0482   -3.4670   -0.1667 C   0  0  0  0  0  0  0  0  0  0  0  0
    3.2076   -2.6530    1.0730 C   0  0  0  0  0  0  0  0  0  0  0  0
    2.7780   -1.4565    1.1764 N   0  0  0  0  0  0  0  0  0  0  0  0
    2.8109   -0.4566    2.2689 C   0  0  0  0  0  0  0  0  0  0  0  0
    3.1713   -0.8329    3.6035 C   0  0  0  0  0  0  0  0  0  0  0  0
    3.2932    0.1774    4.5948 C   0  0  0  0  0  0  0  0  0  0  0  0
    2.9018    1.5034    4.3042 C   0  0  0  0  0  0  0  0  0  0  0  0
    2.4172    1.8277    3.0227 C   0  0  0  0  0  0  0  0  0  0  0  0
    2.3956    0.8605    1.9889 C   0  0  0  0  0  0  0  0  0  0  0  0
    1.9732    3.2498    2.7503 C   0  0  0  0  0  0  0  0  0  0  0  0
    0.6810    3.6319    3.4810 C   0  0  0  0  0  0  0  0  0  0  0  0
    0.4817    2.9876    4.8294 N   0  0  2  0  0  0  0  0  0  0  0  0
   -0.8830    3.3073    5.3802 C   0  0  0  0  0  0  0  0  0  0  0  0
   -0.9952    3.1022    6.9094 C   0  0  0  0  0  0  0  0  0  0  0  0
   -0.8972    1.5927    7.2596 C   0  0  0  0  0  0  0  0  0  0  0  0
   -1.9275    0.8683    6.5866 O   0  0  0  0  0  0  0  0  0  0  0  0
   -1.8080    0.9587    5.1656 C   0  0  0  0  0  0  0  0  0  0  0  0
   -1.9591    2.4216    4.7129 C   0  0  0  0  0  0  0  0  0  0  0  0
    1.6278    3.1629    5.8102 C   0  0  0  0  0  0  0  0  0  0  0  0
    2.9874    2.5883    5.3705 C   0  0  0  0  0  0  0  0  0  0  0  0
    3.8610   -3.2713    2.1355 N   0  0  0  0  0  0  0  0  0  0  0  0
    4.3038   -4.5008    2.0606 C   0  0  0  0  0  0  0  0  0  0  0  0
    5.1587   -3.2139    4.7931 C   0  0  0  0  0  0  0  0  0  0  0  0
    5.3627   -3.0596    6.0970 N   0  0  0  0  0  0  0  0  0  0  0  0
    7.3665   -1.7017    8.2501 H   0  0  0  0  0  0  0  0  0  0  0  0
    7.7399   -2.2907    6.6386 H   0  0  0  0  0  0  0  0  0  0  0  0
    9.0130   -2.1808    7.8179 H   0  0  0  0  0  0  0  0  0  0  0  0
    7.8880   -3.9281    9.2372 H   0  0  0  0  0  0  0  0  0  0  0  0
    8.2759   -4.7703    6.5872 H   0  0  0  0  0  0  0  0  0  0  0  0
    6.0794   -5.3692    8.2784 H   0  0  0  0  0  0  0  0  0  0  0  0
    5.5146   -3.7374    8.5814 H   0  0  0  0  0  0  0  0  0  0  0  0
    5.9585   -6.2747    5.8535 H   0  0  0  0  0  0  0  0  0  0  0  0
    5.8961   -7.0281    3.7254 H   0  0  0  0  0  0  0  0  0  0  0  0
    5.5414   -8.1969    1.5775 H   0  0  0  0  0  0  0  0  0  0  0  0
    4.3933   -6.9898   -0.2513 H   0  0  0  0  0  0  0  0  0  0  0  0
    2.5242   -2.9680   -0.9846 H   0  0  0  0  0  0  0  0  0  0  0  0
    3.2881   -1.8363    3.9013 H   0  0  0  0  0  0  0  0  0  0  0  0
    3.6467   -0.0992    5.5803 H   0  0  0  0  0  0  0  0  0  0  0  0
    2.0348    1.1152    0.9918 H   0  0  0  0  0  0  0  0  0  0  0  0
    2.7796    3.9304    3.0086 H   0  0  0  0  0  0  0  0  0  0  0  0
    1.8130    3.3467    1.6826 H   0  0  0  0  0  0  0  0  0  0  0  0
    0.6128    4.7149    3.5650 H   0  0  0  0  0  0  0  0  0  0  0  0
   -0.1494    3.3322    2.8470 H   0  0  0  0  0  0  0  0  0  0  0  0
   -1.1023    4.3569    5.1673 H   0  0  0  0  0  0  0  0  0  0  0  0
   -0.2637    3.7058    7.4514 H   0  0  0  0  0  0  0  0  0  0  0  0
   -1.9473    3.5023    7.2702 H   0  0  0  0  0  0  0  0  0  0  0  0
    0.0597    1.1507    6.9633 H   0  0  0  0  0  0  0  0  0  0  0  0
   -0.9679    1.4641    8.3419 H   0  0  0  0  0  0  0  0  0  0  0  0
   -0.8569    0.5475    4.8160 H   0  0  0  0  0  0  0  0  0  0  0  0
   -2.5799    0.3442    4.7195 H   0  0  0  0  0  0  0  0  0  0  0  0
   -2.9510    2.7833    4.9801 H   0  0  0  0  0  0  0  0  0  0  0  0
   -1.9396    2.4703    3.6257 H   0  0  0  0  0  0  0  0  0  0  0  0
    1.7138    4.2111    6.1061 H   0  0  0  0  0  0  0  0  0  0  0  0
    1.4421    2.5914    6.7159 H   0  0  0  0  0  0  0  0  0  0  0  0
    3.4631    2.1746    6.2632 H   0  0  0  0  0  0  0  0  0  0  0  0
    3.6320    3.3946    5.0216 H   0  0  0  0  0  0  0  0  0  0  0  0
    5.0598   -2.3640    4.1729 H   0  0  0  0  0  0  0  0  0  0  0  0
    2.3027   -1.0716    0.3184 H   0  0  0  0  0  0  0  0  0  0  0  0
    0.4476    1.9914    4.6364 H   0  0  0  0  0  0  0  0  0  0  0  0
  1  2  1  0
  1 38  1  0
  1 39  1  0
  1 40  1  0
  2  3  1  0
  2  4  1  0
  2 41  1  1
  3 42  1  0
  4  5  1  0
  4 43  1  0
  4 44  1  0
  5 37  1  0
  5  6  1  0
  6  7  2  0
  6 45  1  0
  7  8  1  0
  7 36  1  0
  8 35  1  0
  8  9  2  0
  9 10  1  0
  9 46  1  0
 10 11  2  0
 10 47  1  0
 11 12  1  0
 11 48  1  0
 12 35  1  0
 12 13  1  0
 13 14  2  0
 14 15  1  0
 14 49  1  0
 15 16  2  3
 15 34  1  0
 16 17  1  0
 16 71  1  0
 17 22  1  0
 17 18  2  0
 18 19  1  0
 18 50  1  0
 19 20  2  0
 19 51  1  0
 20 33  1  0
 20 21  1  0
 21 22  2  0
 21 23  1  0
 22 52  1  0
 23 24  1  0
 23 53  1  0
 23 54  1  0
 24 25  1  0
 24 55  1  0
 24 56  1  0
 25 26  1  0
 25 32  1  0
 25 72  1  6
 26 31  1  0
 26 27  1  0
 26 57  1  0
 27 28  1  0
 27 58  1  0
 27 59  1  0
 28 29  1  0
 28 60  1  0
 28 61  1  0
 29 30  1  0
 30 31  1  0
 30 62  1  0
 30 63  1  0
 31 64  1  0
 31 65  1  0
 32 33  1  0
 32 66  1  0
 32 67  1  0
 33 68  1  0
 33 69  1  0
 34 35  2  0
 36 37  2  0
 36 70  1  0
M  CHG  2  16   1  25   1
M  END
>  <i_m_ct_stereo_status>  (302) 
1

>  <s_m_source_file>  (302) 
/var/tmp/pbs.5076255.sched01/tmp8hdfbsd6/1003312lgh9.sdf

>  <i_m_source_file_index>  (302) 
18

>  <i_lp_mmshare_version>  (302) 
48012

>  <i_f3d_flags>  (302) 
0

>  <s_epik_input>  (302) 
W0NIM11bQ0BIXShbT0hdKVtDSDJdbjFbY0hdYyhbY0hdbjEpLWMoW2NIXVtjSF1bY0hdMiljKG4yMyluYyhcW2NIXW4zKT1OL2MoW2NIXVtjSF00KVtjSF1jKGM0NSlbQ0gyXVtDSDJdTihbQ0gyXVtDSDJdNSlbQ0hdNltDSDJdW0NIMl1PW0NIMl1bQ0gyXTY=

>  <s_epik_cmdline>  (302) 
J2VwaWtfcHl0aG9uJywgJy1waHQnLCAnMi4wJywgJy1waCcsICc3LjAnLCAnLXRuJywgJzgnLCAnLW1hJywgJzIwMCcsICctaW1hZScsICc8aW5maWxlLm1hZT4nLCAnLW9tYWUnLCAnPG91dGZpbGUubWFlPic=

>  <r_lp_tautomer_probability>  (302) 
1

>  <r_epik_Ionization_Penalty>  (302) 
0.0284919

>  <r_epik_Ionization_Penalty_Charging>  (302) 
0.0284912

>  <r_epik_Ionization_Penalty_Neutral>  (302) 
6.82903e-07

>  <r_epik_State_Penalty>  (302) 
0.0247207

>  <r_epik_Charging_Adjusted_Penalty>  (302) 
0.0532119

>  <i_epik_Tot_Q>  (302) 
2

>  <i_epik_Tot_abs_Q>  (302) 
2

>  <s_epik_Chemistry_Notes>  (302) 
This compound has an imine and may undergo hydrolysis.

>  <s_lp_Force_Field>  (302) 
OPLS3e

>  <r_lp_Energy>  (302) 
98.5954

>  <b_lp_Chiralities_Consistent>  (302) 
1

>  <s_lp_Variant>  (302) 
72:0-1

>  <s_i_glide_gridfile>  (302) 
pfpi4k_grid

>  <i_i_glide_lignum>  (302) 
18

>  <i_i_glide_rotatable_bonds>  (302) 
6

>  <r_i_docking_score>  (302) 
-3.15125

>  <r_i_glide_ligand_efficiency>  (302) 
-0.0851689

>  <r_i_glide_ligand_efficiency_sa>  (302) 
-0.283802

>  <r_i_glide_ligand_efficiency_ln>  (302) 
-0.683432

>  <r_i_glide_gscore>  (302) 
-3.15125

>  <r_i_glide_lipo>  (302) 
-0.259057

>  <r_i_glide_hbond>  (302) 
-0.350679

>  <r_i_glide_metal>  (302) 
-0

>  <r_i_glide_rewards>  (302) 
-0.0637324

>  <r_i_glide_evdw>  (302) 
-26.3445

>  <r_i_glide_ecoul>  (302) 
-9.9703

>  <r_i_glide_erotb>  (302) 
0.405914

>  <r_i_glide_esite>  (302) 
-0.0709256

>  <r_i_glide_emodel>  (302) 
-43.0392

>  <r_i_glide_energy>  (302) 
-36.3148

>  <r_i_glide_einternal>  (302) 
1.00213

>  <r_i_glide_intrahb_reward>  (302) 
-0

>  <i_i_glide_confnum>  (302) 
4

>  <i_i_glide_posenum>  (302) 
29

>  <r_i_glide_eff_state_penalty>  (302) 
0

>  <ligand_id>  (302) 
72

>  <original_smiles>  (302) 
CC(O)Cn1cc(-c2cccn3ncc(=Nc4ccc5c(c4)CCN(C4CCOCC4)CC5)nc23)cn1

>  <smiles>  (302) 
[H]OC([H])(C([H])([H])[H])C([H])([H])n1nc([H])c(-c2c([H])c([H])c([H])n3nc([H])c(=[N+]([H])c4c([H])c([H])c5c(c4[H])C([H])([H])C([H])([H])[N+]([H])(C4([H])C([H])([H])C([H])([H])OC([H])([H])C4([H])[H])C([H])([H])C5([H])[H])nc23)c1[H]

$$$$
72:0:2
     RDKit          3D

 72 77  0  0  1  0  0  0  0  0999 V2000
   -1.5679   -4.4922    7.0165 C   0  0  0  0  0  0  0  0  0  0  0  0
   -0.9515   -4.6946    8.4098 C   0  0  2  0  0  0  0  0  0  0  0  0
   -0.9743   -3.4558    9.0969 O   0  0  0  0  0  0  0  0  0  0  0  0
    0.4878   -5.2654    8.4220 C   0  0  0  0  0  0  0  0  0  0  0  0
    0.6136   -6.5664    7.7766 N   0  0  0  0  0  0  0  0  0  0  0  0
    1.2416   -6.8090    6.5908 C   0  0  0  0  0  0  0  0  0  0  0  0
    1.0829   -8.1532    6.3205 C   0  0  0  0  0  0  0  0  0  0  0  0
    1.5219   -8.8876    5.1471 C   0  0  0  0  0  0  0  0  0  0  0  0
    1.2614  -10.2172    5.0833 C   0  0  0  0  0  0  0  0  0  0  0  0
    1.6369  -11.0799    3.9956 C   0  0  0  0  0  0  0  0  0  0  0  0
    2.2978  -10.5179    2.9611 C   0  0  0  0  0  0  0  0  0  0  0  0
    2.6105   -9.1812    2.9004 N   0  0  0  0  0  0  0  0  0  0  0  0
    3.2689   -8.7365    1.7862 N   0  0  0  0  0  0  0  0  0  0  0  0
    3.5748   -7.4803    1.7268 C   0  0  0  0  0  0  0  0  0  0  0  0
    3.2350   -6.5418    2.8082 C   0  0  0  0  0  0  0  0  0  0  0  0
    3.5604   -5.2546    2.7553 N   0  0  0  0  0  0  0  0  0  0  0  0
    3.3397   -4.1433    3.6583 C   0  0  0  0  0  0  0  0  0  0  0  0
    2.2876   -4.1084    4.5915 C   0  0  0  0  0  0  0  0  0  0  0  0
    2.1850   -3.0816    5.5482 C   0  0  0  0  0  0  0  0  0  0  0  0
    3.0311   -1.9625    5.4409 C   0  0  0  0  0  0  0  0  0  0  0  0
    3.9744   -1.8964    4.3855 C   0  0  0  0  0  0  0  0  0  0  0  0
    4.1633   -2.9882    3.5137 C   0  0  0  0  0  0  0  0  0  0  0  0
    4.8092   -0.6358    4.2465 C   0  0  0  0  0  0  0  0  0  0  0  0
    3.9848    0.5884    3.7871 C   0  0  0  0  0  0  0  0  0  0  0  0
    2.5844    0.6451    4.2923 N   0  0  2  0  0  0  0  0  0  0  0  0
    1.8339    1.8041    3.6503 C   0  0  0  0  0  0  0  0  0  0  0  0
    0.5798    2.2504    4.4360 C   0  0  0  0  0  0  0  0  0  0  0  0
   -0.5294    1.1609    4.3658 C   0  0  0  0  0  0  0  0  0  0  0  0
   -0.8519    0.8997    3.0090 O   0  0  0  0  0  0  0  0  0  0  0  0
    0.2576    0.3892    2.2724 C   0  0  0  0  0  0  0  0  0  0  0  0
    1.3833    1.4329    2.2208 C   0  0  0  0  0  0  0  0  0  0  0  0
    2.4327    0.5333    5.7884 C   0  0  0  0  0  0  0  0  0  0  0  0
    2.9257   -0.7943    6.4161 C   0  0  0  0  0  0  0  0  0  0  0  0
    2.5681   -7.0277    3.9219 N   0  0  0  0  0  0  0  0  0  0  0  0
    2.2516   -8.2829    3.9942 C   0  0  0  0  0  0  0  0  0  0  0  0
    0.4429   -8.6660    7.5054 C   0  0  0  0  0  0  0  0  0  0  0  0
    0.1624   -7.6975    8.3740 N   0  0  0  0  0  0  0  0  0  0  0  0
   -1.6586   -5.4408    6.4894 H   0  0  0  0  0  0  0  0  0  0  0  0
   -0.9665   -3.8201    6.4029 H   0  0  0  0  0  0  0  0  0  0  0  0
   -2.5713   -4.0709    7.0912 H   0  0  0  0  0  0  0  0  0  0  0  0
   -1.5775   -5.3869    8.9688 H   0  0  0  0  0  0  0  0  0  0  0  0
   -0.5983   -3.5882    9.9537 H   0  0  0  0  0  0  0  0  0  0  0  0
    1.1512   -4.5510    7.9275 H   0  0  0  0  0  0  0  0  0  0  0  0
    0.8691   -5.3205    9.4458 H   0  0  0  0  0  0  0  0  0  0  0  0
    1.7454   -6.0240    6.0637 H   0  0  0  0  0  0  0  0  0  0  0  0
    0.7387  -10.7061    5.8859 H   0  0  0  0  0  0  0  0  0  0  0  0
    1.4105  -12.1315    3.9983 H   0  0  0  0  0  0  0  0  0  0  0  0
    2.6286  -11.0960    2.1100 H   0  0  0  0  0  0  0  0  0  0  0  0
    4.1042   -7.0503    0.8654 H   0  0  0  0  0  0  0  0  0  0  0  0
    1.5163   -4.8558    4.5183 H   0  0  0  0  0  0  0  0  0  0  0  0
    1.4431   -3.1041    6.3304 H   0  0  0  0  0  0  0  0  0  0  0  0
    4.8998   -2.9343    2.7241 H   0  0  0  0  0  0  0  0  0  0  0  0
    5.3078   -0.4313    5.1919 H   0  0  0  0  0  0  0  0  0  0  0  0
    5.5874   -0.8297    3.5116 H   0  0  0  0  0  0  0  0  0  0  0  0
    4.5313    1.4939    4.0732 H   0  0  0  0  0  0  0  0  0  0  0  0
    3.9884    0.5628    2.6926 H   0  0  0  0  0  0  0  0  0  0  0  0
    2.5144    2.6615    3.5924 H   0  0  0  0  0  0  0  0  0  0  0  0
    0.8200    2.5638    5.4551 H   0  0  0  0  0  0  0  0  0  0  0  0
    0.2002    3.1809    4.0001 H   0  0  0  0  0  0  0  0  0  0  0  0
   -0.2451    0.1897    4.7867 H   0  0  0  0  0  0  0  0  0  0  0  0
   -1.3999    1.4874    4.9349 H   0  0  0  0  0  0  0  0  0  0  0  0
    0.6295   -0.5521    2.6894 H   0  0  0  0  0  0  0  0  0  0  0  0
   -0.0885    0.1588    1.2828 H   0  0  0  0  0  0  0  0  0  0  0  0
    1.0148    2.3244    1.7113 H   0  0  0  0  0  0  0  0  0  0  0  0
    2.1910    1.0738    1.5855 H   0  0  0  0  0  0  0  0  0  0  0  0
    2.8571    1.4085    6.2946 H   0  0  0  0  0  0  0  0  0  0  0  0
    1.3897    0.4866    6.1051 H   0  0  0  0  0  0  0  0  0  0  0  0
    2.2090   -1.0504    7.2082 H   0  0  0  0  0  0  0  0  0  0  0  0
    3.8820   -0.6170    6.9154 H   0  0  0  0  0  0  0  0  0  0  0  0
    0.1972   -9.6921    7.7835 H   0  0  0  0  0  0  0  0  0  0  0  0
    4.1047   -5.0196    1.9209 H   0  0  0  0  0  0  0  0  0  0  0  0
    2.1292   -0.1789    3.9035 H   0  0  0  0  0  0  0  0  0  0  0  0
  1  2  1  0
  1 38  1  0
  1 39  1  0
  1 40  1  0
  2  3  1  0
  2  4  1  0
  2 41  1  1
  3 42  1  0
  4  5  1  0
  4 43  1  0
  4 44  1  0
  5 37  1  0
  5  6  1  0
  6  7  2  0
  6 45  1  0
  7  8  1  0
  7 36  1  0
  8 35  1  0
  8  9  2  0
  9 10  1  0
  9 46  1  0
 10 11  2  0
 10 47  1  0
 11 12  1  0
 11 48  1  0
 12 35  1  0
 12 13  1  0
 13 14  2  0
 14 15  1  0
 14 49  1  0
 15 16  2  3
 15 34  1  0
 16 17  1  0
 16 71  1  0
 17 22  1  0
 17 18  2  0
 18 19  1  0
 18 50  1  0
 19 20  2  0
 19 51  1  0
 20 33  1  0
 20 21  1  0
 21 22  2  0
 21 23  1  0
 22 52  1  0
 23 24  1  0
 23 53  1  0
 23 54  1  0
 24 25  1  0
 24 55  1  0
 24 56  1  0
 25 26  1  0
 25 32  1  0
 25 72  1  6
 26 31  1  0
 26 27  1  0
 26 57  1  0
 27 28  1  0
 27 58  1  0
 27 59  1  0
 28 29  1  0
 28 60  1  0
 28 61  1  0
 29 30  1  0
 30 31  1  0
 30 62  1  0
 30 63  1  0
 31 64  1  0
 31 65  1  0
 32 33  1  0
 32 66  1  0
 32 67  1  0
 33 68  1  0
 33 69  1  0
 34 35  2  0
 36 37  2  0
 36 70  1  0
M  CHG  2  16   1  25   1
M  END
>  <i_m_ct_stereo_status>  (303) 
1

>  <s_m_source_file>  (303) 
/var/tmp/pbs.5076255.sched01/tmp8hdfbsd6/1003312lgh9.sdf

>  <i_m_source_file_index>  (303) 
18

>  <i_lp_mmshare_version>  (303) 
48012

>  <i_f3d_flags>  (303) 
0

>  <s_epik_input>  (303) 
W0NIM11bQ0BIXShbT0hdKVtDSDJdbjFbY0hdYyhbY0hdbjEpLWMoW2NIXVtjSF1bY0hdMiljKG4yMyluYyhcW2NIXW4zKT1OL2MoW2NIXVtjSF00KVtjSF1jKGM0NSlbQ0gyXVtDSDJdTihbQ0gyXVtDSDJdNSlbQ0hdNltDSDJdW0NIMl1PW0NIMl1bQ0gyXTY=

>  <s_epik_cmdline>  (303) 
J2VwaWtfcHl0aG9uJywgJy1waHQnLCAnMi4wJywgJy1waCcsICc3LjAnLCAnLXRuJywgJzgnLCAnLW1hJywgJzIwMCcsICctaW1hZScsICc8aW5maWxlLm1hZT4nLCAnLW9tYWUnLCAnPG91dGZpbGUubWFlPic=

>  <r_lp_tautomer_probability>  (303) 
1

>  <r_epik_Ionization_Penalty>  (303) 
0.0284919

>  <r_epik_Ionization_Penalty_Charging>  (303) 
0.0284912

>  <r_epik_Ionization_Penalty_Neutral>  (303) 
6.82903e-07

>  <r_epik_State_Penalty>  (303) 
0.0247207

>  <r_epik_Charging_Adjusted_Penalty>  (303) 
0.0532119

>  <i_epik_Tot_Q>  (303) 
2

>  <i_epik_Tot_abs_Q>  (303) 
2

>  <s_epik_Chemistry_Notes>  (303) 
This compound has an imine and may undergo hydrolysis.

>  <s_lp_Force_Field>  (303) 
OPLS3e

>  <r_lp_Energy>  (303) 
98.5954

>  <b_lp_Chiralities_Consistent>  (303) 
1

>  <s_lp_Variant>  (303) 
72:0-1

>  <s_i_glide_gridfile>  (303) 
pfpi4k_grid

>  <i_i_glide_lignum>  (303) 
18

>  <i_i_glide_rotatable_bonds>  (303) 
6

>  <r_i_docking_score>  (303) 
-2.66108

>  <r_i_glide_ligand_efficiency>  (303) 
-0.0719211

>  <r_i_glide_ligand_efficiency_sa>  (303) 
-0.239657

>  <r_i_glide_ligand_efficiency_ln>  (303) 
-0.577126

>  <r_i_glide_gscore>  (303) 
-2.66108

>  <r_i_glide_lipo>  (303) 
-0.237636

>  <r_i_glide_hbond>  (303) 
-0.145246

>  <r_i_glide_metal>  (303) 
-0

>  <r_i_glide_rewards>  (303) 
0

>  <r_i_glide_evdw>  (303) 
-28.827

>  <r_i_glide_ecoul>  (303) 
-8.16071

>  <r_i_glide_erotb>  (303) 
0.405914

>  <r_i_glide_esite>  (303) 
-0.0186587

>  <r_i_glide_emodel>  (303) 
-42.2721

>  <r_i_glide_energy>  (303) 
-36.9877

>  <r_i_glide_einternal>  (303) 
1.51954

>  <r_i_glide_intrahb_reward>  (303) 
-0

>  <i_i_glide_confnum>  (303) 
2

>  <i_i_glide_posenum>  (303) 
4

>  <r_i_glide_eff_state_penalty>  (303) 
0

>  <ligand_id>  (303) 
72

>  <original_smiles>  (303) 
CC(O)Cn1cc(-c2cccn3ncc(=Nc4ccc5c(c4)CCN(C4CCOCC4)CC5)nc23)cn1

>  <smiles>  (303) 
[H]OC([H])(C([H])([H])[H])C([H])([H])n1nc([H])c(-c2c([H])c([H])c([H])n3nc([H])c(=[N+]([H])c4c([H])c([H])c5c(c4[H])C([H])([H])C([H])([H])[N+]([H])(C4([H])C([H])([H])C([H])([H])OC([H])([H])C4([H])[H])C([H])([H])C5([H])[H])nc23)c1[H]

$$$$
72:1:0
     RDKit          3D

 72 77  0  0  1  0  0  0  0  0999 V2000
   -5.5008    6.3508    0.6352 C   0  0  0  0  0  0  0  0  0  0  0  0
   -4.5814    5.9241    1.7869 C   0  0  2  0  0  0  0  0  0  0  0  0
   -3.3804    6.6496    1.6211 O   0  0  0  0  0  0  0  0  0  0  0  0
   -4.3635    4.3891    1.9135 C   0  0  0  0  0  0  0  0  0  0  0  0
   -3.2277    3.9821    2.7546 N   0  0  0  0  0  0  0  0  0  0  0  0
   -1.9297    4.4669    2.7828 C   0  0  0  0  0  0  0  0  0  0  0  0
   -1.2470    3.7226    3.6893 C   0  0  0  0  0  0  0  0  0  0  0  0
    0.1372    3.9000    4.0233 C   0  0  0  0  0  0  0  0  0  0  0  0
    0.5826    5.1573    4.2872 C   0  0  0  0  0  0  0  0  0  0  0  0
    1.9547    5.4411    4.6497 C   0  0  0  0  0  0  0  0  0  0  0  0
    2.8195    4.4165    4.6925 C   0  0  0  0  0  0  0  0  0  0  0  0
    2.4450    3.1073    4.3990 N   0  0  0  0  0  0  0  0  0  0  0  0
    3.4075    2.1682    4.4920 N   0  0  0  0  0  0  0  0  0  0  0  0
    3.0972    0.9432    4.2264 C   0  0  0  0  0  0  0  0  0  0  0  0
    1.7231    0.5857    3.8064 C   0  0  0  0  0  0  0  0  0  0  0  0
    1.2947   -0.5972    3.4945 N   0  0  0  0  0  0  0  0  0  0  0  0
    1.9369   -1.8906    3.3904 C   0  0  0  0  0  0  0  0  0  0  0  0
    3.2754   -2.0231    2.9725 C   0  0  0  0  0  0  0  0  0  0  0  0
    3.8751   -3.2869    2.9153 C   0  0  0  0  0  0  0  0  0  0  0  0
    3.1387   -4.4454    3.2221 C   0  0  0  0  0  0  0  0  0  0  0  0
    1.7734   -4.3307    3.5932 C   0  0  0  0  0  0  0  0  0  0  0  0
    1.1832   -3.0473    3.6783 C   0  0  0  0  0  0  0  0  0  0  0  0
    0.9103   -5.5433    3.9262 C   0  0  0  0  0  0  0  0  0  0  0  0
    0.8422   -6.6231    2.8172 C   0  0  0  0  0  0  0  0  0  0  0  0
    2.0419   -7.5016    2.7513 N   0  0  2  0  0  0  0  0  0  0  0  0
    2.2970   -8.3606    3.9621 C   0  0  0  0  0  0  0  0  0  0  0  0
    3.4330   -9.3883    3.7185 C   0  0  0  0  0  0  0  0  0  0  0  0
    2.9802  -10.4541    2.7009 C   0  0  0  0  0  0  0  0  0  0  0  0
    1.8059  -11.1005    3.1816 O   0  0  0  0  0  0  0  0  0  0  0  0
    0.6941  -10.2288    3.3462 C   0  0  0  0  0  0  0  0  0  0  0  0
    1.0361   -9.1549    4.3967 C   0  0  0  0  0  0  0  0  0  0  0  0
    3.2298   -6.8106    2.1775 C   0  0  0  0  0  0  0  0  0  0  0  0
    3.8716   -5.7774    3.1313 C   0  0  0  0  0  0  0  0  0  0  0  0
    0.7647    1.5586    3.7550 N   0  0  0  0  0  0  0  0  0  0  0  0
    1.0885    2.7949    4.0491 C   0  0  0  0  0  0  0  0  0  0  0  0
   -2.1662    2.7597    4.1733 C   0  0  0  0  0  0  0  0  0  0  0  0
   -3.3618    2.9443    3.6234 N   0  0  0  0  0  0  0  0  0  0  0  0
   -6.4825    5.8750    0.6935 H   0  0  0  0  0  0  0  0  0  0  0  0
   -5.0500    6.1158   -0.3312 H   0  0  0  0  0  0  0  0  0  0  0  0
   -5.6492    7.4349    0.6673 H   0  0  0  0  0  0  0  0  0  0  0  0
   -5.0268    6.2841    2.7065 H   0  0  0  0  0  0  0  0  0  0  0  0
   -2.9088    6.2938    0.8766 H   0  0  0  0  0  0  0  0  0  0  0  0
   -5.2747    3.9491    2.3205 H   0  0  0  0  0  0  0  0  0  0  0  0
   -4.2616    3.9199    0.9361 H   0  0  0  0  0  0  0  0  0  0  0  0
   -1.5775    5.2546    2.1305 H   0  0  0  0  0  0  0  0  0  0  0  0
   -0.0994    5.9961    4.2628 H   0  0  0  0  0  0  0  0  0  0  0  0
    2.2842    6.4448    4.9084 H   0  0  0  0  0  0  0  0  0  0  0  0
    3.8666    4.5407    4.9618 H   0  0  0  0  0  0  0  0  0  0  0  0
    3.8295    0.1378    4.3209 H   0  0  0  0  0  0  0  0  0  0  0  0
    3.8665   -1.1767    2.6858 H   0  0  0  0  0  0  0  0  0  0  0  0
    4.9160   -3.3486    2.6368 H   0  0  0  0  0  0  0  0  0  0  0  0
    0.1479   -2.9625    3.9698 H   0  0  0  0  0  0  0  0  0  0  0  0
    1.2315   -5.9577    4.8849 H   0  0  0  0  0  0  0  0  0  0  0  0
   -0.1114   -5.2023    4.1061 H   0  0  0  0  0  0  0  0  0  0  0  0
   -0.0522   -7.2332    2.9656 H   0  0  0  0  0  0  0  0  0  0  0  0
    0.6889   -6.1486    1.8432 H   0  0  0  0  0  0  0  0  0  0  0  0
    2.5936   -7.7233    4.7999 H   0  0  0  0  0  0  0  0  0  0  0  0
    4.3693   -8.9211    3.3985 H   0  0  0  0  0  0  0  0  0  0  0  0
    3.6785   -9.8827    4.6640 H   0  0  0  0  0  0  0  0  0  0  0  0
    2.7892  -10.0133    1.7210 H   0  0  0  0  0  0  0  0  0  0  0  0
    3.7664  -11.1942    2.5586 H   0  0  0  0  0  0  0  0  0  0  0  0
    0.4315   -9.7803    2.3866 H   0  0  0  0  0  0  0  0  0  0  0  0
   -0.1717  -10.8046    3.6698 H   0  0  0  0  0  0  0  0  0  0  0  0
    1.2322   -9.6486    5.3546 H   0  0  0  0  0  0  0  0  0  0  0  0
    0.1711   -8.5119    4.5873 H   0  0  0  0  0  0  0  0  0  0  0  0
    3.9848   -7.5458    1.8896 H   0  0  0  0  0  0  0  0  0  0  0  0
    2.9540   -6.3256    1.2351 H   0  0  0  0  0  0  0  0  0  0  0  0
    4.8822   -5.5865    2.7608 H   0  0  0  0  0  0  0  0  0  0  0  0
    4.0214   -6.1714    4.1377 H   0  0  0  0  0  0  0  0  0  0  0  0
   -2.0203    1.9795    4.9100 H   0  0  0  0  0  0  0  0  0  0  0  0
    0.2961   -0.6070    3.3223 H   0  0  0  0  0  0  0  0  0  0  0  0
    1.8003   -8.1848    2.0445 H   0  0  0  0  0  0  0  0  0  0  0  0
  1  2  1  0
  1 38  1  0
  1 39  1  0
  1 40  1  0
  2  3  1  0
  2  4  1  0
  2 41  1  1
  3 42  1  0
  4  5  1  0
  4 43  1  0
  4 44  1  0
  5 37  1  0
  5  6  1  0
  6  7  2  0
  6 45  1  0
  7  8  1  0
  7 36  1  0
  8 35  1  0
  8  9  2  0
  9 10  1  0
  9 46  1  0
 10 11  2  0
 10 47  1  0
 11 12  1  0
 11 48  1  0
 12 35  1  0
 12 13  1  0
 13 14  2  0
 14 15  1  0
 14 49  1  0
 15 16  2  3
 15 34  1  0
 16 17  1  0
 16 71  1  0
 17 22  1  0
 17 18  2  0
 18 19  1  0
 18 50  1  0
 19 20  2  0
 19 51  1  0
 20 33  1  0
 20 21  1  0
 21 22  2  0
 21 23  1  0
 22 52  1  0
 23 24  1  0
 23 53  1  0
 23 54  1  0
 24 25  1  0
 24 55  1  0
 24 56  1  0
 25 26  1  0
 25 32  1  0
 25 72  1  6
 26 31  1  0
 26 27  1  0
 26 57  1  0
 27 28  1  0
 27 58  1  0
 27 59  1  0
 28 29  1  0
 28 60  1  0
 28 61  1  0
 29 30  1  0
 30 31  1  0
 30 62  1  0
 30 63  1  0
 31 64  1  0
 31 65  1  0
 32 33  1  0
 32 66  1  0
 32 67  1  0
 33 68  1  0
 33 69  1  0
 34 35  2  0
 36 37  2  0
 36 70  1  0
M  CHG  2  16   1  25   1
M  END
>  <i_m_ct_stereo_status>  (304) 
1

>  <s_m_source_file>  (304) 
/var/tmp/pbs.5076255.sched01/tmp8hdfbsd6/1003312lgh9.sdf

>  <i_m_source_file_index>  (304) 
19

>  <i_lp_mmshare_version>  (304) 
48012

>  <i_f3d_flags>  (304) 
0

>  <s_epik_input>  (304) 
W0NIM11bQ0BIXShbT0hdKVtDSDJdbjFbY0hdYyhbY0hdbjEpLWMoW2NIXVtjSF1bY0hdMiljKG4yMyluYyhcW2NIXW4zKT1OL2MoW2NIXVtjSF00KVtjSF1jKGM0NSlbQ0gyXVtDSDJdTihbQ0gyXVtDSDJdNSlbQ0hdNltDSDJdW0NIMl1PW0NIMl1bQ0gyXTY=

>  <s_epik_cmdline>  (304) 
J2VwaWtfcHl0aG9uJywgJy1waHQnLCAnMi4wJywgJy1waCcsICc3LjAnLCAnLXRuJywgJzgnLCAnLW1hJywgJzIwMCcsICctaW1hZScsICc8aW5maWxlLm1hZT4nLCAnLW9tYWUnLCAnPG91dGZpbGUubWFlPic=

>  <r_lp_tautomer_probability>  (304) 
1

>  <r_epik_Ionization_Penalty>  (304) 
0.0284919

>  <r_epik_Ionization_Penalty_Charging>  (304) 
0.0284912

>  <r_epik_Ionization_Penalty_Neutral>  (304) 
6.82903e-07

>  <r_epik_State_Penalty>  (304) 
0.0247207

>  <r_epik_Charging_Adjusted_Penalty>  (304) 
0.0532119

>  <i_epik_Tot_Q>  (304) 
2

>  <i_epik_Tot_abs_Q>  (304) 
2

>  <s_epik_Chemistry_Notes>  (304) 
This compound has an imine and may undergo hydrolysis.

>  <s_lp_Force_Field>  (304) 
OPLS3e

>  <r_lp_Energy>  (304) 
96.8174

>  <b_lp_Chiralities_Consistent>  (304) 
1

>  <s_lp_Variant>  (304) 
72:0-2

>  <s_i_glide_gridfile>  (304) 
pfpi4k_grid

>  <i_i_glide_lignum>  (304) 
19

>  <i_i_glide_rotatable_bonds>  (304) 
6

>  <r_i_docking_score>  (304) 
-2.16547

>  <r_i_glide_ligand_efficiency>  (304) 
-0.0585263

>  <r_i_glide_ligand_efficiency_sa>  (304) 
-0.195023

>  <r_i_glide_ligand_efficiency_ln>  (304) 
-0.46964

>  <r_i_glide_gscore>  (304) 
-2.16547

>  <r_i_glide_lipo>  (304) 
-0.435981

>  <r_i_glide_hbond>  (304) 
-0.00211261

>  <r_i_glide_metal>  (304) 
-0

>  <r_i_glide_rewards>  (304) 
0

>  <r_i_glide_evdw>  (304) 
-29.8678

>  <r_i_glide_ecoul>  (304) 
-3.66572

>  <r_i_glide_erotb>  (304) 
0.405914

>  <r_i_glide_esite>  (304) 
-0.0900423

>  <r_i_glide_emodel>  (304) 
-32.7889

>  <r_i_glide_energy>  (304) 
-33.5336

>  <r_i_glide_einternal>  (304) 
9.1571

>  <r_i_glide_intrahb_reward>  (304) 
-0

>  <i_i_glide_confnum>  (304) 
6

>  <i_i_glide_posenum>  (304) 
4

>  <r_i_glide_eff_state_penalty>  (304) 
0

>  <ligand_id>  (304) 
72

>  <original_smiles>  (304) 
CC(O)Cn1cc(-c2cccn3ncc(=Nc4ccc5c(c4)CCN(C4CCOCC4)CC5)nc23)cn1

>  <smiles>  (304) 
[H]OC([H])(C([H])([H])[H])C([H])([H])n1nc([H])c(-c2c([H])c([H])c([H])n3nc([H])c(=[N+]([H])c4c([H])c([H])c5c(c4[H])C([H])([H])C([H])([H])[N+]([H])(C4([H])C([H])([H])C([H])([H])OC([H])([H])C4([H])[H])C([H])([H])C5([H])[H])nc23)c1[H]

$$$$
72:1:1
     RDKit          3D

 72 77  0  0  1  0  0  0  0  0999 V2000
   -5.9814    6.8265    1.2261 C   0  0  0  0  0  0  0  0  0  0  0  0
   -4.6814    6.2619    1.8124 C   0  0  2  0  0  0  0  0  0  0  0  0
   -3.6440    6.8542    1.0643 O   0  0  0  0  0  0  0  0  0  0  0  0
   -4.5781    4.7152    1.8142 C   0  0  0  0  0  0  0  0  0  0  0  0
   -3.3877    4.1975    2.4879 N   0  0  0  0  0  0  0  0  0  0  0  0
   -2.1365    4.7709    2.6691 C   0  0  0  0  0  0  0  0  0  0  0  0
   -1.3683    3.8580    3.3187 C   0  0  0  0  0  0  0  0  0  0  0  0
    0.0157    4.0415    3.6864 C   0  0  0  0  0  0  0  0  0  0  0  0
    0.4494    5.2950    3.9862 C   0  0  0  0  0  0  0  0  0  0  0  0
    1.8066    5.5859    4.3859 C   0  0  0  0  0  0  0  0  0  0  0  0
    2.6783    4.5697    4.4385 C   0  0  0  0  0  0  0  0  0  0  0  0
    2.3239    3.2571    4.1320 N   0  0  0  0  0  0  0  0  0  0  0  0
    3.2916    2.3150    4.2411 N   0  0  0  0  0  0  0  0  0  0  0  0
    2.9919    1.0947    3.9408 C   0  0  0  0  0  0  0  0  0  0  0  0
    1.6290    0.7321    3.4915 C   0  0  0  0  0  0  0  0  0  0  0  0
    1.2148   -0.4487    3.1705 N   0  0  0  0  0  0  0  0  0  0  0  0
    1.8690   -1.7380    3.0857 C   0  0  0  0  0  0  0  0  0  0  0  0
    3.1840   -1.8607    2.6026 C   0  0  0  0  0  0  0  0  0  0  0  0
    3.7939   -3.1205    2.5461 C   0  0  0  0  0  0  0  0  0  0  0  0
    3.0920   -4.2777    2.9355 C   0  0  0  0  0  0  0  0  0  0  0  0
    1.7512   -4.1671    3.3854 C   0  0  0  0  0  0  0  0  0  0  0  0
    1.1476   -2.8902    3.4545 C   0  0  0  0  0  0  0  0  0  0  0  0
    0.9264   -5.3729    3.8204 C   0  0  0  0  0  0  0  0  0  0  0  0
    0.8039   -6.4962    2.7583 C   0  0  0  0  0  0  0  0  0  0  0  0
    2.0081   -7.3688    2.6551 N   0  0  2  0  0  0  0  0  0  0  0  0
    2.3446   -8.1775    3.8833 C   0  0  0  0  0  0  0  0  0  0  0  0
    3.4529   -9.2222    3.5982 C   0  0  0  0  0  0  0  0  0  0  0  0
    2.9200  -10.3269    2.6654 C   0  0  0  0  0  0  0  0  0  0  0  0
    1.7795  -10.9425    3.2566 O   0  0  0  0  0  0  0  0  0  0  0  0
    0.6890  -10.0518    3.4632 C   0  0  0  0  0  0  0  0  0  0  0  0
    1.1126   -8.9372    4.4394 C   0  0  0  0  0  0  0  0  0  0  0  0
    3.1537   -6.6852    1.9870 C   0  0  0  0  0  0  0  0  0  0  0  0
    3.8364   -5.6025    2.8564 C   0  0  0  0  0  0  0  0  0  0  0  0
    0.6666    1.7019    3.4263 N   0  0  0  0  0  0  0  0  0  0  0  0
    0.9767    2.9365    3.7302 C   0  0  0  0  0  0  0  0  0  0  0  0
   -2.1980    2.7235    3.4971 C   0  0  0  0  0  0  0  0  0  0  0  0
   -3.4115    2.9424    3.0093 N   0  0  0  0  0  0  0  0  0  0  0  0
   -6.8559    6.4123    1.7263 H   0  0  0  0  0  0  0  0  0  0  0  0
   -6.0591    6.6146    0.1585 H   0  0  0  0  0  0  0  0  0  0  0  0
   -6.0071    7.9120    1.3471 H   0  0  0  0  0  0  0  0  0  0  0  0
   -4.5861    6.6124    2.8363 H   0  0  0  0  0  0  0  0  0  0  0  0
   -2.8454    6.3632    1.1897 H   0  0  0  0  0  0  0  0  0  0  0  0
   -5.4689    4.3005    2.2933 H   0  0  0  0  0  0  0  0  0  0  0  0
   -4.6009    4.3358    0.7918 H   0  0  0  0  0  0  0  0  0  0  0  0
   -1.8544    5.7457    2.3035 H   0  0  0  0  0  0  0  0  0  0  0  0
   -0.2224    6.1369    3.9575 H   0  0  0  0  0  0  0  0  0  0  0  0
    2.1209    6.5873    4.6485 H   0  0  0  0  0  0  0  0  0  0  0  0
    3.7197    4.6984    4.7225 H   0  0  0  0  0  0  0  0  0  0  0  0
    3.7237    0.2884    4.0262 H   0  0  0  0  0  0  0  0  0  0  0  0
    3.7365   -1.0030    2.2689 H   0  0  0  0  0  0  0  0  0  0  0  0
    4.8154   -3.1795    2.2061 H   0  0  0  0  0  0  0  0  0  0  0  0
    0.1306   -2.8023    3.8041 H   0  0  0  0  0  0  0  0  0  0  0  0
    1.3092   -5.7489    4.7705 H   0  0  0  0  0  0  0  0  0  0  0  0
   -0.0845   -5.0400    4.0551 H   0  0  0  0  0  0  0  0  0  0  0  0
   -0.0760   -7.1090    2.9738 H   0  0  0  0  0  0  0  0  0  0  0  0
    0.5852   -6.0731    1.7716 H   0  0  0  0  0  0  0  0  0  0  0  0
    2.7018   -7.4996    4.6613 H   0  0  0  0  0  0  0  0  0  0  0  0
    4.3639   -8.7803    3.1897 H   0  0  0  0  0  0  0  0  0  0  0  0
    3.7719   -9.6705    4.5405 H   0  0  0  0  0  0  0  0  0  0  0  0
    2.6605   -9.9277    1.6825 H   0  0  0  0  0  0  0  0  0  0  0  0
    3.6899  -11.0790    2.4997 H   0  0  0  0  0  0  0  0  0  0  0  0
    0.3616   -9.6428    2.5048 H   0  0  0  0  0  0  0  0  0  0  0  0
   -0.1561  -10.6049    3.8700 H   0  0  0  0  0  0  0  0  0  0  0  0
    1.3689   -9.3821    5.4027 H   0  0  0  0  0  0  0  0  0  0  0  0
    0.2709   -8.2789    4.6654 H   0  0  0  0  0  0  0  0  0  0  0  0
    3.8984   -7.4244    1.6807 H   0  0  0  0  0  0  0  0  0  0  0  0
    2.8157   -6.2537    1.0372 H   0  0  0  0  0  0  0  0  0  0  0  0
    4.8180   -5.4210    2.4177 H   0  0  0  0  0  0  0  0  0  0  0  0
    4.0507   -5.9562    3.8648 H   0  0  0  0  0  0  0  0  0  0  0  0
   -1.9753    1.7837    3.9741 H   0  0  0  0  0  0  0  0  0  0  0  0
    0.2215   -0.4670    2.9766 H   0  0  0  0  0  0  0  0  0  0  0  0
    1.7332   -8.0867    1.9916 H   0  0  0  0  0  0  0  0  0  0  0  0
  1  2  1  0
  1 38  1  0
  1 39  1  0
  1 40  1  0
  2  3  1  0
  2  4  1  0
  2 41  1  1
  3 42  1  0
  4  5  1  0
  4 43  1  0
  4 44  1  0
  5 37  1  0
  5  6  1  0
  6  7  2  0
  6 45  1  0
  7  8  1  0
  7 36  1  0
  8 35  1  0
  8  9  2  0
  9 10  1  0
  9 46  1  0
 10 11  2  0
 10 47  1  0
 11 12  1  0
 11 48  1  0
 12 35  1  0
 12 13  1  0
 13 14  2  0
 14 15  1  0
 14 49  1  0
 15 16  2  3
 15 34  1  0
 16 17  1  0
 16 71  1  0
 17 22  1  0
 17 18  2  0
 18 19  1  0
 18 50  1  0
 19 20  2  0
 19 51  1  0
 20 33  1  0
 20 21  1  0
 21 22  2  0
 21 23  1  0
 22 52  1  0
 23 24  1  0
 23 53  1  0
 23 54  1  0
 24 25  1  0
 24 55  1  0
 24 56  1  0
 25 26  1  0
 25 32  1  0
 25 72  1  6
 26 31  1  0
 26 27  1  0
 26 57  1  0
 27 28  1  0
 27 58  1  0
 27 59  1  0
 28 29  1  0
 28 60  1  0
 28 61  1  0
 29 30  1  0
 30 31  1  0
 30 62  1  0
 30 63  1  0
 31 64  1  0
 31 65  1  0
 32 33  1  0
 32 66  1  0
 32 67  1  0
 33 68  1  0
 33 69  1  0
 34 35  2  0
 36 37  2  0
 36 70  1  0
M  CHG  2  16   1  25   1
M  END
>  <i_m_ct_stereo_status>  (305) 
1

>  <s_m_source_file>  (305) 
/var/tmp/pbs.5076255.sched01/tmp8hdfbsd6/1003312lgh9.sdf

>  <i_m_source_file_index>  (305) 
19

>  <i_lp_mmshare_version>  (305) 
48012

>  <i_f3d_flags>  (305) 
0

>  <s_epik_input>  (305) 
W0NIM11bQ0BIXShbT0hdKVtDSDJdbjFbY0hdYyhbY0hdbjEpLWMoW2NIXVtjSF1bY0hdMiljKG4yMyluYyhcW2NIXW4zKT1OL2MoW2NIXVtjSF00KVtjSF1jKGM0NSlbQ0gyXVtDSDJdTihbQ0gyXVtDSDJdNSlbQ0hdNltDSDJdW0NIMl1PW0NIMl1bQ0gyXTY=

>  <s_epik_cmdline>  (305) 
J2VwaWtfcHl0aG9uJywgJy1waHQnLCAnMi4wJywgJy1waCcsICc3LjAnLCAnLXRuJywgJzgnLCAnLW1hJywgJzIwMCcsICctaW1hZScsICc8aW5maWxlLm1hZT4nLCAnLW9tYWUnLCAnPG91dGZpbGUubWFlPic=

>  <r_lp_tautomer_probability>  (305) 
1

>  <r_epik_Ionization_Penalty>  (305) 
0.0284919

>  <r_epik_Ionization_Penalty_Charging>  (305) 
0.0284912

>  <r_epik_Ionization_Penalty_Neutral>  (305) 
6.82903e-07

>  <r_epik_State_Penalty>  (305) 
0.0247207

>  <r_epik_Charging_Adjusted_Penalty>  (305) 
0.0532119

>  <i_epik_Tot_Q>  (305) 
2

>  <i_epik_Tot_abs_Q>  (305) 
2

>  <s_epik_Chemistry_Notes>  (305) 
This compound has an imine and may undergo hydrolysis.

>  <s_lp_Force_Field>  (305) 
OPLS3e

>  <r_lp_Energy>  (305) 
96.8174

>  <b_lp_Chiralities_Consistent>  (305) 
1

>  <s_lp_Variant>  (305) 
72:0-2

>  <s_i_glide_gridfile>  (305) 
pfpi4k_grid

>  <i_i_glide_lignum>  (305) 
19

>  <i_i_glide_rotatable_bonds>  (305) 
6

>  <r_i_docking_score>  (305) 
-1.89835

>  <r_i_glide_ligand_efficiency>  (305) 
-0.0513068

>  <r_i_glide_ligand_efficiency_sa>  (305) 
-0.170966

>  <r_i_glide_ligand_efficiency_ln>  (305) 
-0.411708

>  <r_i_glide_gscore>  (305) 
-1.89835

>  <r_i_glide_lipo>  (305) 
-0.458463

>  <r_i_glide_hbond>  (305) 
0

>  <r_i_glide_metal>  (305) 
-0

>  <r_i_glide_rewards>  (305) 
0

>  <r_i_glide_evdw>  (305) 
-31.6696

>  <r_i_glide_ecoul>  (305) 
-0.962254

>  <r_i_glide_erotb>  (305) 
0.405914

>  <r_i_glide_esite>  (305) 
-0.117985

>  <r_i_glide_emodel>  (305) 
-32.8189

>  <r_i_glide_energy>  (305) 
-32.6319

>  <r_i_glide_einternal>  (305) 
6.71196

>  <r_i_glide_intrahb_reward>  (305) 
-0

>  <i_i_glide_confnum>  (305) 
6

>  <i_i_glide_posenum>  (305) 
1

>  <r_i_glide_eff_state_penalty>  (305) 
0

>  <ligand_id>  (305) 
72

>  <original_smiles>  (305) 
CC(O)Cn1cc(-c2cccn3ncc(=Nc4ccc5c(c4)CCN(C4CCOCC4)CC5)nc23)cn1

>  <smiles>  (305) 
[H]OC([H])(C([H])([H])[H])C([H])([H])n1nc([H])c(-c2c([H])c([H])c([H])n3nc([H])c(=[N+]([H])c4c([H])c([H])c5c(c4[H])C([H])([H])C([H])([H])[N+]([H])(C4([H])C([H])([H])C([H])([H])OC([H])([H])C4([H])[H])C([H])([H])C5([H])[H])nc23)c1[H]

$$$$
72:2:0
     RDKit          3D

 71 76  0  0  1  0  0  0  0  0999 V2000
    7.7524   -0.1792    7.0153 C   0  0  0  0  0  0  0  0  0  0  0  0
    6.3632    0.3583    7.3631 C   0  0  2  0  0  0  0  0  0  0  0  0
    5.7297   -0.5824    8.2113 O   0  0  0  0  0  0  0  0  0  0  0  0
    5.4900    0.6435    6.1170 C   0  0  0  0  0  0  0  0  0  0  0  0
    4.2234    1.3008    6.4071 N   0  0  0  0  0  0  0  0  0  0  0  0
    3.0815    1.3027    5.6389 C   0  0  0  0  0  0  0  0  0  0  0  0
    2.1701    2.0910    6.2936 C   0  0  0  0  0  0  0  0  0  0  0  0
    0.8157    2.4465    5.9068 C   0  0  0  0  0  0  0  0  0  0  0  0
    0.0580    3.1660    6.7677 C   0  0  0  0  0  0  0  0  0  0  0  0
   -1.2958    3.5753    6.4854 C   0  0  0  0  0  0  0  0  0  0  0  0
   -1.8074    3.2295    5.2964 C   0  0  0  0  0  0  0  0  0  0  0  0
   -1.1026    2.5083    4.3548 N   0  0  0  0  0  0  0  0  0  0  0  0
   -1.7295    2.2480    3.1967 N   0  0  0  0  0  0  0  0  0  0  0  0
   -1.0980    1.5675    2.2874 C   0  0  0  0  0  0  0  0  0  0  0  0
    0.2539    1.0784    2.5195 C   0  0  0  0  0  0  0  0  0  0  0  0
    0.9161    0.3320    1.6655 N   0  0  0  0  0  0  0  0  0  0  0  0
    2.1931   -0.3179    1.7755 C   0  0  0  0  0  0  0  0  0  0  0  0
    3.3936    0.4111    1.7382 C   0  0  0  0  0  0  0  0  0  0  0  0
    4.6277   -0.2759    1.7728 C   0  0  0  0  0  0  0  0  0  0  0  0
    4.6782   -1.6833    1.8605 C   0  0  0  0  0  0  0  0  0  0  0  0
    3.4636   -2.4140    1.8855 C   0  0  0  0  0  0  0  0  0  0  0  0
    2.2328   -1.7242    1.8333 C   0  0  0  0  0  0  0  0  0  0  0  0
    3.4306   -3.9311    1.9744 C   0  0  0  0  0  0  0  0  0  0  0  0
    4.2404   -4.6525    0.8801 C   0  0  0  0  0  0  0  0  0  0  0  0
    5.6811   -4.7152    1.1507 N   0  0  0  0  0  0  0  0  0  0  0  0
    6.1322   -5.4823    2.3402 C   0  0  0  0  0  0  0  0  0  0  0  0
    7.6288   -5.8785    2.2265 C   0  0  0  0  0  0  0  0  0  0  0  0
    7.8141   -6.9747    1.1660 C   0  0  0  0  0  0  0  0  0  0  0  0
    7.0282   -8.1202    1.4793 O   0  0  0  0  0  0  0  0  0  0  0  0
    5.6363   -7.8354    1.4874 C   0  0  0  0  0  0  0  0  0  0  0  0
    5.3271   -6.7917    2.5791 C   0  0  0  0  0  0  0  0  0  0  0  0
    6.3374   -3.4267    0.9064 C   0  0  0  0  0  0  0  0  0  0  0  0
    6.0460   -2.3440    1.9600 C   0  0  0  0  0  0  0  0  0  0  0  0
    0.8538    1.3733    3.7056 N   0  0  0  0  0  0  0  0  0  0  0  0
    0.2309    2.0718    4.6132 C   0  0  0  0  0  0  0  0  0  0  0  0
    2.8510    2.5355    7.4663 C   0  0  0  0  0  0  0  0  0  0  0  0
    4.0901    2.0865    7.5006 N   0  0  0  0  0  0  0  0  0  0  0  0
    8.2911    0.5421    6.3990 H   0  0  0  0  0  0  0  0  0  0  0  0
    7.6933   -1.1241    6.4781 H   0  0  0  0  0  0  0  0  0  0  0  0
    8.3396   -0.3431    7.9196 H   0  0  0  0  0  0  0  0  0  0  0  0
    6.5115    1.2804    7.9252 H   0  0  0  0  0  0  0  0  0  0  0  0
    5.6159   -1.3920    7.7418 H   0  0  0  0  0  0  0  0  0  0  0  0
    6.0385    1.2755    5.4176 H   0  0  0  0  0  0  0  0  0  0  0  0
    5.2862   -0.2873    5.5870 H   0  0  0  0  0  0  0  0  0  0  0  0
    3.0430    0.7528    4.7132 H   0  0  0  0  0  0  0  0  0  0  0  0
    0.4351    3.4751    7.7355 H   0  0  0  0  0  0  0  0  0  0  0  0
   -1.8749    4.1418    7.2124 H   0  0  0  0  0  0  0  0  0  0  0  0
   -2.8167    3.5021    5.0248 H   0  0  0  0  0  0  0  0  0  0  0  0
   -1.5361    1.3189    1.3214 H   0  0  0  0  0  0  0  0  0  0  0  0
    3.3763    1.4903    1.6706 H   0  0  0  0  0  0  0  0  0  0  0  0
    5.5647    0.2650    1.7452 H   0  0  0  0  0  0  0  0  0  0  0  0
    1.3101   -2.2774    1.8369 H   0  0  0  0  0  0  0  0  0  0  0  0
    3.7216   -4.2376    2.9811 H   0  0  0  0  0  0  0  0  0  0  0  0
    2.3968   -4.2560    1.8622 H   0  0  0  0  0  0  0  0  0  0  0  0
    3.8597   -5.6647    0.7647 H   0  0  0  0  0  0  0  0  0  0  0  0
    4.0618   -4.2164   -0.1096 H   0  0  0  0  0  0  0  0  0  0  0  0
    6.0085   -4.8637    3.2321 H   0  0  0  0  0  0  0  0  0  0  0  0
    8.3065   -5.0469    2.0256 H   0  0  0  0  0  0  0  0  0  0  0  0
    7.9758   -6.2620    3.1860 H   0  0  0  0  0  0  0  0  0  0  0  0
    7.5725   -6.5961    0.1742 H   0  0  0  0  0  0  0  0  0  0  0  0
    8.8545   -7.2616    1.1187 H   0  0  0  0  0  0  0  0  0  0  0  0
    5.3382   -7.4808    0.4999 H   0  0  0  0  0  0  0  0  0  0  0  0
    5.0763   -8.7528    1.6673 H   0  0  0  0  0  0  0  0  0  0  0  0
    5.5974   -7.2085    3.5509 H   0  0  0  0  0  0  0  0  0  0  0  0
    4.2514   -6.6320    2.6736 H   0  0  0  0  0  0  0  0  0  0  0  0
    7.4127   -3.5746    0.8490 H   0  0  0  0  0  0  0  0  0  0  0  0
    6.0666   -3.0708   -0.0901 H   0  0  0  0  0  0  0  0  0  0  0  0
    6.8101   -1.5747    1.8325 H   0  0  0  0  0  0  0  0  0  0  0  0
    6.1841   -2.7146    2.9750 H   0  0  0  0  0  0  0  0  0  0  0  0
    2.5289    3.1745    8.2795 H   0  0  0  0  0  0  0  0  0  0  0  0
    0.4539    0.1255    0.7725 H   0  0  0  0  0  0  0  0  0  0  0  0
  1  2  1  0
  1 38  1  0
  1 39  1  0
  1 40  1  0
  2  3  1  0
  2  4  1  0
  2 41  1  1
  3 42  1  0
  4  5  1  0
  4 43  1  0
  4 44  1  0
  5 37  1  0
  5  6  1  0
  6  7  2  0
  6 45  1  0
  7  8  1  0
  7 36  1  0
  8 35  1  0
  8  9  2  0
  9 10  1  0
  9 46  1  0
 10 11  2  0
 10 47  1  0
 11 12  1  0
 11 48  1  0
 12 35  1  0
 12 13  1  0
 13 14  2  0
 14 15  1  0
 14 49  1  0
 15 16  2  3
 15 34  1  0
 16 17  1  0
 16 71  1  0
 17 22  1  0
 17 18  2  0
 18 19  1  0
 18 50  1  0
 19 20  2  0
 19 51  1  0
 20 33  1  0
 20 21  1  0
 21 22  2  0
 21 23  1  0
 22 52  1  0
 23 24  1  0
 23 53  1  0
 23 54  1  0
 24 25  1  0
 24 55  1  0
 24 56  1  0
 25 26  1  0
 25 32  1  0
 26 31  1  0
 26 27  1  0
 26 57  1  0
 27 28  1  0
 27 58  1  0
 27 59  1  0
 28 29  1  0
 28 60  1  0
 28 61  1  0
 29 30  1  0
 30 31  1  0
 30 62  1  0
 30 63  1  0
 31 64  1  0
 31 65  1  0
 32 33  1  0
 32 66  1  0
 32 67  1  0
 33 68  1  0
 33 69  1  0
 34 35  2  0
 36 37  2  0
 36 70  1  0
M  CHG  1  16   1
M  END
>  <i_m_ct_stereo_status>  (306) 
1

>  <s_m_source_file>  (306) 
/var/tmp/pbs.5076255.sched01/tmp8hdfbsd6/1003312lgh9.sdf

>  <i_m_source_file_index>  (306) 
20

>  <i_lp_mmshare_version>  (306) 
48012

>  <i_f3d_flags>  (306) 
0

>  <s_epik_input>  (306) 
W0NIM11bQ0BIXShbT0hdKVtDSDJdbjFbY0hdYyhbY0hdbjEpLWMoW2NIXVtjSF1bY0hdMiljKG4yMyluYyhcW2NIXW4zKT1OL2MoW2NIXVtjSF00KVtjSF1jKGM0NSlbQ0gyXVtDSDJdTihbQ0gyXVtDSDJdNSlbQ0hdNltDSDJdW0NIMl1PW0NIMl1bQ0gyXTY=

>  <s_epik_cmdline>  (306) 
J2VwaWtfcHl0aG9uJywgJy1waHQnLCAnMi4wJywgJy1waCcsICc3LjAnLCAnLXRuJywgJzgnLCAnLW1hJywgJzIwMCcsICctaW1hZScsICc8aW5maWxlLm1hZT4nLCAnLW9tYWUnLCAnPG91dGZpbGUubWFlPic=

>  <r_lp_tautomer_probability>  (306) 
1

>  <r_epik_Ionization_Penalty>  (306) 
1.8344

>  <r_epik_Ionization_Penalty_Charging>  (306) 
0.00102284

>  <r_epik_Ionization_Penalty_Neutral>  (306) 
1.83338

>  <r_epik_State_Penalty>  (306) 
1.95177

>  <r_epik_Charging_Adjusted_Penalty>  (306) 
1.95279

>  <i_epik_Tot_Q>  (306) 
1

>  <i_epik_Tot_abs_Q>  (306) 
1

>  <s_epik_Chemistry_Notes>  (306) 
This compound has an imine and may undergo hydrolysis.

>  <s_lp_Force_Field>  (306) 
OPLS3e

>  <r_lp_Energy>  (306) 
91.3897

>  <b_lp_Chiralities_Consistent>  (306) 
1

>  <s_lp_Variant>  (306) 
72:0-3

>  <s_i_glide_gridfile>  (306) 
pfpi4k_grid

>  <i_i_glide_lignum>  (306) 
20

>  <i_i_glide_rotatable_bonds>  (306) 
6

>  <r_i_docking_score>  (306) 
-3.01541

>  <r_i_glide_ligand_efficiency>  (306) 
-0.0814976

>  <r_i_glide_ligand_efficiency_sa>  (306) 
-0.271568

>  <r_i_glide_ligand_efficiency_ln>  (306) 
-0.653972

>  <r_i_glide_gscore>  (306) 
-3.01541

>  <r_i_glide_lipo>  (306) 
-0.710882

>  <r_i_glide_hbond>  (306) 
-0.274419

>  <r_i_glide_metal>  (306) 
-0

>  <r_i_glide_rewards>  (306) 
-0.000568362

>  <r_i_glide_evdw>  (306) 
-26.3447

>  <r_i_glide_ecoul>  (306) 
-6.58326

>  <r_i_glide_erotb>  (306) 
0.407414

>  <r_i_glide_esite>  (306) 
-0.132232

>  <r_i_glide_emodel>  (306) 
-37.897

>  <r_i_glide_energy>  (306) 
-32.9279

>  <r_i_glide_einternal>  (306) 
5.10769

>  <r_i_glide_intrahb_reward>  (306) 
-0

>  <i_i_glide_confnum>  (306) 
6

>  <i_i_glide_posenum>  (306) 
1

>  <r_i_glide_eff_state_penalty>  (306) 
0

>  <ligand_id>  (306) 
72

>  <original_smiles>  (306) 
CC(O)Cn1cc(-c2cccn3ncc(=Nc4ccc5c(c4)CCN(C4CCOCC4)CC5)nc23)cn1

>  <smiles>  (306) 
[H]OC([H])(C([H])([H])[H])C([H])([H])n1nc([H])c(-c2c([H])c([H])c([H])n3nc([H])c(=[N+]([H])c4c([H])c([H])c5c(c4[H])C([H])([H])C([H])([H])N(C4([H])C([H])([H])C([H])([H])OC([H])([H])C4([H])[H])C([H])([H])C5([H])[H])nc23)c1[H]

$$$$
72:2:1
     RDKit          3D

 71 76  0  0  1  0  0  0  0  0999 V2000
    5.7409    0.3034    4.7649 C   0  0  0  0  0  0  0  0  0  0  0  0
    5.8983    0.2138    6.2746 C   0  0  2  0  0  0  0  0  0  0  0  0
    7.2073   -0.2546    6.5125 O   0  0  0  0  0  0  0  0  0  0  0  0
    4.8738   -0.7528    6.9038 C   0  0  0  0  0  0  0  0  0  0  0  0
    3.6032   -0.1025    7.1652 N   0  0  0  0  0  0  0  0  0  0  0  0
    2.6198    0.2571    6.2723 C   0  0  0  0  0  0  0  0  0  0  0  0
    1.6383    0.8718    6.9908 C   0  0  0  0  0  0  0  0  0  0  0  0
    0.3930    1.4724    6.5094 C   0  0  0  0  0  0  0  0  0  0  0  0
   -0.4298    2.0676    7.4144 C   0  0  0  0  0  0  0  0  0  0  0  0
   -1.6748    2.6979    7.0378 C   0  0  0  0  0  0  0  0  0  0  0  0
   -2.0123    2.7010    5.7478 C   0  0  0  0  0  0  0  0  0  0  0  0
   -1.2211    2.1203    4.7633 N   0  0  0  0  0  0  0  0  0  0  0  0
   -1.6726    2.2143    3.5042 N   0  0  0  0  0  0  0  0  0  0  0  0
   -0.9779    1.6792    2.5510 C   0  0  0  0  0  0  0  0  0  0  0  0
    0.2805    0.9738    2.8301 C   0  0  0  0  0  0  0  0  0  0  0  0
    0.9812    0.3869    1.9261 N   0  0  0  0  0  0  0  0  0  0  0  0
    2.1702   -0.4461    2.0524 C   0  0  0  0  0  0  0  0  0  0  0  0
    3.4461    0.1349    2.0584 C   0  0  0  0  0  0  0  0  0  0  0  0
    4.5866   -0.7008    2.0676 C   0  0  0  0  0  0  0  0  0  0  0  0
    4.4654   -2.1058    2.1679 C   0  0  0  0  0  0  0  0  0  0  0  0
    3.1716   -2.6851    2.1421 C   0  0  0  0  0  0  0  0  0  0  0  0
    2.0337   -1.8425    2.0831 C   0  0  0  0  0  0  0  0  0  0  0  0
    2.9601   -4.1918    2.1614 C   0  0  0  0  0  0  0  0  0  0  0  0
    3.7378   -4.9618    1.0711 C   0  0  0  0  0  0  0  0  0  0  0  0
    5.1511   -5.2021    1.3904 N   0  0  0  0  0  0  0  0  0  0  0  0
    5.4532   -6.0679    2.5642 C   0  0  0  0  0  0  0  0  0  0  0  0
    6.9619   -6.4400    2.6604 C   0  0  0  0  0  0  0  0  0  0  0  0
    7.3553   -7.4171    1.5361 C   0  0  0  0  0  0  0  0  0  0  0  0
    6.5592   -8.5963    1.6034 O   0  0  0  0  0  0  0  0  0  0  0  0
    5.1690   -8.3412    1.4318 C   0  0  0  0  0  0  0  0  0  0  0  0
    4.6583   -7.4081    2.5489 C   0  0  0  0  0  0  0  0  0  0  0  0
    5.9514   -3.9837    1.2259 C   0  0  0  0  0  0  0  0  0  0  0  0
    5.7392   -2.9350    2.3273 C   0  0  0  0  0  0  0  0  0  0  0  0
    0.6879    0.9217    4.1357 N   0  0  0  0  0  0  0  0  0  0  0  0
   -0.0054    1.4760    5.0935 C   0  0  0  0  0  0  0  0  0  0  0  0
    2.0954    0.8216    8.3442 C   0  0  0  0  0  0  0  0  0  0  0  0
    3.2795    0.2370    8.4338 N   0  0  0  0  0  0  0  0  0  0  0  0
    4.7563    0.6788    4.4920 H   0  0  0  0  0  0  0  0  0  0  0  0
    5.8587   -0.7054    4.3737 H   0  0  0  0  0  0  0  0  0  0  0  0
    6.4782    0.9405    4.2792 H   0  0  0  0  0  0  0  0  0  0  0  0
    5.8059    1.2093    6.7083 H   0  0  0  0  0  0  0  0  0  0  0  0
    7.8123    0.3972    6.1863 H   0  0  0  0  0  0  0  0  0  0  0  0
    4.7007   -1.6234    6.2674 H   0  0  0  0  0  0  0  0  0  0  0  0
    5.2655   -1.1435    7.8437 H   0  0  0  0  0  0  0  0  0  0  0  0
    2.7310    0.0466    5.2218 H   0  0  0  0  0  0  0  0  0  0  0  0
   -0.1885    2.1149    8.4638 H   0  0  0  0  0  0  0  0  0  0  0  0
   -2.3125    3.1689    7.7989 H   0  0  0  0  0  0  0  0  0  0  0  0
   -2.9298    3.1591    5.4125 H   0  0  0  0  0  0  0  0  0  0  0  0
   -1.2641    1.6952    1.5025 H   0  0  0  0  0  0  0  0  0  0  0  0
    3.5695    1.2096    2.0528 H   0  0  0  0  0  0  0  0  0  0  0  0
    5.5773   -0.2566    2.0720 H   0  0  0  0  0  0  0  0  0  0  0  0
    1.0498   -2.2763    2.0306 H   0  0  0  0  0  0  0  0  0  0  0  0
    3.1572   -4.5793    3.1628 H   0  0  0  0  0  0  0  0  0  0  0  0
    1.9033   -4.3832    1.9829 H   0  0  0  0  0  0  0  0  0  0  0  0
    3.2432   -5.9148    0.8854 H   0  0  0  0  0  0  0  0  0  0  0  0
    3.6613   -4.4625    0.0993 H   0  0  0  0  0  0  0  0  0  0  0  0
    5.1807   -5.5335    3.4777 H   0  0  0  0  0  0  0  0  0  0  0  0
    7.6446   -5.5869    2.6856 H   0  0  0  0  0  0  0  0  0  0  0  0
    7.1472   -6.9247    3.6192 H   0  0  0  0  0  0  0  0  0  0  0  0
    7.2458   -6.9423    0.5603 H   0  0  0  0  0  0  0  0  0  0  0  0
    8.4041   -7.6951    1.6257 H   0  0  0  0  0  0  0  0  0  0  0  0
    4.9989   -7.9022    0.4482 H   0  0  0  0  0  0  0  0  0  0  0  0
    4.6241   -9.2860    1.4457 H   0  0  0  0  0  0  0  0  0  0  0  0
    4.7944   -7.9127    3.5063 H   0  0  0  0  0  0  0  0  0  0  0  0
    3.5735   -7.2917    2.4927 H   0  0  0  0  0  0  0  0  0  0  0  0
    7.0077   -4.2362    1.1716 H   0  0  0  0  0  0  0  0  0  0  0  0
    5.7520   -3.5449    0.2456 H   0  0  0  0  0  0  0  0  0  0  0  0
    6.5950   -2.2610    2.2827 H   0  0  0  0  0  0  0  0  0  0  0  0
    5.7854   -3.3705    3.3287 H   0  0  0  0  0  0  0  0  0  0  0  0
    1.6420    1.1780    9.2635 H   0  0  0  0  0  0  0  0  0  0  0  0
    0.6048    0.3639    0.9749 H   0  0  0  0  0  0  0  0  0  0  0  0
  1  2  1  0
  1 38  1  0
  1 39  1  0
  1 40  1  0
  2  3  1  0
  2  4  1  0
  2 41  1  1
  3 42  1  0
  4  5  1  0
  4 43  1  0
  4 44  1  0
  5 37  1  0
  5  6  1  0
  6  7  2  0
  6 45  1  0
  7  8  1  0
  7 36  1  0
  8 35  1  0
  8  9  2  0
  9 10  1  0
  9 46  1  0
 10 11  2  0
 10 47  1  0
 11 12  1  0
 11 48  1  0
 12 35  1  0
 12 13  1  0
 13 14  2  0
 14 15  1  0
 14 49  1  0
 15 16  2  3
 15 34  1  0
 16 17  1  0
 16 71  1  0
 17 22  1  0
 17 18  2  0
 18 19  1  0
 18 50  1  0
 19 20  2  0
 19 51  1  0
 20 33  1  0
 20 21  1  0
 21 22  2  0
 21 23  1  0
 22 52  1  0
 23 24  1  0
 23 53  1  0
 23 54  1  0
 24 25  1  0
 24 55  1  0
 24 56  1  0
 25 26  1  0
 25 32  1  0
 26 31  1  0
 26 27  1  0
 26 57  1  0
 27 28  1  0
 27 58  1  0
 27 59  1  0
 28 29  1  0
 28 60  1  0
 28 61  1  0
 29 30  1  0
 30 31  1  0
 30 62  1  0
 30 63  1  0
 31 64  1  0
 31 65  1  0
 32 33  1  0
 32 66  1  0
 32 67  1  0
 33 68  1  0
 33 69  1  0
 34 35  2  0
 36 37  2  0
 36 70  1  0
M  CHG  1  16   1
M  END
>  <i_m_ct_stereo_status>  (307) 
1

>  <s_m_source_file>  (307) 
/var/tmp/pbs.5076255.sched01/tmp8hdfbsd6/1003312lgh9.sdf

>  <i_m_source_file_index>  (307) 
20

>  <i_lp_mmshare_version>  (307) 
48012

>  <i_f3d_flags>  (307) 
0

>  <s_epik_input>  (307) 
W0NIM11bQ0BIXShbT0hdKVtDSDJdbjFbY0hdYyhbY0hdbjEpLWMoW2NIXVtjSF1bY0hdMiljKG4yMyluYyhcW2NIXW4zKT1OL2MoW2NIXVtjSF00KVtjSF1jKGM0NSlbQ0gyXVtDSDJdTihbQ0gyXVtDSDJdNSlbQ0hdNltDSDJdW0NIMl1PW0NIMl1bQ0gyXTY=

>  <s_epik_cmdline>  (307) 
J2VwaWtfcHl0aG9uJywgJy1waHQnLCAnMi4wJywgJy1waCcsICc3LjAnLCAnLXRuJywgJzgnLCAnLW1hJywgJzIwMCcsICctaW1hZScsICc8aW5maWxlLm1hZT4nLCAnLW9tYWUnLCAnPG91dGZpbGUubWFlPic=

>  <r_lp_tautomer_probability>  (307) 
1

>  <r_epik_Ionization_Penalty>  (307) 
1.8344

>  <r_epik_Ionization_Penalty_Charging>  (307) 
0.00102284

>  <r_epik_Ionization_Penalty_Neutral>  (307) 
1.83338

>  <r_epik_State_Penalty>  (307) 
1.95177

>  <r_epik_Charging_Adjusted_Penalty>  (307) 
1.95279

>  <i_epik_Tot_Q>  (307) 
1

>  <i_epik_Tot_abs_Q>  (307) 
1

>  <s_epik_Chemistry_Notes>  (307) 
This compound has an imine and may undergo hydrolysis.

>  <s_lp_Force_Field>  (307) 
OPLS3e

>  <r_lp_Energy>  (307) 
91.3897

>  <b_lp_Chiralities_Consistent>  (307) 
1

>  <s_lp_Variant>  (307) 
72:0-3

>  <s_i_glide_gridfile>  (307) 
pfpi4k_grid

>  <i_i_glide_lignum>  (307) 
20

>  <i_i_glide_rotatable_bonds>  (307) 
6

>  <r_i_docking_score>  (307) 
-2.84724

>  <r_i_glide_ligand_efficiency>  (307) 
-0.0769525

>  <r_i_glide_ligand_efficiency_sa>  (307) 
-0.256423

>  <r_i_glide_ligand_efficiency_ln>  (307) 
-0.6175

>  <r_i_glide_gscore>  (307) 
-2.84724

>  <r_i_glide_lipo>  (307) 
-0.610077

>  <r_i_glide_hbond>  (307) 
-0.0979028

>  <r_i_glide_metal>  (307) 
-0

>  <r_i_glide_rewards>  (307) 
0

>  <r_i_glide_evdw>  (307) 
-28.9904

>  <r_i_glide_ecoul>  (307) 
-6.67171

>  <r_i_glide_erotb>  (307) 
0.407414

>  <r_i_glide_esite>  (307) 
-0.096399

>  <r_i_glide_emodel>  (307) 
-38.5052

>  <r_i_glide_energy>  (307) 
-35.6621

>  <r_i_glide_einternal>  (307) 
7.87128

>  <r_i_glide_intrahb_reward>  (307) 
-0

>  <i_i_glide_confnum>  (307) 
6

>  <i_i_glide_posenum>  (307) 
3

>  <r_i_glide_eff_state_penalty>  (307) 
0

>  <ligand_id>  (307) 
72

>  <original_smiles>  (307) 
CC(O)Cn1cc(-c2cccn3ncc(=Nc4ccc5c(c4)CCN(C4CCOCC4)CC5)nc23)cn1

>  <smiles>  (307) 
[H]OC([H])(C([H])([H])[H])C([H])([H])n1nc([H])c(-c2c([H])c([H])c([H])n3nc([H])c(=[N+]([H])c4c([H])c([H])c5c(c4[H])C([H])([H])C([H])([H])N(C4([H])C([H])([H])C([H])([H])OC([H])([H])C4([H])[H])C([H])([H])C5([H])[H])nc23)c1[H]

$$$$
72:2:2
     RDKit          3D

 71 76  0  0  1  0  0  0  0  0999 V2000
    6.4786   -2.2093    7.1532 C   0  0  0  0  0  0  0  0  0  0  0  0
    5.1225   -1.5658    7.4704 C   0  0  2  0  0  0  0  0  0  0  0  0
    4.1125   -2.4445    7.0205 O   0  0  0  0  0  0  0  0  0  0  0  0
    4.9549   -0.1848    6.8080 C   0  0  0  0  0  0  0  0  0  0  0  0
    3.6788    0.4428    7.1018 N   0  0  0  0  0  0  0  0  0  0  0  0
    2.6437    0.7026    6.2348 C   0  0  0  0  0  0  0  0  0  0  0  0
    1.6745    1.3369    6.9581 C   0  0  0  0  0  0  0  0  0  0  0  0
    0.3794    1.8524    6.5064 C   0  0  0  0  0  0  0  0  0  0  0  0
   -0.4285    2.4632    7.4170 C   0  0  0  0  0  0  0  0  0  0  0  0
   -1.7203    3.0101    7.0680 C   0  0  0  0  0  0  0  0  0  0  0  0
   -2.1185    2.9184    5.8002 C   0  0  0  0  0  0  0  0  0  0  0  0
   -1.3413    2.3205    4.8162 N   0  0  0  0  0  0  0  0  0  0  0  0
   -1.8530    2.3186    3.5778 N   0  0  0  0  0  0  0  0  0  0  0  0
   -1.1838    1.7489    2.6272 C   0  0  0  0  0  0  0  0  0  0  0  0
    0.1185    1.1258    2.8760 C   0  0  0  0  0  0  0  0  0  0  0  0
    0.8054    0.5223    1.9720 N   0  0  0  0  0  0  0  0  0  0  0  0
    2.0435   -0.2486    2.0929 C   0  0  0  0  0  0  0  0  0  0  0  0
    3.2900    0.3988    2.1874 C   0  0  0  0  0  0  0  0  0  0  0  0
    4.4731   -0.3730    2.2438 C   0  0  0  0  0  0  0  0  0  0  0  0
    4.4247   -1.7852    2.2128 C   0  0  0  0  0  0  0  0  0  0  0  0
    3.1657   -2.4322    2.1095 C   0  0  0  0  0  0  0  0  0  0  0  0
    1.9845   -1.6510    2.0568 C   0  0  0  0  0  0  0  0  0  0  0  0
    3.0275   -3.9469    2.0549 C   0  0  0  0  0  0  0  0  0  0  0  0
    3.8508   -4.6301    0.9435 C   0  0  0  0  0  0  0  0  0  0  0  0
    5.2682   -4.8111    1.2761 N   0  0  0  0  0  0  0  0  0  0  0  0
    5.6037   -5.7069    2.4170 C   0  0  0  0  0  0  0  0  0  0  0  0
    7.1133   -6.0844    2.4435 C   0  0  0  0  0  0  0  0  0  0  0  0
    7.4597   -7.0466    1.2931 C   0  0  0  0  0  0  0  0  0  0  0  0
    6.6545   -8.2200    1.3670 O   0  0  0  0  0  0  0  0  0  0  0  0
    5.2606   -7.9506    1.2514 C   0  0  0  0  0  0  0  0  0  0  0  0
    4.8027   -7.0421    2.4086 C   0  0  0  0  0  0  0  0  0  0  0  0
    6.0078   -3.5487    1.1779 C   0  0  0  0  0  0  0  0  0  0  0  0
    5.7386   -2.5547    2.3220 C   0  0  0  0  0  0  0  0  0  0  0  0
    0.5857    1.1707    4.1577 N   0  0  0  0  0  0  0  0  0  0  0  0
   -0.0837    1.7500    5.1182 C   0  0  0  0  0  0  0  0  0  0  0  0
    2.2088    1.4185    8.2815 C   0  0  0  0  0  0  0  0  0  0  0  0
    3.4172    0.8854    8.3527 N   0  0  0  0  0  0  0  0  0  0  0  0
    7.3016   -1.5847    7.5010 H   0  0  0  0  0  0  0  0  0  0  0  0
    6.6050   -2.3619    6.0807 H   0  0  0  0  0  0  0  0  0  0  0  0
    6.5788   -3.1819    7.6355 H   0  0  0  0  0  0  0  0  0  0  0  0
    5.0304   -1.4550    8.5519 H   0  0  0  0  0  0  0  0  0  0  0  0
    4.2065   -3.2660    7.4830 H   0  0  0  0  0  0  0  0  0  0  0  0
    5.7513    0.4847    7.1367 H   0  0  0  0  0  0  0  0  0  0  0  0
    5.0547   -0.2761    5.7268 H   0  0  0  0  0  0  0  0  0  0  0  0
    2.7174    0.4145    5.1990 H   0  0  0  0  0  0  0  0  0  0  0  0
   -0.1414    2.5807    8.4472 H   0  0  0  0  0  0  0  0  0  0  0  0
   -2.3433    3.4944    7.8332 H   0  0  0  0  0  0  0  0  0  0  0  0
   -3.0725    3.3096    5.4861 H   0  0  0  0  0  0  0  0  0  0  0  0
   -1.5335    1.6788    1.6053 H   0  0  0  0  0  0  0  0  0  0  0  0
    3.3598    1.4799    2.1907 H   0  0  0  0  0  0  0  0  0  0  0  0
    5.4380    0.1213    2.3146 H   0  0  0  0  0  0  0  0  0  0  0  0
    1.0287   -2.1445    1.9618 H   0  0  0  0  0  0  0  0  0  0  0  0
    3.2348   -4.3626    3.0429 H   0  0  0  0  0  0  0  0  0  0  0  0
    1.9838   -4.1866    1.8583 H   0  0  0  0  0  0  0  0  0  0  0  0
    3.4093   -5.5975    0.7092 H   0  0  0  0  0  0  0  0  0  0  0  0
    3.7574   -4.0999   -0.0101 H   0  0  0  0  0  0  0  0  0  0  0  0
    5.3646   -5.1918    3.3501 H   0  0  0  0  0  0  0  0  0  0  0  0
    7.7982   -5.2347    2.4428 H   0  0  0  0  0  0  0  0  0  0  0  0
    7.3414   -6.5787    3.3873 H   0  0  0  0  0  0  0  0  0  0  0  0
    7.3189   -6.5489    0.3343 H   0  0  0  0  0  0  0  0  0  0  0  0
    8.5098   -7.3320    1.3390 H   0  0  0  0  0  0  0  0  0  0  0  0
    5.0449   -7.4867    0.2876 H   0  0  0  0  0  0  0  0  0  0  0  0
    4.7103   -8.8914    1.2631 H   0  0  0  0  0  0  0  0  0  0  0  0
    4.9697   -7.5673    3.3493 H   0  0  0  0  0  0  0  0  0  0  0  0
    3.7180   -6.9161    2.4023 H   0  0  0  0  0  0  0  0  0  0  0  0
    7.0747   -3.7506    1.1358 H   0  0  0  0  0  0  0  0  0  0  0  0
    5.8065   -3.0889    0.2072 H   0  0  0  0  0  0  0  0  0  0  0  0
    6.5558   -1.8331    2.3008 H   0  0  0  0  0  0  0  0  0  0  0  0
    5.8015   -3.0268    3.3045 H   0  0  0  0  0  0  0  0  0  0  0  0
    1.7937    1.8411    9.1916 H   0  0  0  0  0  0  0  0  0  0  0  0
    0.3829    0.4367    1.0426 H   0  0  0  0  0  0  0  0  0  0  0  0
  1  2  1  0
  1 38  1  0
  1 39  1  0
  1 40  1  0
  2  3  1  0
  2  4  1  0
  2 41  1  1
  3 42  1  0
  4  5  1  0
  4 43  1  0
  4 44  1  0
  5 37  1  0
  5  6  1  0
  6  7  2  0
  6 45  1  0
  7  8  1  0
  7 36  1  0
  8 35  1  0
  8  9  2  0
  9 10  1  0
  9 46  1  0
 10 11  2  0
 10 47  1  0
 11 12  1  0
 11 48  1  0
 12 35  1  0
 12 13  1  0
 13 14  2  0
 14 15  1  0
 14 49  1  0
 15 16  2  3
 15 34  1  0
 16 17  1  0
 16 71  1  0
 17 22  1  0
 17 18  2  0
 18 19  1  0
 18 50  1  0
 19 20  2  0
 19 51  1  0
 20 33  1  0
 20 21  1  0
 21 22  2  0
 21 23  1  0
 22 52  1  0
 23 24  1  0
 23 53  1  0
 23 54  1  0
 24 25  1  0
 24 55  1  0
 24 56  1  0
 25 26  1  0
 25 32  1  0
 26 31  1  0
 26 27  1  0
 26 57  1  0
 27 28  1  0
 27 58  1  0
 27 59  1  0
 28 29  1  0
 28 60  1  0
 28 61  1  0
 29 30  1  0
 30 31  1  0
 30 62  1  0
 30 63  1  0
 31 64  1  0
 31 65  1  0
 32 33  1  0
 32 66  1  0
 32 67  1  0
 33 68  1  0
 33 69  1  0
 34 35  2  0
 36 37  2  0
 36 70  1  0
M  CHG  1  16   1
M  END
>  <i_m_ct_stereo_status>  (308) 
1

>  <s_m_source_file>  (308) 
/var/tmp/pbs.5076255.sched01/tmp8hdfbsd6/1003312lgh9.sdf

>  <i_m_source_file_index>  (308) 
20

>  <i_lp_mmshare_version>  (308) 
48012

>  <i_f3d_flags>  (308) 
0

>  <s_epik_input>  (308) 
W0NIM11bQ0BIXShbT0hdKVtDSDJdbjFbY0hdYyhbY0hdbjEpLWMoW2NIXVtjSF1bY0hdMiljKG4yMyluYyhcW2NIXW4zKT1OL2MoW2NIXVtjSF00KVtjSF1jKGM0NSlbQ0gyXVtDSDJdTihbQ0gyXVtDSDJdNSlbQ0hdNltDSDJdW0NIMl1PW0NIMl1bQ0gyXTY=

>  <s_epik_cmdline>  (308) 
J2VwaWtfcHl0aG9uJywgJy1waHQnLCAnMi4wJywgJy1waCcsICc3LjAnLCAnLXRuJywgJzgnLCAnLW1hJywgJzIwMCcsICctaW1hZScsICc8aW5maWxlLm1hZT4nLCAnLW9tYWUnLCAnPG91dGZpbGUubWFlPic=

>  <r_lp_tautomer_probability>  (308) 
1

>  <r_epik_Ionization_Penalty>  (308) 
1.8344

>  <r_epik_Ionization_Penalty_Charging>  (308) 
0.00102284

>  <r_epik_Ionization_Penalty_Neutral>  (308) 
1.83338

>  <r_epik_State_Penalty>  (308) 
1.95177

>  <r_epik_Charging_Adjusted_Penalty>  (308) 
1.95279

>  <i_epik_Tot_Q>  (308) 
1

>  <i_epik_Tot_abs_Q>  (308) 
1

>  <s_epik_Chemistry_Notes>  (308) 
This compound has an imine and may undergo hydrolysis.

>  <s_lp_Force_Field>  (308) 
OPLS3e

>  <r_lp_Energy>  (308) 
91.3897

>  <b_lp_Chiralities_Consistent>  (308) 
1

>  <s_lp_Variant>  (308) 
72:0-3

>  <s_i_glide_gridfile>  (308) 
pfpi4k_grid

>  <i_i_glide_lignum>  (308) 
20

>  <i_i_glide_rotatable_bonds>  (308) 
6

>  <r_i_docking_score>  (308) 
-2.53785

>  <r_i_glide_ligand_efficiency>  (308) 
-0.0685907

>  <r_i_glide_ligand_efficiency_sa>  (308) 
-0.228559

>  <r_i_glide_ligand_efficiency_ln>  (308) 
-0.550401

>  <r_i_glide_gscore>  (308) 
-2.53785

>  <r_i_glide_lipo>  (308) 
-0.531401

>  <r_i_glide_hbond>  (308) 
-0.0855101

>  <r_i_glide_metal>  (308) 
-0

>  <r_i_glide_rewards>  (308) 
0

>  <r_i_glide_evdw>  (308) 
-27.5503

>  <r_i_glide_ecoul>  (308) 
-5.74572

>  <r_i_glide_erotb>  (308) 
0.407414

>  <r_i_glide_esite>  (308) 
-0.0889843

>  <r_i_glide_emodel>  (308) 
-37.3394

>  <r_i_glide_energy>  (308) 
-33.296

>  <r_i_glide_einternal>  (308) 
4.65266

>  <r_i_glide_intrahb_reward>  (308) 
-0

>  <i_i_glide_confnum>  (308) 
6

>  <i_i_glide_posenum>  (308) 
7

>  <r_i_glide_eff_state_penalty>  (308) 
0

>  <ligand_id>  (308) 
72

>  <original_smiles>  (308) 
CC(O)Cn1cc(-c2cccn3ncc(=Nc4ccc5c(c4)CCN(C4CCOCC4)CC5)nc23)cn1

>  <smiles>  (308) 
[H]OC([H])(C([H])([H])[H])C([H])([H])n1nc([H])c(-c2c([H])c([H])c([H])n3nc([H])c(=[N+]([H])c4c([H])c([H])c5c(c4[H])C([H])([H])C([H])([H])N(C4([H])C([H])([H])C([H])([H])OC([H])([H])C4([H])[H])C([H])([H])C5([H])[H])nc23)c1[H]

$$$$
73:0:0
     RDKit          3D

 47 50  0  0  1  0  0  0  0  0999 V2000
   -1.9784   -8.6834    2.9105 C   0  0  0  0  0  0  0  0  0  0  0  0
   -0.4927   -8.3531    3.1019 C   0  0  1  0  0  0  0  0  0  0  0  0
   -0.2694   -7.6331    4.4568 C   0  0  0  0  0  0  0  0  0  0  0  0
    1.2265   -7.2915    4.6230 C   0  0  1  0  0  0  0  0  0  0  0  0
    2.0450   -8.5950    4.6042 C   0  0  0  0  0  0  0  0  0  0  0  0
    1.8453   -9.3286    3.2604 C   0  0  1  0  0  0  0  0  0  0  0  0
    2.7147  -10.6032    3.1788 C   0  0  0  0  0  0  0  0  0  0  0  0
    0.3471   -9.6592    3.0734 C   0  0  0  0  0  0  0  0  0  0  0  0
    2.2898   -8.3795    2.1391 C   0  0  0  0  0  0  0  0  0  0  0  0
    1.4789   -7.0630    2.1132 C   0  0  2  0  0  0  0  0  0  0  0  0
    1.9285   -6.1847    0.9194 C   0  0  0  0  0  0  0  0  0  0  0  0
    1.1059   -5.8518    0.0780 O   0  0  0  0  0  0  0  0  0  0  0  0
    3.2002   -5.7482    0.8531 N   0  0  0  0  0  0  0  0  0  0  0  0
    3.5629   -4.3389    0.7826 C   0  0  0  0  0  0  0  0  0  0  0  0
    4.7161   -4.1060    1.7839 C   0  0  0  0  0  0  0  0  0  0  0  0
    5.8033   -4.9995    1.5071 O   0  0  0  0  0  0  0  0  0  0  0  0
    5.4167   -6.3716    1.5316 C   0  0  0  0  0  0  0  0  0  0  0  0
    4.3278   -6.5971    0.4774 C   0  0  0  0  0  0  0  0  0  0  0  0
    1.6764   -6.3540    3.4838 C   0  0  0  0  0  0  0  0  0  0  0  0
   -0.0207   -7.4053    1.9641 C   0  0  0  0  0  0  0  0  0  0  0  0
   -2.5970   -7.7806    2.9628 H   0  0  0  0  0  0  0  0  0  0  0  0
   -2.3259   -9.3748    3.6705 H   0  0  0  0  0  0  0  0  0  0  0  0
   -2.1478   -9.1500    1.9327 H   0  0  0  0  0  0  0  0  0  0  0  0
   -0.8620   -6.7132    4.5058 H   0  0  0  0  0  0  0  0  0  0  0  0
   -0.5920   -8.2666    5.2783 H   0  0  0  0  0  0  0  0  0  0  0  0
    1.3772   -6.7863    5.5797 H   0  0  0  0  0  0  0  0  0  0  0  0
    3.1020   -8.3699    4.7635 H   0  0  0  0  0  0  0  0  0  0  0  0
    1.7452   -9.2424    5.4395 H   0  0  0  0  0  0  0  0  0  0  0  0
    2.6212  -11.0828    2.2060 H   0  0  0  0  0  0  0  0  0  0  0  0
    2.4588  -11.3382    3.9397 H   0  0  0  0  0  0  0  0  0  0  0  0
    3.7707  -10.3655    3.2907 H   0  0  0  0  0  0  0  0  0  0  0  0
    0.0173  -10.3543    3.8409 H   0  0  0  0  0  0  0  0  0  0  0  0
    0.2064  -10.1581    2.1085 H   0  0  0  0  0  0  0  0  0  0  0  0
    3.3361   -8.1489    2.3297 H   0  0  0  0  0  0  0  0  0  0  0  0
    2.2549   -8.8935    1.1788 H   0  0  0  0  0  0  0  0  0  0  0  0
    3.8757   -4.0934   -0.2241 H   0  0  0  0  0  0  0  0  0  0  0  0
    2.7195   -3.6859    1.0138 H   0  0  0  0  0  0  0  0  0  0  0  0
    5.0853   -3.0791    1.7374 H   0  0  0  0  0  0  0  0  0  0  0  0
    4.3634   -4.2716    2.8100 H   0  0  0  0  0  0  0  0  0  0  0  0
    6.2825   -7.0043    1.3428 H   0  0  0  0  0  0  0  0  0  0  0  0
    5.0571   -6.6194    2.5331 H   0  0  0  0  0  0  0  0  0  0  0  0
    4.0724   -7.6505    0.3951 H   0  0  0  0  0  0  0  0  0  0  0  0
    4.6850   -6.2536   -0.5053 H   0  0  0  0  0  0  0  0  0  0  0  0
    1.1158   -5.4176    3.5051 H   0  0  0  0  0  0  0  0  0  0  0  0
    2.7203   -6.0659    3.6267 H   0  0  0  0  0  0  0  0  0  0  0  0
   -0.1902   -7.8656    0.9970 H   0  0  0  0  0  0  0  0  0  0  0  0
   -0.6368   -6.5094    1.9566 H   0  0  0  0  0  0  0  0  0  0  0  0
  2  1  1  6
  1 21  1  0
  1 22  1  0
  1 23  1  0
  2  8  1  0
  2 20  1  0
  2  3  1  0
  3  4  1  0
  3 24  1  0
  3 25  1  0
  4 19  1  0
  4  5  1  0
  4 26  1  1
  5  6  1  0
  5 27  1  0
  5 28  1  0
  6  7  1  1
  6  8  1  0
  6  9  1  0
  7 29  1  0
  7 30  1  0
  7 31  1  0
  8 32  1  0
  8 33  1  0
  9 10  1  0
  9 34  1  0
  9 35  1  0
 10 11  1  6
 10 19  1  0
 10 20  1  0
 11 12  2  0
 11 13  1  0
 13 18  1  0
 13 14  1  0
 14 15  1  0
 14 36  1  0
 14 37  1  0
 15 16  1  0
 15 38  1  0
 15 39  1  0
 16 17  1  0
 17 18  1  0
 17 40  1  0
 17 41  1  0
 18 42  1  0
 18 43  1  0
 19 44  1  0
 19 45  1  0
 20 46  1  0
 20 47  1  0
M  END
>  <i_m_ct_stereo_status>  (309) 
1

>  <s_m_source_file>  (309) 
/var/tmp/pbs.5076255.sched01/tmp8hdfbsd6/1003312lgh9.sdf

>  <i_m_source_file_index>  (309) 
22

>  <i_lp_mmshare_version>  (309) 
48012

>  <i_f3d_flags>  (309) 
0

>  <s_epik_input>  (309) 
W0NIM11bQ0BAXTEyW0NIMl1bQ0BIXTNbQ0gyXVtDQEBdKFtDSDNdKShbQ0gyXTEpW0NIMl1bQ0BdKFtDSDJdMykoW0NIMl0yKUMoPU8pTjRbQ0gyXVtDSDJdT1tDSDJdW0NIMl00

>  <s_epik_cmdline>  (309) 
J2VwaWtfcHl0aG9uJywgJy1waHQnLCAnMi4wJywgJy1waCcsICc3LjAnLCAnLXRuJywgJzgnLCAnLW1hJywgJzIwMCcsICctaW1hZScsICc8aW5maWxlLm1hZT4nLCAnLW9tYWUnLCAnPG91dGZpbGUubWFlPic=

>  <r_lp_tautomer_probability>  (309) 
1

>  <r_epik_Ionization_Penalty>  (309) 
5.25984e-10

>  <r_epik_Ionization_Penalty_Charging>  (309) 
0

>  <r_epik_Ionization_Penalty_Neutral>  (309) 
5.25984e-10

>  <r_epik_State_Penalty>  (309) 
-0

>  <r_epik_Charging_Adjusted_Penalty>  (309) 
0

>  <i_epik_Tot_Q>  (309) 
0

>  <i_epik_Tot_abs_Q>  (309) 
0

>  <s_lp_Force_Field>  (309) 
OPLS3e

>  <r_lp_Energy>  (309) 
23.8665

>  <b_lp_Chiralities_Consistent>  (309) 
1

>  <s_lp_Variant>  (309) 
73:0-1

>  <s_i_glide_gridfile>  (309) 
pfpi4k_grid

>  <i_i_glide_lignum>  (309) 
22

>  <i_i_glide_rotatable_bonds>  (309) 
2

>  <r_i_docking_score>  (309) 
-3.55853

>  <r_i_glide_ligand_efficiency>  (309) 
-0.177927

>  <r_i_glide_ligand_efficiency_sa>  (309) 
-0.482967

>  <r_i_glide_ligand_efficiency_ln>  (309) 
-0.890583

>  <r_i_glide_gscore>  (309) 
-3.55853

>  <r_i_glide_lipo>  (309) 
-0.245128

>  <r_i_glide_hbond>  (309) 
-0.354079

>  <r_i_glide_metal>  (309) 
-0

>  <r_i_glide_rewards>  (309) 
-1.51772

>  <r_i_glide_evdw>  (309) 
-25.6082

>  <r_i_glide_ecoul>  (309) 
-3.85223

>  <r_i_glide_erotb>  (309) 
0.46804

>  <r_i_glide_esite>  (309) 
-0.0514036

>  <r_i_glide_emodel>  (309) 
-28.6398

>  <r_i_glide_energy>  (309) 
-29.4604

>  <r_i_glide_einternal>  (309) 
13.9173

>  <r_i_glide_intrahb_reward>  (309) 
-0

>  <i_i_glide_confnum>  (309) 
3

>  <i_i_glide_posenum>  (309) 
23

>  <r_i_glide_eff_state_penalty>  (309) 
0

>  <ligand_id>  (309) 
73

>  <original_smiles>  (309) 
CC12CC3CC(C)(C1)CC(C(=O)N1CCOCC1)(C3)C2

>  <smiles>  (309) 
[H]C([H])([H])C12C([H])([H])C3([H])C([H])([H])C(C(=O)N4C([H])([H])C([H])([H])OC([H])([H])C4([H])[H])(C1([H])[H])C([H])([H])C(C([H])([H])[H])(C3([H])[H])C2([H])[H]

$$$$
73:0:1
     RDKit          3D

 47 50  0  0  1  0  0  0  0  0999 V2000
   -1.9852   -8.7386    2.8062 C   0  0  0  0  0  0  0  0  0  0  0  0
   -0.5400   -8.3267    3.0837 C   0  0  1  0  0  0  0  0  0  0  0  0
   -0.4493   -7.6073    4.4496 C   0  0  0  0  0  0  0  0  0  0  0  0
    1.0086   -7.1827    4.7090 C   0  0  1  0  0  0  0  0  0  0  0  0
    1.8932   -8.4489    4.7427 C   0  0  0  0  0  0  0  0  0  0  0  0
    1.8267   -9.1765    3.3784 C   0  0  1  0  0  0  0  0  0  0  0  0
    2.7578  -10.4016    3.3539 C   0  0  0  0  0  0  0  0  0  0  0  0
    0.3681   -9.5841    3.0936 C   0  0  0  0  0  0  0  0  0  0  0  0
    2.3016   -8.2008    2.2993 C   0  0  0  0  0  0  0  0  0  0  0  0
    1.4169   -6.9269    2.2216 C   0  0  2  0  0  0  0  0  0  0  0  0
    1.8762   -6.0171    1.0375 C   0  0  0  0  0  0  0  0  0  0  0  0
    1.1020   -5.8561    0.0956 O   0  0  0  0  0  0  0  0  0  0  0  0
    3.0566   -5.3444    1.0808 N   0  0  0  0  0  0  0  0  0  0  0  0
    4.3559   -5.9865    1.2843 C   0  0  0  0  0  0  0  0  0  0  0  0
    5.2701   -5.7016    0.0927 C   0  0  0  0  0  0  0  0  0  0  0  0
    5.4069   -4.3130   -0.1381 O   0  0  0  0  0  0  0  0  0  0  0  0
    4.1535   -3.7206   -0.4524 C   0  0  0  0  0  0  0  0  0  0  0  0
    3.1693   -3.9294    0.7158 C   0  0  0  0  0  0  0  0  0  0  0  0
    1.4863   -6.2107    3.6041 C   0  0  0  0  0  0  0  0  0  0  0  0
   -0.0592   -7.3639    1.9934 C   0  0  0  0  0  0  0  0  0  0  0  0
   -2.6382   -7.8636    2.8174 H   0  0  0  0  0  0  0  0  0  0  0  0
   -2.3546   -9.4462    3.5537 H   0  0  0  0  0  0  0  0  0  0  0  0
   -2.0797   -9.2204    1.8296 H   0  0  0  0  0  0  0  0  0  0  0  0
   -1.0943   -6.7274    4.4646 H   0  0  0  0  0  0  0  0  0  0  0  0
   -0.7954   -8.2608    5.2547 H   0  0  0  0  0  0  0  0  0  0  0  0
    1.0662   -6.6835    5.6758 H   0  0  0  0  0  0  0  0  0  0  0  0
    2.9176   -8.1577    4.9675 H   0  0  0  0  0  0  0  0  0  0  0  0
    1.5802   -9.1100    5.5557 H   0  0  0  0  0  0  0  0  0  0  0  0
    2.7385  -10.8881    2.3764 H   0  0  0  0  0  0  0  0  0  0  0  0
    2.4995  -11.1486    4.1089 H   0  0  0  0  0  0  0  0  0  0  0  0
    3.7923  -10.1015    3.5254 H   0  0  0  0  0  0  0  0  0  0  0  0
    0.0221  -10.3190    3.8297 H   0  0  0  0  0  0  0  0  0  0  0  0
    0.3123  -10.0699    2.1182 H   0  0  0  0  0  0  0  0  0  0  0  0
    3.2914   -7.9109    2.6131 H   0  0  0  0  0  0  0  0  0  0  0  0
    2.3802   -8.6960    1.3258 H   0  0  0  0  0  0  0  0  0  0  0  0
    4.8088   -5.6544    2.2211 H   0  0  0  0  0  0  0  0  0  0  0  0
    4.3039   -7.0629    1.2682 H   0  0  0  0  0  0  0  0  0  0  0  0
    6.2460   -6.1452    0.2750 H   0  0  0  0  0  0  0  0  0  0  0  0
    4.8638   -6.1810   -0.7942 H   0  0  0  0  0  0  0  0  0  0  0  0
    4.3373   -2.6589   -0.6257 H   0  0  0  0  0  0  0  0  0  0  0  0
    3.7639   -4.1436   -1.3826 H   0  0  0  0  0  0  0  0  0  0  0  0
    2.2104   -3.4708    0.4750 H   0  0  0  0  0  0  0  0  0  0  0  0
    3.5442   -3.3868    1.5797 H   0  0  0  0  0  0  0  0  0  0  0  0
    0.8652   -5.3171    3.5944 H   0  0  0  0  0  0  0  0  0  0  0  0
    2.4936   -5.8643    3.8290 H   0  0  0  0  0  0  0  0  0  0  0  0
   -0.1281   -7.8296    1.0120 H   0  0  0  0  0  0  0  0  0  0  0  0
   -0.7200   -6.4957    1.9241 H   0  0  0  0  0  0  0  0  0  0  0  0
  2  1  1  6
  1 21  1  0
  1 22  1  0
  1 23  1  0
  2  8  1  0
  2 20  1  0
  2  3  1  0
  3  4  1  0
  3 24  1  0
  3 25  1  0
  4 19  1  0
  4  5  1  0
  4 26  1  1
  5  6  1  0
  5 27  1  0
  5 28  1  0
  6  7  1  1
  6  8  1  0
  6  9  1  0
  7 29  1  0
  7 30  1  0
  7 31  1  0
  8 32  1  0
  8 33  1  0
  9 10  1  0
  9 34  1  0
  9 35  1  0
 10 11  1  6
 10 19  1  0
 10 20  1  0
 11 12  2  0
 11 13  1  0
 13 18  1  0
 13 14  1  0
 14 15  1  0
 14 36  1  0
 14 37  1  0
 15 16  1  0
 15 38  1  0
 15 39  1  0
 16 17  1  0
 17 18  1  0
 17 40  1  0
 17 41  1  0
 18 42  1  0
 18 43  1  0
 19 44  1  0
 19 45  1  0
 20 46  1  0
 20 47  1  0
M  END
>  <i_m_ct_stereo_status>  (310) 
1

>  <s_m_source_file>  (310) 
/var/tmp/pbs.5076255.sched01/tmp8hdfbsd6/1003312lgh9.sdf

>  <i_m_source_file_index>  (310) 
22

>  <i_lp_mmshare_version>  (310) 
48012

>  <i_f3d_flags>  (310) 
0

>  <s_epik_input>  (310) 
W0NIM11bQ0BAXTEyW0NIMl1bQ0BIXTNbQ0gyXVtDQEBdKFtDSDNdKShbQ0gyXTEpW0NIMl1bQ0BdKFtDSDJdMykoW0NIMl0yKUMoPU8pTjRbQ0gyXVtDSDJdT1tDSDJdW0NIMl00

>  <s_epik_cmdline>  (310) 
J2VwaWtfcHl0aG9uJywgJy1waHQnLCAnMi4wJywgJy1waCcsICc3LjAnLCAnLXRuJywgJzgnLCAnLW1hJywgJzIwMCcsICctaW1hZScsICc8aW5maWxlLm1hZT4nLCAnLW9tYWUnLCAnPG91dGZpbGUubWFlPic=

>  <r_lp_tautomer_probability>  (310) 
1

>  <r_epik_Ionization_Penalty>  (310) 
5.25984e-10

>  <r_epik_Ionization_Penalty_Charging>  (310) 
0

>  <r_epik_Ionization_Penalty_Neutral>  (310) 
5.25984e-10

>  <r_epik_State_Penalty>  (310) 
-0

>  <r_epik_Charging_Adjusted_Penalty>  (310) 
0

>  <i_epik_Tot_Q>  (310) 
0

>  <i_epik_Tot_abs_Q>  (310) 
0

>  <s_lp_Force_Field>  (310) 
OPLS3e

>  <r_lp_Energy>  (310) 
23.8665

>  <b_lp_Chiralities_Consistent>  (310) 
1

>  <s_lp_Variant>  (310) 
73:0-1

>  <s_i_glide_gridfile>  (310) 
pfpi4k_grid

>  <i_i_glide_lignum>  (310) 
22

>  <i_i_glide_rotatable_bonds>  (310) 
2

>  <r_i_docking_score>  (310) 
-3.48464

>  <r_i_glide_ligand_efficiency>  (310) 
-0.174232

>  <r_i_glide_ligand_efficiency_sa>  (310) 
-0.472939

>  <r_i_glide_ligand_efficiency_ln>  (310) 
-0.872091

>  <r_i_glide_gscore>  (310) 
-3.48464

>  <r_i_glide_lipo>  (310) 
-0.141782

>  <r_i_glide_hbond>  (310) 
-0.344514

>  <r_i_glide_metal>  (310) 
-0

>  <r_i_glide_rewards>  (310) 
-1.51772

>  <r_i_glide_evdw>  (310) 
-25.6478

>  <r_i_glide_ecoul>  (310) 
-4.02066

>  <r_i_glide_erotb>  (310) 
0.46804

>  <r_i_glide_esite>  (310) 
-0.0631836

>  <r_i_glide_emodel>  (310) 
-29.7793

>  <r_i_glide_energy>  (310) 
-29.6684

>  <r_i_glide_einternal>  (310) 
11.598

>  <r_i_glide_intrahb_reward>  (310) 
-0

>  <i_i_glide_confnum>  (310) 
3

>  <i_i_glide_posenum>  (310) 
1

>  <r_i_glide_eff_state_penalty>  (310) 
0

>  <ligand_id>  (310) 
73

>  <original_smiles>  (310) 
CC12CC3CC(C)(C1)CC(C(=O)N1CCOCC1)(C3)C2

>  <smiles>  (310) 
[H]C([H])([H])C12C([H])([H])C3([H])C([H])([H])C(C(=O)N4C([H])([H])C([H])([H])OC([H])([H])C4([H])[H])(C1([H])[H])C([H])([H])C(C([H])([H])[H])(C3([H])[H])C2([H])[H]

$$$$
73:0:2
     RDKit          3D

 47 50  0  0  1  0  0  0  0  0999 V2000
   -1.9700   -8.7374    2.7685 C   0  0  0  0  0  0  0  0  0  0  0  0
   -0.5114   -8.4377    3.1169 C   0  0  1  0  0  0  0  0  0  0  0  0
   -0.4335   -7.7900    4.5177 C   0  0  0  0  0  0  0  0  0  0  0  0
    1.0234   -7.4666    4.8422 C   0  0  1  0  0  0  0  0  0  0  0  0
    1.8766   -8.7603    4.8070 C   0  0  0  0  0  0  0  0  0  0  0  0
    1.8134   -9.4192    3.4093 C   0  0  1  0  0  0  0  0  0  0  0  0
    2.6655  -10.6970    3.3543 C   0  0  0  0  0  0  0  0  0  0  0  0
    0.3354   -9.7278    3.0800 C   0  0  0  0  0  0  0  0  0  0  0  0
    2.3640   -8.4147    2.3670 C   0  0  0  0  0  0  0  0  0  0  0  0
    1.5573   -7.0788    2.3959 C   0  0  2  0  0  0  0  0  0  0  0  0
    2.0852   -6.1259    1.2724 C   0  0  0  0  0  0  0  0  0  0  0  0
    1.3114   -5.8492    0.3494 O   0  0  0  0  0  0  0  0  0  0  0  0
    3.3751   -5.6939    1.2445 N   0  0  0  0  0  0  0  0  0  0  0  0
    3.9375   -4.9673    0.0889 C   0  0  0  0  0  0  0  0  0  0  0  0
    4.5568   -3.6250    0.5526 C   0  0  0  0  0  0  0  0  0  0  0  0
    5.4955   -3.8295    1.6007 O   0  0  0  0  0  0  0  0  0  0  0  0
    4.9136   -4.4770    2.7120 C   0  0  0  0  0  0  0  0  0  0  0  0
    4.4075   -5.8807    2.2934 C   0  0  0  0  0  0  0  0  0  0  0  0
    1.5534   -6.4248    3.8287 C   0  0  0  0  0  0  0  0  0  0  0  0
    0.0763   -7.4526    2.0751 C   0  0  0  0  0  0  0  0  0  0  0  0
   -2.5789   -7.8432    2.8150 H   0  0  0  0  0  0  0  0  0  0  0  0
   -2.3909   -9.4431    3.4804 H   0  0  0  0  0  0  0  0  0  0  0  0
   -2.0627   -9.1667    1.7760 H   0  0  0  0  0  0  0  0  0  0  0  0
   -1.0068   -6.8608    4.5337 H   0  0  0  0  0  0  0  0  0  0  0  0
   -0.8600   -8.4479    5.2807 H   0  0  0  0  0  0  0  0  0  0  0  0
    1.0874   -7.0336    5.8392 H   0  0  0  0  0  0  0  0  0  0  0  0
    2.9101   -8.5395    5.0728 H   0  0  0  0  0  0  0  0  0  0  0  0
    1.5227   -9.4681    5.5637 H   0  0  0  0  0  0  0  0  0  0  0  0
    2.6252  -11.1424    2.3611 H   0  0  0  0  0  0  0  0  0  0  0  0
    2.3181  -11.4402    4.0703 H   0  0  0  0  0  0  0  0  0  0  0  0
    3.7143  -10.4851    3.5652 H   0  0  0  0  0  0  0  0  0  0  0  0
   -0.0558  -10.4721    3.7727 H   0  0  0  0  0  0  0  0  0  0  0  0
    0.2830  -10.1752    2.0892 H   0  0  0  0  0  0  0  0  0  0  0  0
    3.4170   -8.2693    2.5993 H   0  0  0  0  0  0  0  0  0  0  0  0
    2.3712   -8.8626    1.3627 H   0  0  0  0  0  0  0  0  0  0  0  0
    4.7077   -5.6025   -0.3567 H   0  0  0  0  0  0  0  0  0  0  0  0
    3.2194   -4.7677   -0.7102 H   0  0  0  0  0  0  0  0  0  0  0  0
    5.0726   -3.1478   -0.2842 H   0  0  0  0  0  0  0  0  0  0  0  0
    3.7737   -2.9484    0.8908 H   0  0  0  0  0  0  0  0  0  0  0  0
    5.6445   -4.5969    3.5089 H   0  0  0  0  0  0  0  0  0  0  0  0
    4.1109   -3.8593    3.1259 H   0  0  0  0  0  0  0  0  0  0  0  0
    4.0841   -6.3670    3.2002 H   0  0  0  0  0  0  0  0  0  0  0  0
    5.2228   -6.4780    1.8649 H   0  0  0  0  0  0  0  0  0  0  0  0
    0.9152   -5.5286    3.8173 H   0  0  0  0  0  0  0  0  0  0  0  0
    2.5006   -6.1290    4.2657 H   0  0  0  0  0  0  0  0  0  0  0  0
    0.0098   -7.9007    1.0855 H   0  0  0  0  0  0  0  0  0  0  0  0
   -0.5536   -6.5621    2.0245 H   0  0  0  0  0  0  0  0  0  0  0  0
  2  1  1  6
  1 21  1  0
  1 22  1  0
  1 23  1  0
  2  8  1  0
  2 20  1  0
  2  3  1  0
  3  4  1  0
  3 24  1  0
  3 25  1  0
  4 19  1  0
  4  5  1  0
  4 26  1  1
  5  6  1  0
  5 27  1  0
  5 28  1  0
  6  7  1  1
  6  8  1  0
  6  9  1  0
  7 29  1  0
  7 30  1  0
  7 31  1  0
  8 32  1  0
  8 33  1  0
  9 10  1  0
  9 34  1  0
  9 35  1  0
 10 11  1  6
 10 19  1  0
 10 20  1  0
 11 12  2  0
 11 13  1  0
 13 18  1  0
 13 14  1  0
 14 15  1  0
 14 36  1  0
 14 37  1  0
 15 16  1  0
 15 38  1  0
 15 39  1  0
 16 17  1  0
 17 18  1  0
 17 40  1  0
 17 41  1  0
 18 42  1  0
 18 43  1  0
 19 44  1  0
 19 45  1  0
 20 46  1  0
 20 47  1  0
M  END
>  <i_m_ct_stereo_status>  (311) 
1

>  <s_m_source_file>  (311) 
/var/tmp/pbs.5076255.sched01/tmp8hdfbsd6/1003312lgh9.sdf

>  <i_m_source_file_index>  (311) 
22

>  <i_lp_mmshare_version>  (311) 
48012

>  <i_f3d_flags>  (311) 
0

>  <s_epik_input>  (311) 
W0NIM11bQ0BAXTEyW0NIMl1bQ0BIXTNbQ0gyXVtDQEBdKFtDSDNdKShbQ0gyXTEpW0NIMl1bQ0BdKFtDSDJdMykoW0NIMl0yKUMoPU8pTjRbQ0gyXVtDSDJdT1tDSDJdW0NIMl00

>  <s_epik_cmdline>  (311) 
J2VwaWtfcHl0aG9uJywgJy1waHQnLCAnMi4wJywgJy1waCcsICc3LjAnLCAnLXRuJywgJzgnLCAnLW1hJywgJzIwMCcsICctaW1hZScsICc8aW5maWxlLm1hZT4nLCAnLW9tYWUnLCAnPG91dGZpbGUubWFlPic=

>  <r_lp_tautomer_probability>  (311) 
1

>  <r_epik_Ionization_Penalty>  (311) 
5.25984e-10

>  <r_epik_Ionization_Penalty_Charging>  (311) 
0

>  <r_epik_Ionization_Penalty_Neutral>  (311) 
5.25984e-10

>  <r_epik_State_Penalty>  (311) 
-0

>  <r_epik_Charging_Adjusted_Penalty>  (311) 
0

>  <i_epik_Tot_Q>  (311) 
0

>  <i_epik_Tot_abs_Q>  (311) 
0

>  <s_lp_Force_Field>  (311) 
OPLS3e

>  <r_lp_Energy>  (311) 
23.8665

>  <b_lp_Chiralities_Consistent>  (311) 
1

>  <s_lp_Variant>  (311) 
73:0-1

>  <s_i_glide_gridfile>  (311) 
pfpi4k_grid

>  <i_i_glide_lignum>  (311) 
22

>  <i_i_glide_rotatable_bonds>  (311) 
2

>  <r_i_docking_score>  (311) 
-3.1217

>  <r_i_glide_ligand_efficiency>  (311) 
-0.156085

>  <r_i_glide_ligand_efficiency_sa>  (311) 
-0.423679

>  <r_i_glide_ligand_efficiency_ln>  (311) 
-0.781258

>  <r_i_glide_gscore>  (311) 
-3.1217

>  <r_i_glide_lipo>  (311) 
-0.0828285

>  <r_i_glide_hbond>  (311) 
-0.158848

>  <r_i_glide_metal>  (311) 
-0

>  <r_i_glide_rewards>  (311) 
-1.54005

>  <r_i_glide_evdw>  (311) 
-24.8952

>  <r_i_glide_ecoul>  (311) 
-3.54397

>  <r_i_glide_erotb>  (311) 
0.46804

>  <r_i_glide_esite>  (311) 
-0.0316587

>  <r_i_glide_emodel>  (311) 
-33.8795

>  <r_i_glide_energy>  (311) 
-28.4392

>  <r_i_glide_einternal>  (311) 
0.0669874

>  <r_i_glide_intrahb_reward>  (311) 
-0

>  <i_i_glide_confnum>  (311) 
1

>  <i_i_glide_posenum>  (311) 
18

>  <r_i_glide_eff_state_penalty>  (311) 
0

>  <ligand_id>  (311) 
73

>  <original_smiles>  (311) 
CC12CC3CC(C)(C1)CC(C(=O)N1CCOCC1)(C3)C2

>  <smiles>  (311) 
[H]C([H])([H])C12C([H])([H])C3([H])C([H])([H])C(C(=O)N4C([H])([H])C([H])([H])OC([H])([H])C4([H])[H])(C1([H])[H])C([H])([H])C(C([H])([H])[H])(C3([H])[H])C2([H])[H]

$$$$
74:0:0
     RDKit          3D

 55 60  0  0  1  0  0  0  0  0999 V2000
   -1.4351   -7.4341    3.0270 C   0  0  0  0  0  0  0  0  0  0  0  0
   -0.3395   -6.6828    2.5182 O   0  0  0  0  0  0  0  0  0  0  0  0
    0.8649   -6.7382    3.1839 C   0  0  0  0  0  0  0  0  0  0  0  0
    1.0196   -7.3298    4.4734 C   0  0  0  0  0  0  0  0  0  0  0  0
    2.2828   -7.4018    5.0786 C   0  0  0  0  0  0  0  0  0  0  0  0
    3.3830   -6.8266    4.4157 C   0  0  0  0  0  0  0  0  0  0  0  0
    3.2480   -6.1371    3.2089 C   0  0  0  0  0  0  0  0  0  0  0  0
    1.9966   -6.1703    2.5455 C   0  0  0  0  0  0  0  0  0  0  0  0
    1.8511   -5.7402    1.2626 O   0  0  0  0  0  0  0  0  0  0  0  0
    4.5947   -5.4886    2.8015 C   0  0  2  0  0  0  0  0  0  0  0  0
    4.7227   -4.0495    3.4618 C   0  0  0  0  0  0  0  0  0  0  0  0
    4.3145   -2.7103    2.7757 C   0  0  2  0  0  0  0  0  0  0  0  0
    2.9004   -2.5610    2.6036 O   0  0  0  0  0  0  0  0  0  0  0  0
    2.5941   -2.9934    1.2943 N   0  0  0  0  0  0  0  0  0  0  0  0
    3.6881   -3.0483    0.6921 C   0  0  0  0  0  0  0  0  0  0  0  0
    4.0904   -3.9950   -0.3756 C   0  0  0  0  0  0  0  0  0  0  0  0
    5.3578   -4.5927    0.2802 C   0  0  1  0  0  0  0  0  0  0  0  0
    6.0478   -3.3833    0.9680 C   0  0  1  0  0  0  0  0  0  0  0  0
    7.0656   -2.6730    0.0691 C   0  0  0  0  0  0  0  0  0  0  0  0
    6.8306   -1.5054   -0.3235 O   0  0  0  0  0  0  0  0  0  0  0  0
    8.1017   -3.3222   -0.1803 O   0  0  0  0  0  0  0  0  0  0  0  0
    4.8545   -2.4987    1.3808 C   0  0  2  0  0  0  0  0  0  0  0  0
    5.0740   -5.7575    1.3062 C   0  0  1  0  0  0  0  0  0  0  0  0
    6.3210   -6.6444    1.4690 C   0  0  0  0  0  0  0  0  0  0  0  0
    6.1371   -7.4370    2.7050 N   0  0  0  0  0  0  0  0  0  0  0  0
    5.2383   -8.6069    2.4364 C   0  0  0  0  0  0  0  0  0  0  0  0
    7.4393   -7.9747    3.1978 C   0  0  0  0  0  0  0  0  0  0  0  0
    5.5878   -6.3896    3.6299 C   0  0  2  0  0  0  0  0  0  0  0  0
    4.8077   -6.9065    4.8644 C   0  0  0  0  0  0  0  0  0  0  0  0
   -2.3013   -7.2988    2.3849 H   0  0  0  0  0  0  0  0  0  0  0  0
   -1.7364   -7.0997    4.0201 H   0  0  0  0  0  0  0  0  0  0  0  0
   -1.2172   -8.5031    3.0499 H   0  0  0  0  0  0  0  0  0  0  0  0
    0.1835   -7.7647    4.9888 H   0  0  0  0  0  0  0  0  0  0  0  0
    2.4095   -7.8989    6.0320 H   0  0  0  0  0  0  0  0  0  0  0  0
    2.6525   -5.3865    0.9167 H   0  0  0  0  0  0  0  0  0  0  0  0
    4.2376   -4.0759    4.4385 H   0  0  0  0  0  0  0  0  0  0  0  0
    5.7686   -3.8773    3.7135 H   0  0  0  0  0  0  0  0  0  0  0  0
    4.6631   -1.8959    3.4108 H   0  0  0  0  0  0  0  0  0  0  0  0
    3.3122   -4.7155   -0.6086 H   0  0  0  0  0  0  0  0  0  0  0  0
    4.3092   -3.4319   -1.2842 H   0  0  0  0  0  0  0  0  0  0  0  0
    5.9657   -4.9861   -0.5337 H   0  0  0  0  0  0  0  0  0  0  0  0
    6.6482   -3.6973    1.8129 H   0  0  0  0  0  0  0  0  0  0  0  0
    4.9265   -1.4382    1.1343 H   0  0  0  0  0  0  0  0  0  0  0  0
    4.3378   -6.4083    0.8295 H   0  0  0  0  0  0  0  0  0  0  0  0
    6.4936   -7.2738    0.6039 H   0  0  0  0  0  0  0  0  0  0  0  0
    7.2103   -6.0186    1.5805 H   0  0  0  0  0  0  0  0  0  0  0  0
    5.0703   -9.2060    3.3315 H   0  0  0  0  0  0  0  0  0  0  0  0
    5.6992   -9.2743    1.7053 H   0  0  0  0  0  0  0  0  0  0  0  0
    4.2661   -8.3291    2.0286 H   0  0  0  0  0  0  0  0  0  0  0  0
    7.2967   -8.5352    4.1238 H   0  0  0  0  0  0  0  0  0  0  0  0
    8.1750   -7.1910    3.3877 H   0  0  0  0  0  0  0  0  0  0  0  0
    7.8776   -8.6586    2.4699 H   0  0  0  0  0  0  0  0  0  0  0  0
    6.4647   -5.8326    3.9700 H   0  0  0  0  0  0  0  0  0  0  0  0
    4.9352   -6.2028    5.6832 H   0  0  0  0  0  0  0  0  0  0  0  0
    5.1034   -7.8960    5.2222 H   0  0  0  0  0  0  0  0  0  0  0  0
  1  2  1  0
  1 30  1  0
  1 31  1  0
  1 32  1  0
  2  3  1  0
  3  8  2  0
  3  4  1  0
  4  5  2  0
  4 33  1  0
  5  6  1  0
  5 34  1  0
  6 29  1  0
  6  7  2  0
  7  8  1  0
  7 10  1  0
  8  9  1  0
  9 35  1  0
 10 23  1  0
 10 28  1  0
 10 11  1  1
 11 12  1  0
 11 36  1  0
 11 37  1  0
 12 22  1  0
 12 13  1  0
 12 38  1  1
 13 14  1  0
 14 15  2  0
 15 22  1  0
 15 16  1  0
 16 17  1  0
 16 39  1  0
 16 40  1  0
 17 18  1  0
 17 23  1  0
 17 41  1  6
 18 19  1  0
 18 22  1  0
 18 42  1  1
 19 20  2  0
 19 21  1  0
 22 43  1  6
 23 24  1  0
 23 44  1  6
 24 25  1  0
 24 45  1  0
 24 46  1  0
 25 26  1  0
 25 27  1  0
 25 28  1  0
 26 47  1  0
 26 48  1  0
 26 49  1  0
 27 50  1  0
 27 51  1  0
 27 52  1  0
 28 29  1  0
 28 53  1  1
 29 54  1  0
 29 55  1  0
M  CHG  2  21  -1  25   1
M  END
>  <i_m_ct_stereo_status>  (312) 
1

>  <s_m_source_file>  (312) 
/var/tmp/pbs.5076255.sched01/tmp8hdfbsd6/1003312lgh9.sdf

>  <i_m_source_file_index>  (312) 
23

>  <i_lp_mmshare_version>  (312) 
48012

>  <i_f3d_flags>  (312) 
0

>  <s_epik_input>  (312) 
W0NIM11PYyhjMVtPSF0pW2NIXVtjSF1jKGMxW0NAXTIzNClbQ0gyXVtDQEhdNFtOK10oW0NIM10pKFtDSDNdKVtDSDJdW0NAQEhdM1tDQEhdNVtDSDJdQzZbQ0BASF0oW0NASF0oW0NIMl0yKU9OPTYpW0NAQEhdNUMoPU8pW09IXQ==

>  <s_epik_cmdline>  (312) 
J2VwaWtfcHl0aG9uJywgJy1waHQnLCAnMi4wJywgJy1waCcsICc3LjAnLCAnLXRuJywgJzgnLCAnLW1hJywgJzIwMCcsICctaW1hZScsICc8aW5maWxlLm1hZT4nLCAnLW9tYWUnLCAnPG91dGZpbGUubWFlPic=

>  <r_lp_tautomer_probability>  (312) 
1

>  <r_epik_Ionization_Penalty>  (312) 
0.00124148

>  <r_epik_Ionization_Penalty_Charging>  (312) 
0.000336216

>  <r_epik_Ionization_Penalty_Neutral>  (312) 
0.000905268

>  <r_epik_State_Penalty>  (312) 
-0

>  <r_epik_Charging_Adjusted_Penalty>  (312) 
0.000336216

>  <i_epik_Tot_Q>  (312) 
0

>  <i_epik_Tot_abs_Q>  (312) 
2

>  <s_epik_Chemistry_Notes>  (312) 
This compound has an imine and may undergo hydrolysis.

>  <s_lp_Force_Field>  (312) 
OPLS3e

>  <r_lp_Energy>  (312) 
43.9017

>  <b_lp_Chiralities_Consistent>  (312) 
1

>  <s_lp_Variant>  (312) 
74:0-1

>  <s_i_glide_gridfile>  (312) 
pfpi4k_grid

>  <i_i_glide_lignum>  (312) 
23

>  <i_i_glide_rotatable_bonds>  (312) 
3

>  <r_i_docking_score>  (312) 
-3.0167

>  <r_i_glide_ligand_efficiency>  (312) 
-0.104024

>  <r_i_glide_ligand_efficiency_sa>  (312) 
-0.319595

>  <r_i_glide_ligand_efficiency_ln>  (312) 
-0.690748

>  <r_i_glide_gscore>  (312) 
-3.0167

>  <r_i_glide_lipo>  (312) 
-0.366058

>  <r_i_glide_hbond>  (312) 
-0.312806

>  <r_i_glide_metal>  (312) 
-0

>  <r_i_glide_rewards>  (312) 
-0.789881

>  <r_i_glide_evdw>  (312) 
-18.5201

>  <r_i_glide_ecoul>  (312) 
-3.95234

>  <r_i_glide_erotb>  (312) 
0

>  <r_i_glide_esite>  (312) 
-0.0291006

>  <r_i_glide_emodel>  (312) 
-28.8719

>  <r_i_glide_energy>  (312) 
-22.4725

>  <r_i_glide_einternal>  (312) 
0.881338

>  <r_i_glide_intrahb_reward>  (312) 
-0

>  <i_i_glide_confnum>  (312) 
2

>  <i_i_glide_posenum>  (312) 
34

>  <r_i_glide_eff_state_penalty>  (312) 
0

>  <ligand_id>  (312) 
74

>  <original_smiles>  (312) 
COc1ccc2c(c1O)C13CC4ON=C5CC(C(C(=O)O)C54)C1C[N+](C)(C)C3C2

>  <smiles>  (312) 
[H]Oc1c(OC([H])([H])[H])c([H])c([H])c2c1C13C([H])([H])C4([H])ON=C5C([H])([H])C([H])(C([H])(C(=O)[O-])C54[H])C1([H])C([H])([H])[N+](C([H])([H])[H])(C([H])([H])[H])C3([H])C2([H])[H]

$$$$
74:0:1
     RDKit          3D

 55 60  0  0  1  0  0  0  0  0999 V2000
    5.1913   -3.8360   -1.2648 C   0  0  0  0  0  0  0  0  0  0  0  0
    4.3760   -3.8198   -0.0979 O   0  0  0  0  0  0  0  0  0  0  0  0
    4.2929   -2.6521    0.6330 C   0  0  0  0  0  0  0  0  0  0  0  0
    5.0731   -1.4997    0.3636 C   0  0  0  0  0  0  0  0  0  0  0  0
    4.8921   -0.3318    1.1083 C   0  0  0  0  0  0  0  0  0  0  0  0
    3.9631   -0.3376    2.1689 C   0  0  0  0  0  0  0  0  0  0  0  0
    3.2670   -1.4895    2.5365 C   0  0  0  0  0  0  0  0  0  0  0  0
    3.3723   -2.6330    1.7125 C   0  0  0  0  0  0  0  0  0  0  0  0
    2.5763   -3.7209    1.8606 O   0  0  0  0  0  0  0  0  0  0  0  0
    2.4404   -1.2391    3.8222 C   0  0  2  0  0  0  0  0  0  0  0  0
    3.3452   -1.5304    5.0985 C   0  0  0  0  0  0  0  0  0  0  0  0
    3.4014   -2.8877    5.8662 C   0  0  2  0  0  0  0  0  0  0  0  0
    4.0432   -3.9453    5.1373 O   0  0  0  0  0  0  0  0  0  0  0  0
    3.0249   -4.6885    4.5020 N   0  0  0  0  0  0  0  0  0  0  0  0
    1.9592   -4.3180    5.0429 C   0  0  0  0  0  0  0  0  0  0  0  0
    0.6165   -4.2047    4.4312 C   0  0  0  0  0  0  0  0  0  0  0  0
    0.2958   -2.7265    4.7588 C   0  0  1  0  0  0  0  0  0  0  0  0
    0.8397   -2.5221    6.1949 C   0  0  1  0  0  0  0  0  0  0  0  0
   -0.1845   -2.8291    7.2981 C   0  0  0  0  0  0  0  0  0  0  0  0
    0.0316   -2.3058    8.4145 O   0  0  0  0  0  0  0  0  0  0  0  0
   -1.2043   -3.4946    7.0222 O   0  0  0  0  0  0  0  0  0  0  0  0
    2.0569   -3.4732    6.2367 C   0  0  2  0  0  0  0  0  0  0  0  0
    0.9146   -1.6834    3.7565 C   0  0  1  0  0  0  0  0  0  0  0  0
    0.1292   -0.3574    3.8006 C   0  0  0  0  0  0  0  0  0  0  0  0
    0.9898    0.6724    3.1741 N   0  0  0  0  0  0  0  0  0  0  0  0
    0.8933    0.5736    1.6869 C   0  0  0  0  0  0  0  0  0  0  0  0
    0.5576    2.0467    3.5632 C   0  0  0  0  0  0  0  0  0  0  0  0
    2.3253    0.3296    3.7658 C   0  0  2  0  0  0  0  0  0  0  0  0
    3.5620    0.8432    2.9929 C   0  0  0  0  0  0  0  0  0  0  0  0
    5.1391   -4.8224   -1.7242 H   0  0  0  0  0  0  0  0  0  0  0  0
    6.2429   -3.6413   -1.0453 H   0  0  0  0  0  0  0  0  0  0  0  0
    4.8453   -3.1165   -2.0089 H   0  0  0  0  0  0  0  0  0  0  0  0
    5.7913   -1.4833   -0.4401 H   0  0  0  0  0  0  0  0  0  0  0  0
    5.4571    0.5518    0.8635 H   0  0  0  0  0  0  0  0  0  0  0  0
    2.8678   -4.4085    1.2806 H   0  0  0  0  0  0  0  0  0  0  0  0
    4.3718   -1.2376    4.8687 H   0  0  0  0  0  0  0  0  0  0  0  0
    3.0606   -0.8296    5.8821 H   0  0  0  0  0  0  0  0  0  0  0  0
    3.9778   -2.7198    6.7756 H   0  0  0  0  0  0  0  0  0  0  0  0
    0.6377   -4.4324    3.3700 H   0  0  0  0  0  0  0  0  0  0  0  0
   -0.0608   -4.9022    4.9292 H   0  0  0  0  0  0  0  0  0  0  0  0
   -0.7883   -2.6171    4.7378 H   0  0  0  0  0  0  0  0  0  0  0  0
    1.1172   -1.4883    6.3752 H   0  0  0  0  0  0  0  0  0  0  0  0
    2.1093   -4.1190    7.1150 H   0  0  0  0  0  0  0  0  0  0  0  0
    0.7333   -2.0904    2.7605 H   0  0  0  0  0  0  0  0  0  0  0  0
   -0.8513   -0.4157    3.3306 H   0  0  0  0  0  0  0  0  0  0  0  0
   -0.0399   -0.0753    4.8402 H   0  0  0  0  0  0  0  0  0  0  0  0
    1.5246    1.3128    1.1991 H   0  0  0  0  0  0  0  0  0  0  0  0
   -0.1284    0.7781    1.3628 H   0  0  0  0  0  0  0  0  0  0  0  0
    1.1575   -0.4090    1.2968 H   0  0  0  0  0  0  0  0  0  0  0  0
    1.2067    2.7945    3.1074 H   0  0  0  0  0  0  0  0  0  0  0  0
    0.5686    2.2024    4.6420 H   0  0  0  0  0  0  0  0  0  0  0  0
   -0.4534    2.2484    3.2102 H   0  0  0  0  0  0  0  0  0  0  0  0
    2.3213    0.7772    4.7622 H   0  0  0  0  0  0  0  0  0  0  0  0
    4.3694    1.0385    3.6964 H   0  0  0  0  0  0  0  0  0  0  0  0
    3.4004    1.7497    2.4035 H   0  0  0  0  0  0  0  0  0  0  0  0
  1  2  1  0
  1 30  1  0
  1 31  1  0
  1 32  1  0
  2  3  1  0
  3  8  2  0
  3  4  1  0
  4  5  2  0
  4 33  1  0
  5  6  1  0
  5 34  1  0
  6 29  1  0
  6  7  2  0
  7  8  1  0
  7 10  1  0
  8  9  1  0
  9 35  1  0
 10 23  1  0
 10 28  1  0
 10 11  1  1
 11 12  1  0
 11 36  1  0
 11 37  1  0
 12 22  1  0
 12 13  1  0
 12 38  1  1
 13 14  1  0
 14 15  2  0
 15 22  1  0
 15 16  1  0
 16 17  1  0
 16 39  1  0
 16 40  1  0
 17 18  1  0
 17 23  1  0
 17 41  1  1
 18 19  1  0
 18 22  1  0
 18 42  1  6
 19 20  2  0
 19 21  1  0
 22 43  1  1
 23 24  1  0
 23 44  1  6
 24 25  1  0
 24 45  1  0
 24 46  1  0
 25 26  1  0
 25 27  1  0
 25 28  1  0
 26 47  1  0
 26 48  1  0
 26 49  1  0
 27 50  1  0
 27 51  1  0
 27 52  1  0
 28 29  1  0
 28 53  1  1
 29 54  1  0
 29 55  1  0
M  CHG  2  21  -1  25   1
M  END
>  <i_m_ct_stereo_status>  (313) 
1

>  <s_m_source_file>  (313) 
/var/tmp/pbs.5076255.sched01/tmp8hdfbsd6/1003312lgh9.sdf

>  <i_m_source_file_index>  (313) 
23

>  <i_lp_mmshare_version>  (313) 
48012

>  <i_f3d_flags>  (313) 
0

>  <s_epik_input>  (313) 
W0NIM11PYyhjMVtPSF0pW2NIXVtjSF1jKGMxW0NAXTIzNClbQ0gyXVtDQEhdNFtOK10oW0NIM10pKFtDSDNdKVtDSDJdW0NAQEhdM1tDQEhdNVtDSDJdQzZbQ0BASF0oW0NASF0oW0NIMl0yKU9OPTYpW0NAQEhdNUMoPU8pW09IXQ==

>  <s_epik_cmdline>  (313) 
J2VwaWtfcHl0aG9uJywgJy1waHQnLCAnMi4wJywgJy1waCcsICc3LjAnLCAnLXRuJywgJzgnLCAnLW1hJywgJzIwMCcsICctaW1hZScsICc8aW5maWxlLm1hZT4nLCAnLW9tYWUnLCAnPG91dGZpbGUubWFlPic=

>  <r_lp_tautomer_probability>  (313) 
1

>  <r_epik_Ionization_Penalty>  (313) 
0.00124148

>  <r_epik_Ionization_Penalty_Charging>  (313) 
0.000336216

>  <r_epik_Ionization_Penalty_Neutral>  (313) 
0.000905268

>  <r_epik_State_Penalty>  (313) 
-0

>  <r_epik_Charging_Adjusted_Penalty>  (313) 
0.000336216

>  <i_epik_Tot_Q>  (313) 
0

>  <i_epik_Tot_abs_Q>  (313) 
2

>  <s_epik_Chemistry_Notes>  (313) 
This compound has an imine and may undergo hydrolysis.

>  <s_lp_Force_Field>  (313) 
OPLS3e

>  <r_lp_Energy>  (313) 
43.9017

>  <b_lp_Chiralities_Consistent>  (313) 
1

>  <s_lp_Variant>  (313) 
74:0-1

>  <s_i_glide_gridfile>  (313) 
pfpi4k_grid

>  <i_i_glide_lignum>  (313) 
23

>  <i_i_glide_rotatable_bonds>  (313) 
3

>  <r_i_docking_score>  (313) 
-2.95916

>  <r_i_glide_ligand_efficiency>  (313) 
-0.10204

>  <r_i_glide_ligand_efficiency_sa>  (313) 
-0.313499

>  <r_i_glide_ligand_efficiency_ln>  (313) 
-0.677572

>  <r_i_glide_gscore>  (313) 
-2.95916

>  <r_i_glide_lipo>  (313) 
-0.313858

>  <r_i_glide_hbond>  (313) 
-0.190105

>  <r_i_glide_metal>  (313) 
-0

>  <r_i_glide_rewards>  (313) 
-0.692844

>  <r_i_glide_evdw>  (313) 
-19.0414

>  <r_i_glide_ecoul>  (313) 
-4.96725

>  <r_i_glide_erotb>  (313) 
0

>  <r_i_glide_esite>  (313) 
-0.0651976

>  <r_i_glide_emodel>  (313) 
-30.2267

>  <r_i_glide_energy>  (313) 
-24.0086

>  <r_i_glide_einternal>  (313) 
1.15472

>  <r_i_glide_intrahb_reward>  (313) 
-0

>  <i_i_glide_confnum>  (313) 
2

>  <i_i_glide_posenum>  (313) 
38

>  <r_i_glide_eff_state_penalty>  (313) 
0

>  <ligand_id>  (313) 
74

>  <original_smiles>  (313) 
COc1ccc2c(c1O)C13CC4ON=C5CC(C(C(=O)O)C54)C1C[N+](C)(C)C3C2

>  <smiles>  (313) 
[H]Oc1c(OC([H])([H])[H])c([H])c([H])c2c1C13C([H])([H])C4([H])ON=C5C([H])([H])C([H])(C([H])(C(=O)[O-])C54[H])C1([H])C([H])([H])[N+](C([H])([H])[H])(C([H])([H])[H])C3([H])C2([H])[H]

$$$$
74:0:2
     RDKit          3D

 55 60  0  0  1  0  0  0  0  0999 V2000
    0.9571  -10.2879    2.9622 C   0  0  0  0  0  0  0  0  0  0  0  0
    1.7256   -9.2198    2.4218 O   0  0  0  0  0  0  0  0  0  0  0  0
    2.6918   -8.6221    3.2012 C   0  0  0  0  0  0  0  0  0  0  0  0
    2.9045   -8.9444    4.5721 C   0  0  0  0  0  0  0  0  0  0  0  0
    3.9487   -8.3376    5.2905 C   0  0  0  0  0  0  0  0  0  0  0  0
    4.7376   -7.3656    4.6451 C   0  0  0  0  0  0  0  0  0  0  0  0
    4.4802   -6.9394    3.3439 C   0  0  0  0  0  0  0  0  0  0  0  0
    3.5041   -7.6336    2.5909 C   0  0  0  0  0  0  0  0  0  0  0  0
    3.3668   -7.4281    1.2596 O   0  0  0  0  0  0  0  0  0  0  0  0
    5.4077   -5.7639    2.9502 C   0  0  2  0  0  0  0  0  0  0  0  0
    4.7401   -4.3887    3.3848 C   0  0  0  0  0  0  0  0  0  0  0  0
    3.8576   -3.4893    2.4641 C   0  0  2  0  0  0  0  0  0  0  0  0
    2.5775   -4.0589    2.1462 O   0  0  0  0  0  0  0  0  0  0  0  0
    2.7029   -4.7001    0.8928 N   0  0  0  0  0  0  0  0  0  0  0  0
    3.7823   -4.2781    0.4137 C   0  0  0  0  0  0  0  0  0  0  0  0
    4.7407   -5.0091   -0.4497 C   0  0  0  0  0  0  0  0  0  0  0  0
    6.0257   -4.8580    0.3983 C   0  0  1  0  0  0  0  0  0  0  0  0
    5.9704   -3.4016    0.9377 C   0  0  1  0  0  0  0  0  0  0  0  0
    6.6278   -2.3475    0.0224 C   0  0  0  0  0  0  0  0  0  0  0  0
    6.2817   -1.1578    0.1854 O   0  0  0  0  0  0  0  0  0  0  0  0
    7.4961   -2.7145   -0.7926 O   0  0  0  0  0  0  0  0  0  0  0  0
    4.4488   -3.1719    1.1085 C   0  0  2  0  0  0  0  0  0  0  0  0
    6.1743   -5.9102    1.5597 C   0  0  1  0  0  0  0  0  0  0  0  0
    7.6567   -6.0713    1.9519 C   0  0  0  0  0  0  0  0  0  0  0  0
    7.6768   -6.7234    3.2814 N   0  0  0  0  0  0  0  0  0  0  0  0
    7.4803   -8.1980    3.1223 C   0  0  0  0  0  0  0  0  0  0  0  0
    8.9856   -6.5168    3.9649 C   0  0  0  0  0  0  0  0  0  0  0  0
    6.5669   -5.9973    3.9862 C   0  0  2  0  0  0  0  0  0  0  0  0
    5.9497   -6.7047    5.2168 C   0  0  0  0  0  0  0  0  0  0  0  0
    0.2470  -10.6457    2.2159 H   0  0  0  0  0  0  0  0  0  0  0  0
    0.3746   -9.9766    3.8305 H   0  0  0  0  0  0  0  0  0  0  0  0
    1.5887  -11.1332    3.2399 H   0  0  0  0  0  0  0  0  0  0  0  0
    2.2977   -9.6807    5.0679 H   0  0  0  0  0  0  0  0  0  0  0  0
    4.1466   -8.6209    6.3155 H   0  0  0  0  0  0  0  0  0  0  0  0
    3.8928   -6.7176    0.9384 H   0  0  0  0  0  0  0  0  0  0  0  0
    4.1841   -4.5562    4.3092 H   0  0  0  0  0  0  0  0  0  0  0  0
    5.5308   -3.7062    3.6952 H   0  0  0  0  0  0  0  0  0  0  0  0
    3.6844   -2.5539    2.9969 H   0  0  0  0  0  0  0  0  0  0  0  0
    4.4395   -6.0356   -0.6375 H   0  0  0  0  0  0  0  0  0  0  0  0
    4.8058   -4.4972   -1.4112 H   0  0  0  0  0  0  0  0  0  0  0  0
    6.8602   -4.9981   -0.2826 H   0  0  0  0  0  0  0  0  0  0  0  0
    6.5188   -3.2966    1.8682 H   0  0  0  0  0  0  0  0  0  0  0  0
    4.0692   -2.2318    0.6996 H   0  0  0  0  0  0  0  0  0  0  0  0
    5.9034   -6.8749    1.1275 H   0  0  0  0  0  0  0  0  0  0  0  0
    8.2454   -6.6170    1.2096 H   0  0  0  0  0  0  0  0  0  0  0  0
    8.1164   -5.0853    2.0485 H   0  0  0  0  0  0  0  0  0  0  0  0
    7.4822   -8.7153    4.0807 H   0  0  0  0  0  0  0  0  0  0  0  0
    8.3059   -8.6150    2.5453 H   0  0  0  0  0  0  0  0  0  0  0  0
    6.5652   -8.4631    2.5931 H   0  0  0  0  0  0  0  0  0  0  0  0
    8.9835   -6.9865    4.9494 H   0  0  0  0  0  0  0  0  0  0  0  0
    9.2155   -5.4610    4.1021 H   0  0  0  0  0  0  0  0  0  0  0  0
    9.8004   -6.9650    3.3929 H   0  0  0  0  0  0  0  0  0  0  0  0
    7.0091   -5.0587    4.3259 H   0  0  0  0  0  0  0  0  0  0  0  0
    5.6042   -5.9545    5.9239 H   0  0  0  0  0  0  0  0  0  0  0  0
    6.6141   -7.3918    5.7459 H   0  0  0  0  0  0  0  0  0  0  0  0
  1  2  1  0
  1 30  1  0
  1 31  1  0
  1 32  1  0
  2  3  1  0
  3  8  2  0
  3  4  1  0
  4  5  2  0
  4 33  1  0
  5  6  1  0
  5 34  1  0
  6 29  1  0
  6  7  2  0
  7  8  1  0
  7 10  1  0
  8  9  1  0
  9 35  1  0
 10 23  1  0
 10 28  1  0
 10 11  1  1
 11 12  1  0
 11 36  1  0
 11 37  1  0
 12 22  1  0
 12 13  1  0
 12 38  1  1
 13 14  1  0
 14 15  2  0
 15 22  1  0
 15 16  1  0
 16 17  1  0
 16 39  1  0
 16 40  1  0
 17 18  1  0
 17 23  1  0
 17 41  1  6
 18 19  1  0
 18 22  1  0
 18 42  1  1
 19 20  2  0
 19 21  1  0
 22 43  1  6
 23 24  1  0
 23 44  1  6
 24 25  1  0
 24 45  1  0
 24 46  1  0
 25 26  1  0
 25 27  1  0
 25 28  1  0
 26 47  1  0
 26 48  1  0
 26 49  1  0
 27 50  1  0
 27 51  1  0
 27 52  1  0
 28 29  1  0
 28 53  1  1
 29 54  1  0
 29 55  1  0
M  CHG  2  21  -1  25   1
M  END
>  <i_m_ct_stereo_status>  (314) 
1

>  <s_m_source_file>  (314) 
/var/tmp/pbs.5076255.sched01/tmp8hdfbsd6/1003312lgh9.sdf

>  <i_m_source_file_index>  (314) 
23

>  <i_lp_mmshare_version>  (314) 
48012

>  <i_f3d_flags>  (314) 
0

>  <s_epik_input>  (314) 
W0NIM11PYyhjMVtPSF0pW2NIXVtjSF1jKGMxW0NAXTIzNClbQ0gyXVtDQEhdNFtOK10oW0NIM10pKFtDSDNdKVtDSDJdW0NAQEhdM1tDQEhdNVtDSDJdQzZbQ0BASF0oW0NASF0oW0NIMl0yKU9OPTYpW0NAQEhdNUMoPU8pW09IXQ==

>  <s_epik_cmdline>  (314) 
J2VwaWtfcHl0aG9uJywgJy1waHQnLCAnMi4wJywgJy1waCcsICc3LjAnLCAnLXRuJywgJzgnLCAnLW1hJywgJzIwMCcsICctaW1hZScsICc8aW5maWxlLm1hZT4nLCAnLW9tYWUnLCAnPG91dGZpbGUubWFlPic=

>  <r_lp_tautomer_probability>  (314) 
1

>  <r_epik_Ionization_Penalty>  (314) 
0.00124148

>  <r_epik_Ionization_Penalty_Charging>  (314) 
0.000336216

>  <r_epik_Ionization_Penalty_Neutral>  (314) 
0.000905268

>  <r_epik_State_Penalty>  (314) 
-0

>  <r_epik_Charging_Adjusted_Penalty>  (314) 
0.000336216

>  <i_epik_Tot_Q>  (314) 
0

>  <i_epik_Tot_abs_Q>  (314) 
2

>  <s_epik_Chemistry_Notes>  (314) 
This compound has an imine and may undergo hydrolysis.

>  <s_lp_Force_Field>  (314) 
OPLS3e

>  <r_lp_Energy>  (314) 
43.9017

>  <b_lp_Chiralities_Consistent>  (314) 
1

>  <s_lp_Variant>  (314) 
74:0-1

>  <s_i_glide_gridfile>  (314) 
pfpi4k_grid

>  <i_i_glide_lignum>  (314) 
23

>  <i_i_glide_rotatable_bonds>  (314) 
3

>  <r_i_docking_score>  (314) 
-2.53944

>  <r_i_glide_ligand_efficiency>  (314) 
-0.087567

>  <r_i_glide_ligand_efficiency_sa>  (314) 
-0.269034

>  <r_i_glide_ligand_efficiency_ln>  (314) 
-0.581468

>  <r_i_glide_gscore>  (314) 
-2.53944

>  <r_i_glide_lipo>  (314) 
-0.441368

>  <r_i_glide_hbond>  (314) 
-0.0696882

>  <r_i_glide_metal>  (314) 
-0

>  <r_i_glide_rewards>  (314) 
-0.721217

>  <r_i_glide_evdw>  (314) 
-20.0399

>  <r_i_glide_ecoul>  (314) 
-1.80766

>  <r_i_glide_erotb>  (314) 
0

>  <r_i_glide_esite>  (314) 
-0.0340297

>  <r_i_glide_emodel>  (314) 
-27.6249

>  <r_i_glide_energy>  (314) 
-21.8475

>  <r_i_glide_einternal>  (314) 
0.134995

>  <r_i_glide_intrahb_reward>  (314) 
-0

>  <i_i_glide_confnum>  (314) 
2

>  <i_i_glide_posenum>  (314) 
2

>  <r_i_glide_eff_state_penalty>  (314) 
0

>  <ligand_id>  (314) 
74

>  <original_smiles>  (314) 
COc1ccc2c(c1O)C13CC4ON=C5CC(C(C(=O)O)C54)C1C[N+](C)(C)C3C2

>  <smiles>  (314) 
[H]Oc1c(OC([H])([H])[H])c([H])c([H])c2c1C13C([H])([H])C4([H])ON=C5C([H])([H])C([H])(C([H])(C(=O)[O-])C54[H])C1([H])C([H])([H])[N+](C([H])([H])[H])(C([H])([H])[H])C3([H])C2([H])[H]

$$$$
75:0:0
     RDKit          3D

 27 30  0  0  1  0  0  0  0  0999 V2000
    4.8294   -2.4223   -3.2706 O   0  0  0  0  0  0  0  0  0  0  0  0
    4.5185   -3.0015   -2.2211 C   0  0  0  0  0  0  0  0  0  0  0  0
    3.2773   -3.0560   -1.7307 O   0  0  0  0  0  0  0  0  0  0  0  0
    3.2651   -3.7740   -0.5174 C   0  0  2  0  0  0  0  0  0  0  0  0
    3.2815   -2.7506    0.6587 C   0  0  0  0  0  0  0  0  0  0  0  0
    4.6669   -2.0520    1.0485 C   0  0  1  0  0  0  0  0  0  0  0  0
    4.5848   -1.5008    2.3849 N   0  0  0  0  0  0  0  0  0  0  0  0
    5.0127   -0.2586    2.6918 N   0  0  0  0  0  0  0  0  0  0  0  0
    4.7922   -0.2517    4.0035 C   0  0  0  0  0  0  0  0  0  0  0  0
    4.2727   -1.4242    4.4851 N   0  0  0  0  0  0  0  0  0  0  0  0
    4.1631   -2.2193    3.4564 N   0  0  0  0  0  0  0  0  0  0  0  0
    6.0290   -2.8758    0.9081 C   0  0  1  0  0  0  0  0  0  0  0  0
    5.8738   -4.1689    1.5177 O   0  0  0  0  0  0  0  0  0  0  0  0
    4.9903   -5.0784    0.8363 C   0  0  0  0  0  0  0  0  0  0  0  0
    4.5683   -4.4914   -0.5019 C   0  0  0  0  0  0  0  0  0  0  0  0
    5.3928   -3.7403   -1.2872 C   0  0  0  0  0  0  0  0  0  0  0  0
    6.5697   -3.0595   -0.5672 C   0  0  1  0  0  0  0  0  0  0  0  0
    6.8435   -1.8596   -1.0146 O   0  0  0  0  0  0  0  0  0  0  0  0
    2.4206   -4.4657   -0.4440 H   0  0  0  0  0  0  0  0  0  0  0  0
    2.5499   -1.9687    0.4584 H   0  0  0  0  0  0  0  0  0  0  0  0
    2.8878   -3.2772    1.5196 H   0  0  0  0  0  0  0  0  0  0  0  0
    4.7445   -1.1879    0.3860 H   0  0  0  0  0  0  0  0  0  0  0  0
    5.0124    0.5896    4.6221 H   0  0  0  0  0  0  0  0  0  0  0  0
    6.7961   -2.3628    1.4838 H   0  0  0  0  0  0  0  0  0  0  0  0
    5.5365   -5.9936    0.6473 H   0  0  0  0  0  0  0  0  0  0  0  0
    4.1281   -5.3414    1.4484 H   0  0  0  0  0  0  0  0  0  0  0  0
    7.3369   -3.8351   -0.5057 H   0  0  0  0  0  0  0  0  0  0  0  0
  1  2  2  0
  2 16  1  0
  2  3  1  0
  3  4  1  0
  4 15  1  0
  4  5  1  0
  4 19  1  6
  5  6  1  0
  5 20  1  0
  5 21  1  0
  6  7  1  0
  6 12  1  0
  6 22  1  6
  7 11  1  0
  7  8  1  0
  8  9  2  0
  9 10  1  0
  9 23  1  0
 10 11  2  0
 12 17  1  0
 12 13  1  0
 12 24  1  1
 13 14  1  0
 14 15  1  0
 14 25  1  0
 14 26  1  0
 15 16  2  0
 16 17  1  0
 17 18  1  0
 17 27  1  1
M  CHG  1  18  -1
M  END
>  <i_m_ct_stereo_status>  (315) 
1

>  <s_m_source_file>  (315) 
/var/tmp/pbs.5076255.sched01/tmp8hdfbsd6/1003312lgh9.sdf

>  <i_m_source_file_index>  (315) 
24

>  <i_lp_mmshare_version>  (315) 
48012

>  <i_f3d_flags>  (315) 
0

>  <s_epik_input>  (315) 
Tz1DKE8xKUMoPUMyW0NASF0xMylbQ0BASF0oW09IXSlbQ0BIXShPW0NIMl0yKVtDQEBIXShbQ0gyXTMpbjRuW2NIXW5uNA==

>  <s_epik_cmdline>  (315) 
J2VwaWtfcHl0aG9uJywgJy1waHQnLCAnMi4wJywgJy1waCcsICc3LjAnLCAnLXRuJywgJzgnLCAnLW1hJywgJzIwMCcsICctaW1hZScsICc8aW5maWxlLm1hZT4nLCAnLW9tYWUnLCAnPG91dGZpbGUubWFlPic=

>  <r_lp_tautomer_probability>  (315) 
0.999841

>  <r_epik_Ionization_Penalty>  (315) 
0.26131

>  <r_epik_Ionization_Penalty_Charging>  (315) 
0.261308

>  <r_epik_Ionization_Penalty_Neutral>  (315) 
1.45372e-06

>  <r_epik_State_Penalty>  (315) 
0.253051

>  <r_epik_Charging_Adjusted_Penalty>  (315) 
0.51436

>  <i_epik_Tot_Q>  (315) 
-1

>  <i_epik_Tot_abs_Q>  (315) 
1

>  <s_epik_Chemistry_Notes>  (315) 
This compound has an ester and may undergo hydrolysis at high or low pH.

>  <s_lp_Force_Field>  (315) 
OPLS3e

>  <r_lp_Energy>  (315) 
58.544

>  <b_lp_Chiralities_Consistent>  (315) 
1

>  <s_lp_Variant>  (315) 
75:0-1

>  <s_i_glide_gridfile>  (315) 
pfpi4k_grid

>  <i_i_glide_lignum>  (315) 
24

>  <i_i_glide_rotatable_bonds>  (315) 
1

>  <r_i_docking_score>  (315) 
-3.83585

>  <r_i_glide_ligand_efficiency>  (315) 
-0.213103

>  <r_i_glide_ligand_efficiency_sa>  (315) 
-0.558487

>  <r_i_glide_ligand_efficiency_ln>  (315) 
-0.985985

>  <r_i_glide_gscore>  (315) 
-3.83585

>  <r_i_glide_lipo>  (315) 
-0.264722

>  <r_i_glide_hbond>  (315) 
-0.228442

>  <r_i_glide_metal>  (315) 
-0

>  <r_i_glide_rewards>  (315) 
-1.90374

>  <r_i_glide_evdw>  (315) 
-22.1501

>  <r_i_glide_ecoul>  (315) 
-4.08651

>  <r_i_glide_erotb>  (315) 
0.281537

>  <r_i_glide_esite>  (315) 
0

>  <r_i_glide_emodel>  (315) 
-35.1255

>  <r_i_glide_energy>  (315) 
-26.2366

>  <r_i_glide_einternal>  (315) 
0.360164

>  <r_i_glide_intrahb_reward>  (315) 
-0

>  <i_i_glide_confnum>  (315) 
2

>  <i_i_glide_posenum>  (315) 
9

>  <r_i_glide_eff_state_penalty>  (315) 
0

>  <ligand_id>  (315) 
75

>  <original_smiles>  (315) 
O=C1OC2CC(n3ncnn3)C3OCC2=C1C3O

>  <smiles>  (315) 
[H]c1nnn(C2([H])C([H])([H])C3([H])OC(=O)C4=C3C([H])([H])OC2([H])C4([H])[O-])n1

$$$$
75:0:1
     RDKit          3D

 27 30  0  0  1  0  0  0  0  0999 V2000
    5.3994   -5.4261    2.6562 O   0  0  0  0  0  0  0  0  0  0  0  0
    5.0334   -4.2967    2.3128 C   0  0  0  0  0  0  0  0  0  0  0  0
    3.7663   -3.8648    2.3465 O   0  0  0  0  0  0  0  0  0  0  0  0
    3.6930   -2.5351    1.8731 C   0  0  2  0  0  0  0  0  0  0  0  0
    3.2762   -2.5646    0.3681 C   0  0  0  0  0  0  0  0  0  0  0  0
    4.3703   -2.9404   -0.7301 C   0  0  1  0  0  0  0  0  0  0  0  0
    3.8815   -2.5441   -2.0461 N   0  0  0  0  0  0  0  0  0  0  0  0
    2.7572   -3.0603   -2.5795 N   0  0  0  0  0  0  0  0  0  0  0  0
    2.7595   -2.4638   -3.7615 C   0  0  0  0  0  0  0  0  0  0  0  0
    3.8192   -1.6263   -3.9598 N   0  0  0  0  0  0  0  0  0  0  0  0
    4.5178   -1.6612   -2.8603 N   0  0  0  0  0  0  0  0  0  0  0  0
    5.8864   -2.4722   -0.5145 C   0  0  1  0  0  0  0  0  0  0  0  0
    5.9212   -1.0814   -0.1449 O   0  0  0  0  0  0  0  0  0  0  0  0
    5.3912   -0.7698    1.1582 C   0  0  0  0  0  0  0  0  0  0  0  0
    5.1000   -2.0584    1.9215 C   0  0  0  0  0  0  0  0  0  0  0  0
    5.8617   -3.1714    1.8234 C   0  0  0  0  0  0  0  0  0  0  0  0
    6.7095   -3.2937    0.5488 C   0  0  1  0  0  0  0  0  0  0  0  0
    6.7852   -4.5171    0.0870 O   0  0  0  0  0  0  0  0  0  0  0  0
    3.0350   -1.9121    2.4808 H   0  0  0  0  0  0  0  0  0  0  0  0
    2.4287   -3.2449    0.2724 H   0  0  0  0  0  0  0  0  0  0  0  0
    2.8705   -1.5847    0.1258 H   0  0  0  0  0  0  0  0  0  0  0  0
    4.3781   -4.0312   -0.7712 H   0  0  0  0  0  0  0  0  0  0  0  0
    2.0034   -2.6438   -4.4933 H   0  0  0  0  0  0  0  0  0  0  0  0
    6.4372   -2.5636   -1.4497 H   0  0  0  0  0  0  0  0  0  0  0  0
    6.1647   -0.2434    1.7066 H   0  0  0  0  0  0  0  0  0  0  0  0
    4.5144   -0.1262    1.1057 H   0  0  0  0  0  0  0  0  0  0  0  0
    7.6042   -2.7042    0.7492 H   0  0  0  0  0  0  0  0  0  0  0  0
  1  2  2  0
  2 16  1  0
  2  3  1  0
  3  4  1  0
  4 15  1  0
  4  5  1  0
  4 19  1  1
  5  6  1  0
  5 20  1  0
  5 21  1  0
  6  7  1  0
  6 12  1  0
  6 22  1  6
  7 11  1  0
  7  8  1  0
  8  9  2  0
  9 10  1  0
  9 23  1  0
 10 11  2  0
 12 17  1  0
 12 13  1  0
 12 24  1  6
 13 14  1  0
 14 15  1  0
 14 25  1  0
 14 26  1  0
 15 16  2  0
 16 17  1  0
 17 18  1  0
 17 27  1  1
M  CHG  1  18  -1
M  END
>  <i_m_ct_stereo_status>  (316) 
1

>  <s_m_source_file>  (316) 
/var/tmp/pbs.5076255.sched01/tmp8hdfbsd6/1003312lgh9.sdf

>  <i_m_source_file_index>  (316) 
24

>  <i_lp_mmshare_version>  (316) 
48012

>  <i_f3d_flags>  (316) 
0

>  <s_epik_input>  (316) 
Tz1DKE8xKUMoPUMyW0NASF0xMylbQ0BASF0oW09IXSlbQ0BIXShPW0NIMl0yKVtDQEBIXShbQ0gyXTMpbjRuW2NIXW5uNA==

>  <s_epik_cmdline>  (316) 
J2VwaWtfcHl0aG9uJywgJy1waHQnLCAnMi4wJywgJy1waCcsICc3LjAnLCAnLXRuJywgJzgnLCAnLW1hJywgJzIwMCcsICctaW1hZScsICc8aW5maWxlLm1hZT4nLCAnLW9tYWUnLCAnPG91dGZpbGUubWFlPic=

>  <r_lp_tautomer_probability>  (316) 
0.999841

>  <r_epik_Ionization_Penalty>  (316) 
0.26131

>  <r_epik_Ionization_Penalty_Charging>  (316) 
0.261308

>  <r_epik_Ionization_Penalty_Neutral>  (316) 
1.45372e-06

>  <r_epik_State_Penalty>  (316) 
0.253051

>  <r_epik_Charging_Adjusted_Penalty>  (316) 
0.51436

>  <i_epik_Tot_Q>  (316) 
-1

>  <i_epik_Tot_abs_Q>  (316) 
1

>  <s_epik_Chemistry_Notes>  (316) 
This compound has an ester and may undergo hydrolysis at high or low pH.

>  <s_lp_Force_Field>  (316) 
OPLS3e

>  <r_lp_Energy>  (316) 
58.544

>  <b_lp_Chiralities_Consistent>  (316) 
1

>  <s_lp_Variant>  (316) 
75:0-1

>  <s_i_glide_gridfile>  (316) 
pfpi4k_grid

>  <i_i_glide_lignum>  (316) 
24

>  <i_i_glide_rotatable_bonds>  (316) 
1

>  <r_i_docking_score>  (316) 
-3.6298

>  <r_i_glide_ligand_efficiency>  (316) 
-0.201656

>  <r_i_glide_ligand_efficiency_sa>  (316) 
-0.528488

>  <r_i_glide_ligand_efficiency_ln>  (316) 
-0.933022

>  <r_i_glide_gscore>  (316) 
-3.6298

>  <r_i_glide_lipo>  (316) 
-0.34491

>  <r_i_glide_hbond>  (316) 
-0.00045677

>  <r_i_glide_metal>  (316) 
-0

>  <r_i_glide_rewards>  (316) 
-2.03538

>  <r_i_glide_evdw>  (316) 
-25.5773

>  <r_i_glide_ecoul>  (316) 
-1.56491

>  <r_i_glide_erotb>  (316) 
0.281537

>  <r_i_glide_esite>  (316) 
-0.0169947

>  <r_i_glide_emodel>  (316) 
-35.153

>  <r_i_glide_energy>  (316) 
-27.1422

>  <r_i_glide_einternal>  (316) 
0.772141

>  <r_i_glide_intrahb_reward>  (316) 
-0

>  <i_i_glide_confnum>  (316) 
4

>  <i_i_glide_posenum>  (316) 
4

>  <r_i_glide_eff_state_penalty>  (316) 
0

>  <ligand_id>  (316) 
75

>  <original_smiles>  (316) 
O=C1OC2CC(n3ncnn3)C3OCC2=C1C3O

>  <smiles>  (316) 
[H]c1nnn(C2([H])C([H])([H])C3([H])OC(=O)C4=C3C([H])([H])OC2([H])C4([H])[O-])n1

$$$$
75:0:2
     RDKit          3D

 27 30  0  0  1  0  0  0  0  0999 V2000
    4.8000   -2.7456   -3.1901 O   0  0  0  0  0  0  0  0  0  0  0  0
    4.4790   -3.2033   -2.0862 C   0  0  0  0  0  0  0  0  0  0  0  0
    3.2407   -3.2127   -1.5957 O   0  0  0  0  0  0  0  0  0  0  0  0
    3.2262   -3.7501   -0.2860 C   0  0  2  0  0  0  0  0  0  0  0  0
    3.2274   -2.5785    0.7518 C   0  0  0  0  0  0  0  0  0  0  0  0
    4.5862   -1.7989    1.0224 C   0  0  1  0  0  0  0  0  0  0  0  0
    4.4551   -1.0274    2.2596 N   0  0  0  0  0  0  0  0  0  0  0  0
    3.6625    0.0556    2.3587 N   0  0  0  0  0  0  0  0  0  0  0  0
    3.9234    0.4290    3.6026 C   0  0  0  0  0  0  0  0  0  0  0  0
    4.8140   -0.3751    4.2427 N   0  0  0  0  0  0  0  0  0  0  0  0
    5.1259   -1.3036    3.3983 N   0  0  0  0  0  0  0  0  0  0  0  0
    5.9630   -2.6125    1.0104 C   0  0  1  0  0  0  0  0  0  0  0  0
    5.8247   -3.8206    1.7868 O   0  0  0  0  0  0  0  0  0  0  0  0
    4.9654   -4.8366    1.2350 C   0  0  0  0  0  0  0  0  0  0  0  0
    4.5396   -4.4428   -0.1785 C   0  0  0  0  0  0  0  0  0  0  0  0
    5.3466   -3.7889   -1.0340 C   0  0  0  0  0  0  0  0  0  0  0  0
    6.5261   -2.9876   -0.4208 C   0  0  1  0  0  0  0  0  0  0  0  0
    6.7930   -1.8680   -1.0360 O   0  0  0  0  0  0  0  0  0  0  0  0
    2.4022   -4.4452   -0.1341 H   0  0  0  0  0  0  0  0  0  0  0  0
    2.4709   -1.8601    0.4385 H   0  0  0  0  0  0  0  0  0  0  0  0
    2.8496   -2.9723    1.6942 H   0  0  0  0  0  0  0  0  0  0  0  0
    4.6577   -1.0410    0.2355 H   0  0  0  0  0  0  0  0  0  0  0  0
    3.4858    1.3076    4.0581 H   0  0  0  0  0  0  0  0  0  0  0  0
    6.7408   -2.0171    1.4956 H   0  0  0  0  0  0  0  0  0  0  0  0
    5.5386   -5.7613    1.1811 H   0  0  0  0  0  0  0  0  0  0  0  0
    4.1067   -5.0214    1.8758 H   0  0  0  0  0  0  0  0  0  0  0  0
    7.3222   -3.7269   -0.2574 H   0  0  0  0  0  0  0  0  0  0  0  0
  1  2  2  0
  2 16  1  0
  2  3  1  0
  3  4  1  0
  4 15  1  0
  4  5  1  0
  4 19  1  6
  5  6  1  0
  5 20  1  0
  5 21  1  0
  6  7  1  0
  6 12  1  0
  6 22  1  6
  7 11  1  0
  7  8  1  0
  8  9  2  0
  9 10  1  0
  9 23  1  0
 10 11  2  0
 12 17  1  0
 12 13  1  0
 12 24  1  1
 13 14  1  0
 14 15  1  0
 14 25  1  0
 14 26  1  0
 15 16  2  0
 16 17  1  0
 17 18  1  0
 17 27  1  1
M  CHG  1  18  -1
M  END
>  <i_m_ct_stereo_status>  (317) 
1

>  <s_m_source_file>  (317) 
/var/tmp/pbs.5076255.sched01/tmp8hdfbsd6/1003312lgh9.sdf

>  <i_m_source_file_index>  (317) 
24

>  <i_lp_mmshare_version>  (317) 
48012

>  <i_f3d_flags>  (317) 
0

>  <s_epik_input>  (317) 
Tz1DKE8xKUMoPUMyW0NASF0xMylbQ0BASF0oW09IXSlbQ0BIXShPW0NIMl0yKVtDQEBIXShbQ0gyXTMpbjRuW2NIXW5uNA==

>  <s_epik_cmdline>  (317) 
J2VwaWtfcHl0aG9uJywgJy1waHQnLCAnMi4wJywgJy1waCcsICc3LjAnLCAnLXRuJywgJzgnLCAnLW1hJywgJzIwMCcsICctaW1hZScsICc8aW5maWxlLm1hZT4nLCAnLW9tYWUnLCAnPG91dGZpbGUubWFlPic=

>  <r_lp_tautomer_probability>  (317) 
0.999841

>  <r_epik_Ionization_Penalty>  (317) 
0.26131

>  <r_epik_Ionization_Penalty_Charging>  (317) 
0.261308

>  <r_epik_Ionization_Penalty_Neutral>  (317) 
1.45372e-06

>  <r_epik_State_Penalty>  (317) 
0.253051

>  <r_epik_Charging_Adjusted_Penalty>  (317) 
0.51436

>  <i_epik_Tot_Q>  (317) 
-1

>  <i_epik_Tot_abs_Q>  (317) 
1

>  <s_epik_Chemistry_Notes>  (317) 
This compound has an ester and may undergo hydrolysis at high or low pH.

>  <s_lp_Force_Field>  (317) 
OPLS3e

>  <r_lp_Energy>  (317) 
58.544

>  <b_lp_Chiralities_Consistent>  (317) 
1

>  <s_lp_Variant>  (317) 
75:0-1

>  <s_i_glide_gridfile>  (317) 
pfpi4k_grid

>  <i_i_glide_lignum>  (317) 
24

>  <i_i_glide_rotatable_bonds>  (317) 
1

>  <r_i_docking_score>  (317) 
-3.6222

>  <r_i_glide_ligand_efficiency>  (317) 
-0.201233

>  <r_i_glide_ligand_efficiency_sa>  (317) 
-0.52738

>  <r_i_glide_ligand_efficiency_ln>  (317) 
-0.931067

>  <r_i_glide_gscore>  (317) 
-3.6222

>  <r_i_glide_lipo>  (317) 
-0.232766

>  <r_i_glide_hbond>  (317) 
-0.2

>  <r_i_glide_metal>  (317) 
-0

>  <r_i_glide_rewards>  (317) 
-1.78344

>  <r_i_glide_evdw>  (317) 
-22.5528

>  <r_i_glide_ecoul>  (317) 
-3.69238

>  <r_i_glide_erotb>  (317) 
0.281537

>  <r_i_glide_esite>  (317) 
-0.00603787

>  <r_i_glide_emodel>  (317) 
-34.4422

>  <r_i_glide_energy>  (317) 
-26.2451

>  <r_i_glide_einternal>  (317) 
0.43258

>  <r_i_glide_intrahb_reward>  (317) 
-0

>  <i_i_glide_confnum>  (317) 
4

>  <i_i_glide_posenum>  (317) 
12

>  <r_i_glide_eff_state_penalty>  (317) 
0

>  <ligand_id>  (317) 
75

>  <original_smiles>  (317) 
O=C1OC2CC(n3ncnn3)C3OCC2=C1C3O

>  <smiles>  (317) 
[H]c1nnn(C2([H])C([H])([H])C3([H])OC(=O)C4=C3C([H])([H])OC2([H])C4([H])[O-])n1

$$$$
75:1:0
     RDKit          3D

 28 31  0  0  1  0  0  0  0  0999 V2000
    2.6483   -3.5058    2.5187 O   0  0  0  0  0  0  0  0  0  0  0  0
    3.6708   -3.0224    2.0285 C   0  0  0  0  0  0  0  0  0  0  0  0
    3.9892   -1.7255    2.0282 O   0  0  0  0  0  0  0  0  0  0  0  0
    5.1691   -1.5093    1.2814 C   0  0  2  0  0  0  0  0  0  0  0  0
    4.7403   -1.0694   -0.1468 C   0  0  0  0  0  0  0  0  0  0  0  0
    4.1440   -2.1553   -1.1505 C   0  0  1  0  0  0  0  0  0  0  0  0
    4.0746   -1.5868   -2.5064 N   0  0  0  0  0  0  0  0  0  0  0  0
    4.0031   -0.2594   -2.7293 N   0  0  0  0  0  0  0  0  0  0  0  0
    3.8045   -0.2410   -4.0306 C   0  0  0  0  0  0  0  0  0  0  0  0
    3.8130   -1.4705   -4.5990 N   0  0  0  0  0  0  0  0  0  0  0  0
    3.9283   -2.3183   -3.6311 N   0  0  0  0  0  0  0  0  0  0  0  0
    4.8282   -3.5928   -1.1498 C   0  0  1  0  0  0  0  0  0  0  0  0
    6.2464   -3.4188   -1.1639 O   0  0  0  0  0  0  0  0  0  0  0  0
    6.8254   -3.0708    0.0969 C   0  0  0  0  0  0  0  0  0  0  0  0
    5.7696   -2.8657    1.1721 C   0  0  0  0  0  0  0  0  0  0  0  0
    4.7573   -3.7274    1.3192 C   0  0  0  0  0  0  0  0  0  0  0  0
    4.4580   -4.5189    0.0558 C   0  0  1  0  0  0  0  0  0  0  0  0
    3.1116   -4.9426   -0.0689 O   0  0  0  0  0  0  0  0  0  0  0  0
    5.8476   -0.7968    1.7516 H   0  0  0  0  0  0  0  0  0  0  0  0
    4.0153   -0.2608   -0.0300 H   0  0  0  0  0  0  0  0  0  0  0  0
    5.6117   -0.6099   -0.6124 H   0  0  0  0  0  0  0  0  0  0  0  0
    3.1029   -2.3150   -0.8566 H   0  0  0  0  0  0  0  0  0  0  0  0
    3.6920    0.6775   -4.5936 H   0  0  0  0  0  0  0  0  0  0  0  0
    4.5708   -4.1535   -2.0459 H   0  0  0  0  0  0  0  0  0  0  0  0
    7.4572   -3.9009    0.4094 H   0  0  0  0  0  0  0  0  0  0  0  0
    7.4690   -2.1971   -0.0050 H   0  0  0  0  0  0  0  0  0  0  0  0
    5.0948   -5.4036    0.0367 H   0  0  0  0  0  0  0  0  0  0  0  0
    3.0196   -5.3838   -0.9097 H   0  0  0  0  0  0  0  0  0  0  0  0
  1  2  2  0
  2 16  1  0
  2  3  1  0
  3  4  1  0
  4 15  1  0
  4  5  1  0
  4 19  1  1
  5  6  1  0
  5 20  1  0
  5 21  1  0
  6  7  1  0
  6 12  1  0
  6 22  1  1
  7 11  1  0
  7  8  1  0
  8  9  2  0
  9 10  1  0
  9 23  1  0
 10 11  2  0
 12 17  1  0
 12 13  1  0
 12 24  1  6
 13 14  1  0
 14 15  1  0
 14 25  1  0
 14 26  1  0
 15 16  2  0
 16 17  1  0
 17 18  1  0
 17 27  1  1
 18 28  1  0
M  END
>  <i_m_ct_stereo_status>  (318) 
1

>  <s_m_source_file>  (318) 
/var/tmp/pbs.5076255.sched01/tmp8hdfbsd6/1003312lgh9.sdf

>  <i_m_source_file_index>  (318) 
25

>  <i_lp_mmshare_version>  (318) 
48012

>  <i_f3d_flags>  (318) 
0

>  <s_epik_input>  (318) 
Tz1DKE8xKUMoPUMyW0NASF0xMylbQ0BASF0oW09IXSlbQ0BIXShPW0NIMl0yKVtDQEBIXShbQ0gyXTMpbjRuW2NIXW5uNA==

>  <s_epik_cmdline>  (318) 
J2VwaWtfcHl0aG9uJywgJy1waHQnLCAnMi4wJywgJy1waCcsICc3LjAnLCAnLXRuJywgJzgnLCAnLW1hJywgJzIwMCcsICctaW1hZScsICc8aW5maWxlLm1hZT4nLCAnLW9tYWUnLCAnPG91dGZpbGUubWFlPic=

>  <r_lp_tautomer_probability>  (318) 
0.999841

>  <r_epik_Ionization_Penalty>  (318) 
0.610887

>  <r_epik_Ionization_Penalty_Charging>  (318) 
0

>  <r_epik_Ionization_Penalty_Neutral>  (318) 
0.610887

>  <r_epik_State_Penalty>  (318) 
0.626077

>  <r_epik_Charging_Adjusted_Penalty>  (318) 
0.626077

>  <i_epik_Tot_Q>  (318) 
0

>  <i_epik_Tot_abs_Q>  (318) 
0

>  <s_epik_Chemistry_Notes>  (318) 
This compound has an ester and may undergo hydrolysis at high or low pH.

>  <s_lp_Force_Field>  (318) 
OPLS3e

>  <r_lp_Energy>  (318) 
47.8981

>  <b_lp_Chiralities_Consistent>  (318) 
1

>  <s_lp_Variant>  (318) 
75:0-2

>  <s_i_glide_gridfile>  (318) 
pfpi4k_grid

>  <i_i_glide_lignum>  (318) 
25

>  <i_i_glide_rotatable_bonds>  (318) 
2

>  <r_i_docking_score>  (318) 
-4.2443

>  <r_i_glide_ligand_efficiency>  (318) 
-0.235795

>  <r_i_glide_ligand_efficiency_sa>  (318) 
-0.617957

>  <r_i_glide_ligand_efficiency_ln>  (318) 
-1.09098

>  <r_i_glide_gscore>  (318) 
-4.2443

>  <r_i_glide_lipo>  (318) 
-0.318592

>  <r_i_glide_hbond>  (318) 
0

>  <r_i_glide_metal>  (318) 
-0

>  <r_i_glide_rewards>  (318) 
-2.04461

>  <r_i_glide_evdw>  (318) 
-24.1467

>  <r_i_glide_ecoul>  (318) 
-5.65416

>  <r_i_glide_erotb>  (318) 
0.279596

>  <r_i_glide_esite>  (318) 
-0.105234

>  <r_i_glide_emodel>  (318) 
-36.4188

>  <r_i_glide_energy>  (318) 
-29.8009

>  <r_i_glide_einternal>  (318) 
2.82713

>  <r_i_glide_intrahb_reward>  (318) 
-0

>  <i_i_glide_confnum>  (318) 
2

>  <i_i_glide_posenum>  (318) 
36

>  <r_i_glide_eff_state_penalty>  (318) 
0

>  <ligand_id>  (318) 
75

>  <original_smiles>  (318) 
O=C1OC2CC(n3ncnn3)C3OCC2=C1C3O

>  <smiles>  (318) 
[H]OC1([H])C2=C3C([H])([H])OC1([H])C([H])(n1nnc([H])n1)C([H])([H])C3([H])OC2=O

$$$$
75:1:1
     RDKit          3D

 28 31  0  0  1  0  0  0  0  0999 V2000
    3.3608   -5.0553    1.8232 O   0  0  0  0  0  0  0  0  0  0  0  0
    3.8956   -3.9613    1.6803 C   0  0  0  0  0  0  0  0  0  0  0  0
    3.3015   -2.7817    1.8943 O   0  0  0  0  0  0  0  0  0  0  0  0
    4.1565   -1.7202    1.5242 C   0  0  2  0  0  0  0  0  0  0  0  0
    3.7334   -1.2668    0.0991 C   0  0  0  0  0  0  0  0  0  0  0  0
    4.0893   -2.2088   -1.1260 C   0  0  1  0  0  0  0  0  0  0  0  0
    3.8701   -1.5054   -2.3825 N   0  0  0  0  0  0  0  0  0  0  0  0
    3.2700   -2.0513   -3.4569 N   0  0  0  0  0  0  0  0  0  0  0  0
    3.3541   -1.0396   -4.3070 C   0  0  0  0  0  0  0  0  0  0  0  0
    4.0056    0.0355   -3.8149 N   0  0  0  0  0  0  0  0  0  0  0  0
    4.3742   -0.2760   -2.6209 N   0  0  0  0  0  0  0  0  0  0  0  0
    5.5129   -2.8822   -1.1501 C   0  0  1  0  0  0  0  0  0  0  0  0
    6.4981   -1.9049   -0.7875 O   0  0  0  0  0  0  0  0  0  0  0  0
    6.5537   -1.6155    0.6161 C   0  0  0  0  0  0  0  0  0  0  0  0
    5.4936   -2.3714    1.4119 C   0  0  0  0  0  0  0  0  0  0  0  0
    5.2549   -3.6616    1.1906 C   0  0  0  0  0  0  0  0  0  0  0  0
    5.6757   -4.1178   -0.1927 C   0  0  1  0  0  0  0  0  0  0  0  0
    4.9848   -5.2541   -0.6851 O   0  0  0  0  0  0  0  0  0  0  0  0
    4.1678   -0.9002    2.2419 H   0  0  0  0  0  0  0  0  0  0  0  0
    2.6551   -1.1133    0.1202 H   0  0  0  0  0  0  0  0  0  0  0  0
    4.1596   -0.2744   -0.0430 H   0  0  0  0  0  0  0  0  0  0  0  0
    3.3626   -3.0201   -1.1169 H   0  0  0  0  0  0  0  0  0  0  0  0
    3.0055   -1.0593   -5.3177 H   0  0  0  0  0  0  0  0  0  0  0  0
    5.7451   -3.2035   -2.1670 H   0  0  0  0  0  0  0  0  0  0  0  0
    7.5206   -1.9605    0.9702 H   0  0  0  0  0  0  0  0  0  0  0  0
    6.4980   -0.5408    0.7987 H   0  0  0  0  0  0  0  0  0  0  0  0
    6.7303   -4.3886   -0.1462 H   0  0  0  0  0  0  0  0  0  0  0  0
    4.2346   -5.0052   -1.2117 H   0  0  0  0  0  0  0  0  0  0  0  0
  1  2  2  0
  2 16  1  0
  2  3  1  0
  3  4  1  0
  4 15  1  0
  4  5  1  0
  4 19  1  1
  5  6  1  0
  5 20  1  0
  5 21  1  0
  6  7  1  0
  6 12  1  0
  6 22  1  6
  7 11  1  0
  7  8  1  0
  8  9  2  0
  9 10  1  0
  9 23  1  0
 10 11  2  0
 12 17  1  0
 12 13  1  0
 12 24  1  6
 13 14  1  0
 14 15  1  0
 14 25  1  0
 14 26  1  0
 15 16  2  0
 16 17  1  0
 17 18  1  0
 17 27  1  1
 18 28  1  0
M  END
>  <i_m_ct_stereo_status>  (319) 
1

>  <s_m_source_file>  (319) 
/var/tmp/pbs.5076255.sched01/tmp8hdfbsd6/1003312lgh9.sdf

>  <i_m_source_file_index>  (319) 
25

>  <i_lp_mmshare_version>  (319) 
48012

>  <i_f3d_flags>  (319) 
0

>  <s_epik_input>  (319) 
Tz1DKE8xKUMoPUMyW0NASF0xMylbQ0BASF0oW09IXSlbQ0BIXShPW0NIMl0yKVtDQEBIXShbQ0gyXTMpbjRuW2NIXW5uNA==

>  <s_epik_cmdline>  (319) 
J2VwaWtfcHl0aG9uJywgJy1waHQnLCAnMi4wJywgJy1waCcsICc3LjAnLCAnLXRuJywgJzgnLCAnLW1hJywgJzIwMCcsICctaW1hZScsICc8aW5maWxlLm1hZT4nLCAnLW9tYWUnLCAnPG91dGZpbGUubWFlPic=

>  <r_lp_tautomer_probability>  (319) 
0.999841

>  <r_epik_Ionization_Penalty>  (319) 
0.610887

>  <r_epik_Ionization_Penalty_Charging>  (319) 
0

>  <r_epik_Ionization_Penalty_Neutral>  (319) 
0.610887

>  <r_epik_State_Penalty>  (319) 
0.626077

>  <r_epik_Charging_Adjusted_Penalty>  (319) 
0.626077

>  <i_epik_Tot_Q>  (319) 
0

>  <i_epik_Tot_abs_Q>  (319) 
0

>  <s_epik_Chemistry_Notes>  (319) 
This compound has an ester and may undergo hydrolysis at high or low pH.

>  <s_lp_Force_Field>  (319) 
OPLS3e

>  <r_lp_Energy>  (319) 
47.8981

>  <b_lp_Chiralities_Consistent>  (319) 
1

>  <s_lp_Variant>  (319) 
75:0-2

>  <s_i_glide_gridfile>  (319) 
pfpi4k_grid

>  <i_i_glide_lignum>  (319) 
25

>  <i_i_glide_rotatable_bonds>  (319) 
2

>  <r_i_docking_score>  (319) 
-3.57835

>  <r_i_glide_ligand_efficiency>  (319) 
-0.198797

>  <r_i_glide_ligand_efficiency_sa>  (319) 
-0.520996

>  <r_i_glide_ligand_efficiency_ln>  (319) 
-0.919796

>  <r_i_glide_gscore>  (319) 
-3.57835

>  <r_i_glide_lipo>  (319) 
-0.216971

>  <r_i_glide_hbond>  (319) 
-0.16

>  <r_i_glide_metal>  (319) 
-0

>  <r_i_glide_rewards>  (319) 
-1.79336

>  <r_i_glide_evdw>  (319) 
-22.3962

>  <r_i_glide_ecoul>  (319) 
-3.48311

>  <r_i_glide_erotb>  (319) 
0.279596

>  <r_i_glide_esite>  (319) 
-0.0453349

>  <r_i_glide_emodel>  (319) 
-32.0027

>  <r_i_glide_energy>  (319) 
-25.8793

>  <r_i_glide_einternal>  (319) 
0.707413

>  <r_i_glide_intrahb_reward>  (319) 
-0

>  <i_i_glide_confnum>  (319) 
2

>  <i_i_glide_posenum>  (319) 
1

>  <r_i_glide_eff_state_penalty>  (319) 
0

>  <ligand_id>  (319) 
75

>  <original_smiles>  (319) 
O=C1OC2CC(n3ncnn3)C3OCC2=C1C3O

>  <smiles>  (319) 
[H]OC1([H])C2=C3C([H])([H])OC1([H])C([H])(n1nnc([H])n1)C([H])([H])C3([H])OC2=O

$$$$
75:1:2
     RDKit          3D

 28 31  0  0  1  0  0  0  0  0999 V2000
    2.4183   -2.5609   -3.2793 O   0  0  0  0  0  0  0  0  0  0  0  0
    2.8777   -3.0133   -2.2373 C   0  0  0  0  0  0  0  0  0  0  0  0
    2.1770   -3.5533   -1.2280 O   0  0  0  0  0  0  0  0  0  0  0  0
    3.0338   -3.9214   -0.1678 C   0  0  2  0  0  0  0  0  0  0  0  0
    2.9457   -2.7926    0.8960 C   0  0  0  0  0  0  0  0  0  0  0  0
    3.6549   -1.4147    0.5693 C   0  0  1  0  0  0  0  0  0  0  0  0
    3.7081   -0.5788    1.7641 N   0  0  0  0  0  0  0  0  0  0  0  0
    2.9569    0.5261    1.9200 N   0  0  0  0  0  0  0  0  0  0  0  0
    3.3807    0.9139    3.1131 C   0  0  0  0  0  0  0  0  0  0  0  0
    4.3209    0.0824    3.6746 N   0  0  0  0  0  0  0  0  0  0  0  0
    4.5158   -0.8677    2.8192 N   0  0  0  0  0  0  0  0  0  0  0  0
    5.0667   -1.4422   -0.1228 C   0  0  1  0  0  0  0  0  0  0  0  0
    5.8900   -2.4221    0.5123 O   0  0  0  0  0  0  0  0  0  0  0  0
    5.5697   -3.7757    0.1771 C   0  0  0  0  0  0  0  0  0  0  0  0
    4.3910   -3.8634   -0.7825 C   0  0  0  0  0  0  0  0  0  0  0  0
    4.3004   -3.0690   -1.8472 C   0  0  0  0  0  0  0  0  0  0  0  0
    5.0578   -1.7602   -1.6591 C   0  0  1  0  0  0  0  0  0  0  0  0
    4.5753   -0.6577   -2.4099 O   0  0  0  0  0  0  0  0  0  0  0  0
    2.8218   -4.9094    0.2420 H   0  0  0  0  0  0  0  0  0  0  0  0
    1.8917   -2.5927    1.0918 H   0  0  0  0  0  0  0  0  0  0  0  0
    3.3408   -3.1833    1.8316 H   0  0  0  0  0  0  0  0  0  0  0  0
    3.0134   -0.8805   -0.1309 H   0  0  0  0  0  0  0  0  0  0  0  0
    3.0474    1.8279    3.5849 H   0  0  0  0  0  0  0  0  0  0  0  0
    5.5512   -0.4759    0.0253 H   0  0  0  0  0  0  0  0  0  0  0  0
    6.4311   -4.1829   -0.3451 H   0  0  0  0  0  0  0  0  0  0  0  0
    5.4089   -4.3888    1.0643 H   0  0  0  0  0  0  0  0  0  0  0  0
    6.0836   -1.9377   -1.9746 H   0  0  0  0  0  0  0  0  0  0  0  0
    3.6716   -0.4731   -2.1702 H   0  0  0  0  0  0  0  0  0  0  0  0
  1  2  2  0
  2 16  1  0
  2  3  1  0
  3  4  1  0
  4 15  1  0
  4  5  1  0
  4 19  1  1
  5  6  1  0
  5 20  1  0
  5 21  1  0
  6  7  1  0
  6 12  1  0
  6 22  1  6
  7 11  1  0
  7  8  1  0
  8  9  2  0
  9 10  1  0
  9 23  1  0
 10 11  2  0
 12 17  1  0
 12 13  1  0
 12 24  1  6
 13 14  1  0
 14 15  1  0
 14 25  1  0
 14 26  1  0
 15 16  2  0
 16 17  1  0
 17 18  1  0
 17 27  1  6
 18 28  1  0
M  END
>  <i_m_ct_stereo_status>  (320) 
1

>  <s_m_source_file>  (320) 
/var/tmp/pbs.5076255.sched01/tmp8hdfbsd6/1003312lgh9.sdf

>  <i_m_source_file_index>  (320) 
25

>  <i_lp_mmshare_version>  (320) 
48012

>  <i_f3d_flags>  (320) 
0

>  <s_epik_input>  (320) 
Tz1DKE8xKUMoPUMyW0NASF0xMylbQ0BASF0oW09IXSlbQ0BIXShPW0NIMl0yKVtDQEBIXShbQ0gyXTMpbjRuW2NIXW5uNA==

>  <s_epik_cmdline>  (320) 
J2VwaWtfcHl0aG9uJywgJy1waHQnLCAnMi4wJywgJy1waCcsICc3LjAnLCAnLXRuJywgJzgnLCAnLW1hJywgJzIwMCcsICctaW1hZScsICc8aW5maWxlLm1hZT4nLCAnLW9tYWUnLCAnPG91dGZpbGUubWFlPic=

>  <r_lp_tautomer_probability>  (320) 
0.999841

>  <r_epik_Ionization_Penalty>  (320) 
0.610887

>  <r_epik_Ionization_Penalty_Charging>  (320) 
0

>  <r_epik_Ionization_Penalty_Neutral>  (320) 
0.610887

>  <r_epik_State_Penalty>  (320) 
0.626077

>  <r_epik_Charging_Adjusted_Penalty>  (320) 
0.626077

>  <i_epik_Tot_Q>  (320) 
0

>  <i_epik_Tot_abs_Q>  (320) 
0

>  <s_epik_Chemistry_Notes>  (320) 
This compound has an ester and may undergo hydrolysis at high or low pH.

>  <s_lp_Force_Field>  (320) 
OPLS3e

>  <r_lp_Energy>  (320) 
47.8981

>  <b_lp_Chiralities_Consistent>  (320) 
1

>  <s_lp_Variant>  (320) 
75:0-2

>  <s_i_glide_gridfile>  (320) 
pfpi4k_grid

>  <i_i_glide_lignum>  (320) 
25

>  <i_i_glide_rotatable_bonds>  (320) 
2

>  <r_i_docking_score>  (320) 
-3.08183

>  <r_i_glide_ligand_efficiency>  (320) 
-0.171213

>  <r_i_glide_ligand_efficiency_sa>  (320) 
-0.448705

>  <r_i_glide_ligand_efficiency_ln>  (320) 
-0.792169

>  <r_i_glide_gscore>  (320) 
-3.08183

>  <r_i_glide_lipo>  (320) 
-0.0598927

>  <r_i_glide_hbond>  (320) 
0

>  <r_i_glide_metal>  (320) 
-0

>  <r_i_glide_rewards>  (320) 
-1.71065

>  <r_i_glide_evdw>  (320) 
-24.9534

>  <r_i_glide_ecoul>  (320) 
-2.17586

>  <r_i_glide_erotb>  (320) 
0.279596

>  <r_i_glide_esite>  (320) 
-0.0168304

>  <r_i_glide_emodel>  (320) 
-32.7365

>  <r_i_glide_energy>  (320) 
-27.1293

>  <r_i_glide_einternal>  (320) 
0.372811

>  <r_i_glide_intrahb_reward>  (320) 
-0

>  <i_i_glide_confnum>  (320) 
5

>  <i_i_glide_posenum>  (320) 
31

>  <r_i_glide_eff_state_penalty>  (320) 
0

>  <ligand_id>  (320) 
75

>  <original_smiles>  (320) 
O=C1OC2CC(n3ncnn3)C3OCC2=C1C3O

>  <smiles>  (320) 
[H]OC1([H])C2=C3C([H])([H])OC1([H])C([H])(n1nnc([H])n1)C([H])([H])C3([H])OC2=O

$$$$
76:0:0
     RDKit          3D

 41 45  0  0  1  0  0  0  0  0999 V2000
    6.0046   -0.7105    2.3920 C   0  0  0  0  0  0  0  0  0  0  0  0
    5.5065   -0.5435    0.9972 N   0  0  0  0  0  0  0  0  0  0  0  0
    4.1336    0.0214    1.0078 C   0  0  0  0  0  0  0  0  0  0  0  0
    5.7360   -1.7437    0.1246 C   0  0  2  0  0  0  0  0  0  0  0  0
    5.1007   -1.7343   -1.2929 C   0  0  0  0  0  0  0  0  0  0  0  0
    4.8726   -0.7421   -2.2559 C   0  0  0  0  0  0  0  0  0  0  0  0
    3.8057   -0.9090   -3.1760 C   0  0  0  0  0  0  0  0  0  0  0  0
    2.9193   -2.0007   -3.0471 C   0  0  0  0  0  0  0  0  0  0  0  0
    3.1260   -2.9923   -2.0514 C   0  0  0  0  0  0  0  0  0  0  0  0
    4.3228   -2.8642   -1.3611 C   0  0  0  0  0  0  0  0  0  0  0  0
    4.6637   -3.8715   -0.3108 C   0  0  1  0  0  0  0  0  0  0  0  0
    5.2229   -3.0509    0.7913 C   0  0  2  0  0  0  0  0  0  0  0  0
    3.8061   -3.2600    1.4533 C   0  0  2  0  0  0  0  0  0  0  0  0
    3.7180   -3.7108    2.9009 C   0  0  0  0  0  0  0  0  0  0  0  0
    3.3131   -5.1926    2.8116 C   0  0  0  0  0  0  0  0  0  0  0  0
    3.7378   -5.6713    1.4093 C   0  0  0  0  0  0  0  0  0  0  0  0
    3.5665   -4.4478    0.5309 C   0  0  2  0  0  0  0  0  0  0  0  0
    2.2466   -4.4287   -0.2572 C   0  0  0  0  0  0  0  0  0  0  0  0
    2.0710   -3.8431   -1.4617 C   0  0  0  0  0  0  0  0  0  0  0  0
    5.6434   -1.6098    2.8865 H   0  0  0  0  0  0  0  0  0  0  0  0
    5.6670    0.0987    3.0313 H   0  0  0  0  0  0  0  0  0  0  0  0
    7.0807   -0.7269    2.4454 H   0  0  0  0  0  0  0  0  0  0  0  0
    3.4139   -0.5978    1.5052 H   0  0  0  0  0  0  0  0  0  0  0  0
    3.8043    0.1612   -0.0198 H   0  0  0  0  0  0  0  0  0  0  0  0
    4.0889    0.9814    1.5408 H   0  0  0  0  0  0  0  0  0  0  0  0
    6.8094   -1.8325   -0.0434 H   0  0  0  0  0  0  0  0  0  0  0  0
    5.4347    0.1793   -2.2582 H   0  0  0  0  0  0  0  0  0  0  0  0
    3.5752   -0.1216   -3.8795 H   0  0  0  0  0  0  0  0  0  0  0  0
    1.9974   -2.0025   -3.6020 H   0  0  0  0  0  0  0  0  0  0  0  0
    5.3389   -4.6259   -0.6992 H   0  0  0  0  0  0  0  0  0  0  0  0
    5.9979   -3.5878    1.3517 H   0  0  0  0  0  0  0  0  0  0  0  0
    3.0196   -2.6086    1.1311 H   0  0  0  0  0  0  0  0  0  0  0  0
    4.6789   -3.6160    3.4229 H   0  0  0  0  0  0  0  0  0  0  0  0
    3.0002   -3.1102    3.4560 H   0  0  0  0  0  0  0  0  0  0  0  0
    3.7361   -5.7793    3.6223 H   0  0  0  0  0  0  0  0  0  0  0  0
    2.2240   -5.2371    2.8774 H   0  0  0  0  0  0  0  0  0  0  0  0
    4.8041   -5.9059    1.4516 H   0  0  0  0  0  0  0  0  0  0  0  0
    3.1956   -6.5506    1.0479 H   0  0  0  0  0  0  0  0  0  0  0  0
    1.4538   -5.0492    0.1387 H   0  0  0  0  0  0  0  0  0  0  0  0
    1.1627   -3.9401   -2.0231 H   0  0  0  0  0  0  0  0  0  0  0  0
    6.1120    0.1943    0.5980 H   0  0  0  0  0  0  0  0  0  0  0  0
  1  2  1  0
  1 20  1  0
  1 21  1  0
  1 22  1  0
  2  3  1  0
  2  4  1  0
  2 41  1  0
  3 23  1  0
  3 24  1  0
  3 25  1  0
  4 12  1  0
  4  5  1  0
  4 26  1  6
  5 10  2  0
  5  6  1  0
  6  7  2  0
  6 27  1  0
  7  8  1  0
  7 28  1  0
  8  9  2  0
  8 29  1  0
  9 19  1  0
  9 10  1  0
 10 11  1  0
 11 17  1  0
 11 12  1  0
 11 30  1  6
 12 13  1  0
 12 31  1  1
 13 17  1  0
 13 14  1  0
 13 32  1  1
 14 15  1  0
 14 33  1  0
 14 34  1  0
 15 16  1  0
 15 35  1  0
 15 36  1  0
 17 16  1  1
 16 37  1  0
 16 38  1  0
 17 18  1  0
 18 19  2  0
 18 39  1  0
 19 40  1  0
M  CHG  1   2   1
M  END
>  <i_m_ct_stereo_status>  (321) 
1

>  <s_m_source_file>  (321) 
/var/tmp/pbs.5076255.sched01/tmp8hdfbsd6/1003312lgh9.sdf

>  <i_m_source_file_index>  (321) 
26

>  <i_lp_mmshare_version>  (321) 
48012

>  <i_f3d_flags>  (321) 
2

>  <s_epik_input>  (321) 
W0NIMl0xW0NIMl1bQ0gyXVtDQEBIXTJbQ0BASF0zW0NASF0oTihbQ0gzXSlbQ0gzXSljKGM0W0NAQEhdM1tDQEBdMTI1KVtjSF1bY0hdW2NIXWM0W0NIXT1bQ0hdNQ==

>  <s_epik_cmdline>  (321) 
J2VwaWtfcHl0aG9uJywgJy1waHQnLCAnMi4wJywgJy1waCcsICc3LjAnLCAnLXRuJywgJzgnLCAnLW1hJywgJzIwMCcsICctaW1hZScsICc8aW5maWxlLm1hZT4nLCAnLW9tYWUnLCAnPG91dGZpbGUubWFlPic=

>  <r_epik_Ionization_Penalty>  (321) 
0.0322845

>  <r_epik_Ionization_Penalty_Charging>  (321) 
0.0322845

>  <r_epik_Ionization_Penalty_Neutral>  (321) 
0

>  <r_epik_State_Penalty>  (321) 
0.0267346

>  <r_epik_Charging_Adjusted_Penalty>  (321) 
0.0590191

>  <i_epik_Tot_Q>  (321) 
1

>  <i_epik_Tot_abs_Q>  (321) 
1

>  <s_lp_Force_Field>  (321) 
OPLS3e

>  <r_lp_Energy>  (321) 
81.9633

>  <b_lp_Chiralities_Consistent>  (321) 
0

>  <s_lp_Variant>  (321) 
76:0-1

>  <s_i_glide_gridfile>  (321) 
pfpi4k_grid

>  <i_i_glide_lignum>  (321) 
26

>  <i_i_glide_rotatable_bonds>  (321) 
1

>  <r_i_docking_score>  (321) 
-2.90964

>  <r_i_glide_ligand_efficiency>  (321) 
-0.153139

>  <r_i_glide_ligand_efficiency_sa>  (321) 
-0.408636

>  <r_i_glide_ligand_efficiency_ln>  (321) 
-0.737656

>  <r_i_glide_gscore>  (321) 
-2.90964

>  <r_i_glide_lipo>  (321) 
-0.338151

>  <r_i_glide_hbond>  (321) 
0

>  <r_i_glide_metal>  (321) 
-0

>  <r_i_glide_rewards>  (321) 
-1.68836

>  <r_i_glide_evdw>  (321) 
-13.943

>  <r_i_glide_ecoul>  (321) 
-1.23985

>  <r_i_glide_erotb>  (321) 
0

>  <r_i_glide_esite>  (321) 
0

>  <r_i_glide_emodel>  (321) 
-13.5222

>  <r_i_glide_energy>  (321) 
-15.1829

>  <r_i_glide_einternal>  (321) 
4.80976

>  <r_i_glide_intrahb_reward>  (321) 
-0

>  <i_i_glide_confnum>  (321) 
2

>  <i_i_glide_posenum>  (321) 
11

>  <r_i_glide_eff_state_penalty>  (321) 
0

>  <ligand_id>  (321) 
76

>  <original_smiles>  (321) 
CN(C)C1c2cccc3c2C2C1C1CCCC12C=C3

>  <smiles>  (321) 
[H]C1=C([H])C23C([H])([H])C([H])([H])C([H])([H])C2([H])C2([H])C3([H])c3c1c([H])c([H])c([H])c3C2([H])[N+]([H])(C([H])([H])[H])C([H])([H])[H]

$$$$
76:0:1
     RDKit          3D

 41 45  0  0  1  0  0  0  0  0999 V2000
    5.0161    0.0573    3.1192 C   0  0  0  0  0  0  0  0  0  0  0  0
    4.5325   -1.3314    3.2762 N   0  0  0  0  0  0  0  0  0  0  0  0
    4.6438   -1.7520    4.6963 C   0  0  0  0  0  0  0  0  0  0  0  0
    5.1489   -2.3251    2.3467 C   0  0  2  0  0  0  0  0  0  0  0  0
    5.1398   -1.9857    0.8431 C   0  0  0  0  0  0  0  0  0  0  0  0
    5.3808   -0.8382    0.0699 C   0  0  0  0  0  0  0  0  0  0  0  0
    4.8359   -0.7890   -1.2430 C   0  0  0  0  0  0  0  0  0  0  0  0
    3.9870   -1.8179   -1.7275 C   0  0  0  0  0  0  0  0  0  0  0  0
    3.7718   -2.9846   -0.9764 C   0  0  0  0  0  0  0  0  0  0  0  0
    4.5091   -3.0501    0.2046 C   0  0  0  0  0  0  0  0  0  0  0  0
    4.3797   -4.2492    1.0755 C   0  0  1  0  0  0  0  0  0  0  0  0
    4.3906   -3.6765    2.4554 C   0  0  2  0  0  0  0  0  0  0  0  0
    2.8322   -3.8568    2.3801 C   0  0  2  0  0  0  0  0  0  0  0  0
    2.0877   -4.5821    3.4971 C   0  0  0  0  0  0  0  0  0  0  0  0
    1.7973   -5.9992    2.9525 C   0  0  0  0  0  0  0  0  0  0  0  0
    2.8123   -6.2422    1.8272 C   0  0  0  0  0  0  0  0  0  0  0  0
    3.0173   -4.8612    1.2296 C   0  0  2  0  0  0  0  0  0  0  0  0
    2.2126   -4.6530   -0.0652 C   0  0  0  0  0  0  0  0  0  0  0  0
    2.6000   -3.8546   -1.0912 C   0  0  0  0  0  0  0  0  0  0  0  0
    6.1041    0.1094    3.1172 H   0  0  0  0  0  0  0  0  0  0  0  0
    4.6641    0.6871    3.9309 H   0  0  0  0  0  0  0  0  0  0  0  0
    4.6223    0.5079    2.2165 H   0  0  0  0  0  0  0  0  0  0  0  0
    5.6825   -1.7991    5.0116 H   0  0  0  0  0  0  0  0  0  0  0  0
    4.1971   -2.7227    4.8770 H   0  0  0  0  0  0  0  0  0  0  0  0
    4.1318   -1.0537    5.3481 H   0  0  0  0  0  0  0  0  0  0  0  0
    6.1924   -2.4638    2.6083 H   0  0  0  0  0  0  0  0  0  0  0  0
    5.8883    0.0241    0.4827 H   0  0  0  0  0  0  0  0  0  0  0  0
    4.9304    0.1059   -1.8400 H   0  0  0  0  0  0  0  0  0  0  0  0
    3.4142   -1.6451   -2.6254 H   0  0  0  0  0  0  0  0  0  0  0  0
    5.1540   -4.9795    0.8930 H   0  0  0  0  0  0  0  0  0  0  0  0
    4.8146   -4.3738    3.1802 H   0  0  0  0  0  0  0  0  0  0  0  0
    2.3576   -2.9461    2.0337 H   0  0  0  0  0  0  0  0  0  0  0  0
    2.7101   -4.6554    4.3903 H   0  0  0  0  0  0  0  0  0  0  0  0
    1.1671   -4.0700    3.7873 H   0  0  0  0  0  0  0  0  0  0  0  0
    1.8256   -6.7653    3.7252 H   0  0  0  0  0  0  0  0  0  0  0  0
    0.7974   -6.0091    2.5167 H   0  0  0  0  0  0  0  0  0  0  0  0
    3.7425   -6.5763    2.2776 H   0  0  0  0  0  0  0  0  0  0  0  0
    2.5049   -7.0019    1.1052 H   0  0  0  0  0  0  0  0  0  0  0  0
    1.3497   -5.2675   -0.1960 H   0  0  0  0  0  0  0  0  0  0  0  0
    2.0379   -3.8199   -2.0144 H   0  0  0  0  0  0  0  0  0  0  0  0
    3.5450   -1.3108    3.0520 H   0  0  0  0  0  0  0  0  0  0  0  0
  1  2  1  0
  1 20  1  0
  1 21  1  0
  1 22  1  0
  2  3  1  0
  2  4  1  0
  2 41  1  0
  3 23  1  0
  3 24  1  0
  3 25  1  0
  4 12  1  0
  4  5  1  0
  4 26  1  1
  5 10  2  0
  5  6  1  0
  6  7  2  0
  6 27  1  0
  7  8  1  0
  7 28  1  0
  8  9  2  0
  8 29  1  0
  9 19  1  0
  9 10  1  0
 10 11  1  0
 11 17  1  0
 11 12  1  0
 11 30  1  1
 12 13  1  0
 12 31  1  1
 13 17  1  0
 13 14  1  0
 13 32  1  6
 14 15  1  0
 14 33  1  0
 14 34  1  0
 15 16  1  0
 15 35  1  0
 15 36  1  0
 17 16  1  1
 16 37  1  0
 16 38  1  0
 17 18  1  0
 18 19  2  0
 18 39  1  0
 19 40  1  0
M  CHG  1   2   1
M  END
>  <i_m_ct_stereo_status>  (322) 
1

>  <s_m_source_file>  (322) 
/var/tmp/pbs.5076255.sched01/tmp8hdfbsd6/1003312lgh9.sdf

>  <i_m_source_file_index>  (322) 
26

>  <i_lp_mmshare_version>  (322) 
48012

>  <i_f3d_flags>  (322) 
2

>  <s_epik_input>  (322) 
W0NIMl0xW0NIMl1bQ0gyXVtDQEBIXTJbQ0BASF0zW0NASF0oTihbQ0gzXSlbQ0gzXSljKGM0W0NAQEhdM1tDQEBdMTI1KVtjSF1bY0hdW2NIXWM0W0NIXT1bQ0hdNQ==

>  <s_epik_cmdline>  (322) 
J2VwaWtfcHl0aG9uJywgJy1waHQnLCAnMi4wJywgJy1waCcsICc3LjAnLCAnLXRuJywgJzgnLCAnLW1hJywgJzIwMCcsICctaW1hZScsICc8aW5maWxlLm1hZT4nLCAnLW9tYWUnLCAnPG91dGZpbGUubWFlPic=

>  <r_epik_Ionization_Penalty>  (322) 
0.0322845

>  <r_epik_Ionization_Penalty_Charging>  (322) 
0.0322845

>  <r_epik_Ionization_Penalty_Neutral>  (322) 
0

>  <r_epik_State_Penalty>  (322) 
0.0267346

>  <r_epik_Charging_Adjusted_Penalty>  (322) 
0.0590191

>  <i_epik_Tot_Q>  (322) 
1

>  <i_epik_Tot_abs_Q>  (322) 
1

>  <s_lp_Force_Field>  (322) 
OPLS3e

>  <r_lp_Energy>  (322) 
81.9633

>  <b_lp_Chiralities_Consistent>  (322) 
0

>  <s_lp_Variant>  (322) 
76:0-1

>  <s_i_glide_gridfile>  (322) 
pfpi4k_grid

>  <i_i_glide_lignum>  (322) 
26

>  <i_i_glide_rotatable_bonds>  (322) 
1

>  <r_i_docking_score>  (322) 
-2.73023

>  <r_i_glide_ligand_efficiency>  (322) 
-0.143696

>  <r_i_glide_ligand_efficiency_sa>  (322) 
-0.38344

>  <r_i_glide_ligand_efficiency_ln>  (322) 
-0.692172

>  <r_i_glide_gscore>  (322) 
-2.73023

>  <r_i_glide_lipo>  (322) 
-0.30467

>  <r_i_glide_hbond>  (322) 
0

>  <r_i_glide_metal>  (322) 
-0

>  <r_i_glide_rewards>  (322) 
-1.68836

>  <r_i_glide_evdw>  (322) 
-12.4169

>  <r_i_glide_ecoul>  (322) 
-0.775735

>  <r_i_glide_erotb>  (322) 
0

>  <r_i_glide_esite>  (322) 
0

>  <r_i_glide_emodel>  (322) 
-15.2525

>  <r_i_glide_energy>  (322) 
-13.1926

>  <r_i_glide_einternal>  (322) 
0.00204762

>  <r_i_glide_intrahb_reward>  (322) 
-0

>  <i_i_glide_confnum>  (322) 
2

>  <i_i_glide_posenum>  (322) 
35

>  <r_i_glide_eff_state_penalty>  (322) 
0

>  <ligand_id>  (322) 
76

>  <original_smiles>  (322) 
CN(C)C1c2cccc3c2C2C1C1CCCC12C=C3

>  <smiles>  (322) 
[H]C1=C([H])C23C([H])([H])C([H])([H])C([H])([H])C2([H])C2([H])C3([H])c3c1c([H])c([H])c([H])c3C2([H])[N+]([H])(C([H])([H])[H])C([H])([H])[H]

$$$$
76:1:0
     RDKit          3D

 40 44  0  0  1  0  0  0  0  0999 V2000
    8.0565   -1.8644    0.5895 C   0  0  0  0  0  0  0  0  0  0  0  0
    6.9452   -1.5344   -0.2981 N   0  0  0  0  0  0  0  0  0  0  0  0
    5.8976   -0.8362    0.4472 C   0  0  0  0  0  0  0  0  0  0  0  0
    6.5027   -2.7110   -1.0580 C   0  0  2  0  0  0  0  0  0  0  0  0
    5.2839   -2.5357   -1.9877 C   0  0  0  0  0  0  0  0  0  0  0  0
    4.7793   -1.4486   -2.7350 C   0  0  0  0  0  0  0  0  0  0  0  0
    3.4009   -1.4391   -3.0565 C   0  0  0  0  0  0  0  0  0  0  0  0
    2.5405   -2.4158   -2.5090 C   0  0  0  0  0  0  0  0  0  0  0  0
    3.0129   -3.4464   -1.6873 C   0  0  0  0  0  0  0  0  0  0  0  0
    4.4048   -3.5234   -1.6232 C   0  0  0  0  0  0  0  0  0  0  0  0
    5.0230   -4.6172   -0.8162 C   0  0  1  0  0  0  0  0  0  0  0  0
    6.1405   -3.9146   -0.1262 C   0  0  2  0  0  0  0  0  0  0  0  0
    5.1560   -3.8656    1.1002 C   0  0  2  0  0  0  0  0  0  0  0  0
    5.6689   -4.3335    2.4589 C   0  0  0  0  0  0  0  0  0  0  0  0
    5.0875   -5.7474    2.6517 C   0  0  0  0  0  0  0  0  0  0  0  0
    4.7725   -6.2800    1.2388 C   0  0  0  0  0  0  0  0  0  0  0  0
    4.3600   -5.0183    0.4790 C   0  0  2  0  0  0  0  0  0  0  0  0
    2.8390   -4.8367    0.3647 C   0  0  0  0  0  0  0  0  0  0  0  0
    2.2475   -4.2013   -0.6790 C   0  0  0  0  0  0  0  0  0  0  0  0
    9.0028   -2.0848    0.0796 H   0  0  0  0  0  0  0  0  0  0  0  0
    7.8271   -2.7086    1.2457 H   0  0  0  0  0  0  0  0  0  0  0  0
    8.2244   -1.0197    1.2443 H   0  0  0  0  0  0  0  0  0  0  0  0
    5.1073   -0.5221   -0.2551 H   0  0  0  0  0  0  0  0  0  0  0  0
    6.3026    0.1077    0.8548 H   0  0  0  0  0  0  0  0  0  0  0  0
    5.4968   -1.4354    1.2328 H   0  0  0  0  0  0  0  0  0  0  0  0
    7.3110   -3.0201   -1.7163 H   0  0  0  0  0  0  0  0  0  0  0  0
    5.3934   -0.6009   -2.9504 H   0  0  0  0  0  0  0  0  0  0  0  0
    2.9580   -0.5892   -3.5666 H   0  0  0  0  0  0  0  0  0  0  0  0
    1.4725   -2.2552   -2.5837 H   0  0  0  0  0  0  0  0  0  0  0  0
    5.3159   -5.4414   -1.4358 H   0  0  0  0  0  0  0  0  0  0  0  0
    6.9797   -4.5879    0.0551 H   0  0  0  0  0  0  0  0  0  0  0  0
    4.4846   -3.0243    1.0939 H   0  0  0  0  0  0  0  0  0  0  0  0
    6.7610   -4.3898    2.4728 H   0  0  0  0  0  0  0  0  0  0  0  0
    5.3797   -3.6407    3.2428 H   0  0  0  0  0  0  0  0  0  0  0  0
    5.7557   -6.3952    3.2214 H   0  0  0  0  0  0  0  0  0  0  0  0
    4.1548   -5.6389    3.2054 H   0  0  0  0  0  0  0  0  0  0  0  0
    5.6940   -6.6701    0.8099 H   0  0  0  0  0  0  0  0  0  0  0  0
    4.0135   -7.0656    1.2191 H   0  0  0  0  0  0  0  0  0  0  0  0
    2.2507   -5.3202    1.1274 H   0  0  0  0  0  0  0  0  0  0  0  0
    1.1773   -4.1864   -0.7961 H   0  0  0  0  0  0  0  0  0  0  0  0
  1  2  1  0
  1 20  1  0
  1 21  1  0
  1 22  1  0
  2  3  1  0
  2  4  1  0
  3 23  1  0
  3 24  1  0
  3 25  1  0
  4 12  1  0
  4  5  1  0
  4 26  1  6
  5 10  2  0
  5  6  1  0
  6  7  2  0
  6 27  1  0
  7  8  1  0
  7 28  1  0
  8  9  2  0
  8 29  1  0
  9 19  1  0
  9 10  1  0
 10 11  1  0
 11 17  1  0
 11 12  1  0
 11 30  1  6
 12 13  1  0
 12 31  1  1
 13 17  1  0
 13 14  1  0
 13 32  1  1
 14 15  1  0
 14 33  1  0
 14 34  1  0
 15 16  1  0
 15 35  1  0
 15 36  1  0
 17 16  1  1
 16 37  1  0
 16 38  1  0
 17 18  1  0
 18 19  2  0
 18 39  1  0
 19 40  1  0
M  END
>  <i_m_ct_stereo_status>  (323) 
1

>  <s_m_source_file>  (323) 
/var/tmp/pbs.5076255.sched01/tmp8hdfbsd6/1003312lgh9.sdf

>  <i_m_source_file_index>  (323) 
27

>  <i_lp_mmshare_version>  (323) 
48012

>  <i_f3d_flags>  (323) 
2

>  <s_epik_input>  (323) 
W0NIMl0xW0NIMl1bQ0gyXVtDQEBIXTJbQ0BASF0zW0NASF0oTihbQ0gzXSlbQ0gzXSljKGM0W0NAQEhdM1tDQEBdMTI1KVtjSF1bY0hdW2NIXWM0W0NIXT1bQ0hdNQ==

>  <s_epik_cmdline>  (323) 
J2VwaWtfcHl0aG9uJywgJy1waHQnLCAnMi4wJywgJy1waCcsICc3LjAnLCAnLXRuJywgJzgnLCAnLW1hJywgJzIwMCcsICctaW1hZScsICc8aW5maWxlLm1hZT4nLCAnLW9tYWUnLCAnPG91dGZpbGUubWFlPic=

>  <r_epik_Ionization_Penalty>  (323) 
1.74005

>  <r_epik_Ionization_Penalty_Charging>  (323) 
0

>  <r_epik_Ionization_Penalty_Neutral>  (323) 
1.74005

>  <r_epik_State_Penalty>  (323) 
1.84906

>  <r_epik_Charging_Adjusted_Penalty>  (323) 
1.84906

>  <i_epik_Tot_Q>  (323) 
0

>  <i_epik_Tot_abs_Q>  (323) 
0

>  <s_lp_Force_Field>  (323) 
OPLS3e

>  <r_lp_Energy>  (323) 
83.0506

>  <b_lp_Chiralities_Consistent>  (323) 
0

>  <s_lp_Variant>  (323) 
76:0-2

>  <s_i_glide_gridfile>  (323) 
pfpi4k_grid

>  <i_i_glide_lignum>  (323) 
27

>  <i_i_glide_rotatable_bonds>  (323) 
1

>  <r_i_docking_score>  (323) 
-3.16958

>  <r_i_glide_ligand_efficiency>  (323) 
-0.16682

>  <r_i_glide_ligand_efficiency_sa>  (323) 
-0.445142

>  <r_i_glide_ligand_efficiency_ln>  (323) 
-0.803556

>  <r_i_glide_gscore>  (323) 
-3.16958

>  <r_i_glide_lipo>  (323) 
-0.536236

>  <r_i_glide_hbond>  (323) 
-0.124846

>  <r_i_glide_metal>  (323) 
-0

>  <r_i_glide_rewards>  (323) 
-1.69523

>  <r_i_glide_evdw>  (323) 
-10.8261

>  <r_i_glide_ecoul>  (323) 
-1.81305

>  <r_i_glide_erotb>  (323) 
0

>  <r_i_glide_esite>  (323) 
0

>  <r_i_glide_emodel>  (323) 
-11.6929

>  <r_i_glide_energy>  (323) 
-12.6391

>  <r_i_glide_einternal>  (323) 
6.08491

>  <r_i_glide_intrahb_reward>  (323) 
-0

>  <i_i_glide_confnum>  (323) 
2

>  <i_i_glide_posenum>  (323) 
4

>  <r_i_glide_eff_state_penalty>  (323) 
0

>  <ligand_id>  (323) 
76

>  <original_smiles>  (323) 
CN(C)C1c2cccc3c2C2C1C1CCCC12C=C3

>  <smiles>  (323) 
[H]C1=C([H])C23C([H])([H])C([H])([H])C([H])([H])C2([H])C2([H])C([H])(N(C([H])([H])[H])C([H])([H])[H])c4c([H])c([H])c([H])c1c4C23[H]

$$$$
76:1:1
     RDKit          3D

 40 44  0  0  1  0  0  0  0  0999 V2000
    8.8119   -3.6061   -0.2132 C   0  0  0  0  0  0  0  0  0  0  0  0
    7.9225   -4.0882    0.8385 N   0  0  0  0  0  0  0  0  0  0  0  0
    8.6697   -5.0689    1.6257 C   0  0  0  0  0  0  0  0  0  0  0  0
    6.6822   -4.6863    0.3277 C   0  0  2  0  0  0  0  0  0  0  0  0
    5.7926   -3.8206   -0.5890 C   0  0  0  0  0  0  0  0  0  0  0  0
    6.0348   -2.8804   -1.6128 C   0  0  0  0  0  0  0  0  0  0  0  0
    5.0092   -1.9510   -1.9234 C   0  0  0  0  0  0  0  0  0  0  0  0
    3.8127   -1.9124   -1.1688 C   0  0  0  0  0  0  0  0  0  0  0  0
    3.5361   -2.8709   -0.1622 C   0  0  0  0  0  0  0  0  0  0  0  0
    4.5128   -3.8620   -0.0519 C   0  0  0  0  0  0  0  0  0  0  0  0
    4.3574   -4.9156    0.9947 C   0  0  1  0  0  0  0  0  0  0  0  0
    5.7529   -5.0958    1.5041 C   0  0  2  0  0  0  0  0  0  0  0  0
    5.2876   -4.1495    2.6731 C   0  0  2  0  0  0  0  0  0  0  0  0
    5.5179   -4.5707    4.1249 C   0  0  0  0  0  0  0  0  0  0  0  0
    4.1560   -5.1004    4.6281 C   0  0  0  0  0  0  0  0  0  0  0  0
    3.3613   -5.4905    3.3736 C   0  0  0  0  0  0  0  0  0  0  0  0
    3.8233   -4.4838    2.3351 C   0  0  2  0  0  0  0  0  0  0  0  0
    2.8365   -3.3165    2.1585 C   0  0  0  0  0  0  0  0  0  0  0  0
    2.6361   -2.6652    0.9866 C   0  0  0  0  0  0  0  0  0  0  0  0
    8.4431   -2.6683   -0.6243 H   0  0  0  0  0  0  0  0  0  0  0  0
    8.9304   -4.3295   -1.0233 H   0  0  0  0  0  0  0  0  0  0  0  0
    9.7971   -3.3666    0.1884 H   0  0  0  0  0  0  0  0  0  0  0  0
    8.1027   -5.4129    2.4865 H   0  0  0  0  0  0  0  0  0  0  0  0
    9.5809   -4.6242    2.0201 H   0  0  0  0  0  0  0  0  0  0  0  0
    8.9440   -5.9400    1.0325 H   0  0  0  0  0  0  0  0  0  0  0  0
    6.9238   -5.5819   -0.2373 H   0  0  0  0  0  0  0  0  0  0  0  0
    6.9923   -2.8083   -2.1037 H   0  0  0  0  0  0  0  0  0  0  0  0
    5.1900   -1.1722   -2.6548 H   0  0  0  0  0  0  0  0  0  0  0  0
    3.1237   -1.0823   -1.2932 H   0  0  0  0  0  0  0  0  0  0  0  0
    3.9109   -5.8276    0.6080 H   0  0  0  0  0  0  0  0  0  0  0  0
    5.9240   -6.1083    1.8753 H   0  0  0  0  0  0  0  0  0  0  0  0
    5.5414   -3.1106    2.4531 H   0  0  0  0  0  0  0  0  0  0  0  0
    6.2706   -5.3599    4.1880 H   0  0  0  0  0  0  0  0  0  0  0  0
    5.8656   -3.7404    4.7442 H   0  0  0  0  0  0  0  0  0  0  0  0
    4.2551   -5.9189    5.3429 H   0  0  0  0  0  0  0  0  0  0  0  0
    3.6301   -4.2863    5.1281 H   0  0  0  0  0  0  0  0  0  0  0  0
    3.6643   -6.4930    3.0704 H   0  0  0  0  0  0  0  0  0  0  0  0
    2.2839   -5.5065    3.5233 H   0  0  0  0  0  0  0  0  0  0  0  0
    2.2035   -3.0904    3.0010 H   0  0  0  0  0  0  0  0  0  0  0  0
    1.8758   -1.9044    0.8903 H   0  0  0  0  0  0  0  0  0  0  0  0
  1  2  1  0
  1 20  1  0
  1 21  1  0
  1 22  1  0
  2  3  1  0
  2  4  1  0
  3 23  1  0
  3 24  1  0
  3 25  1  0
  4 12  1  0
  4  5  1  0
  4 26  1  6
  5 10  2  0
  5  6  1  0
  6  7  2  0
  6 27  1  0
  7  8  1  0
  7 28  1  0
  8  9  2  0
  8 29  1  0
  9 19  1  0
  9 10  1  0
 10 11  1  0
 11 17  1  0
 11 12  1  0
 11 30  1  6
 12 13  1  0
 12 31  1  1
 13 17  1  0
 13 14  1  0
 13 32  1  6
 14 15  1  0
 14 33  1  0
 14 34  1  0
 15 16  1  0
 15 35  1  0
 15 36  1  0
 17 16  1  1
 16 37  1  0
 16 38  1  0
 17 18  1  0
 18 19  2  0
 18 39  1  0
 19 40  1  0
M  END
>  <i_m_ct_stereo_status>  (324) 
1

>  <s_m_source_file>  (324) 
/var/tmp/pbs.5076255.sched01/tmp8hdfbsd6/1003312lgh9.sdf

>  <i_m_source_file_index>  (324) 
27

>  <i_lp_mmshare_version>  (324) 
48012

>  <i_f3d_flags>  (324) 
2

>  <s_epik_input>  (324) 
W0NIMl0xW0NIMl1bQ0gyXVtDQEBIXTJbQ0BASF0zW0NASF0oTihbQ0gzXSlbQ0gzXSljKGM0W0NAQEhdM1tDQEBdMTI1KVtjSF1bY0hdW2NIXWM0W0NIXT1bQ0hdNQ==

>  <s_epik_cmdline>  (324) 
J2VwaWtfcHl0aG9uJywgJy1waHQnLCAnMi4wJywgJy1waCcsICc3LjAnLCAnLXRuJywgJzgnLCAnLW1hJywgJzIwMCcsICctaW1hZScsICc8aW5maWxlLm1hZT4nLCAnLW9tYWUnLCAnPG91dGZpbGUubWFlPic=

>  <r_epik_Ionization_Penalty>  (324) 
1.74005

>  <r_epik_Ionization_Penalty_Charging>  (324) 
0

>  <r_epik_Ionization_Penalty_Neutral>  (324) 
1.74005

>  <r_epik_State_Penalty>  (324) 
1.84906

>  <r_epik_Charging_Adjusted_Penalty>  (324) 
1.84906

>  <i_epik_Tot_Q>  (324) 
0

>  <i_epik_Tot_abs_Q>  (324) 
0

>  <s_lp_Force_Field>  (324) 
OPLS3e

>  <r_lp_Energy>  (324) 
83.0506

>  <b_lp_Chiralities_Consistent>  (324) 
0

>  <s_lp_Variant>  (324) 
76:0-2

>  <s_i_glide_gridfile>  (324) 
pfpi4k_grid

>  <i_i_glide_lignum>  (324) 
27

>  <i_i_glide_rotatable_bonds>  (324) 
1

>  <r_i_docking_score>  (324) 
-2.89273

>  <r_i_glide_ligand_efficiency>  (324) 
-0.152249

>  <r_i_glide_ligand_efficiency_sa>  (324) 
-0.406261

>  <r_i_glide_ligand_efficiency_ln>  (324) 
-0.733369

>  <r_i_glide_gscore>  (324) 
-2.89273

>  <r_i_glide_lipo>  (324) 
-0.335213

>  <r_i_glide_hbond>  (324) 
0

>  <r_i_glide_metal>  (324) 
-0

>  <r_i_glide_rewards>  (324) 
-1.69523

>  <r_i_glide_evdw>  (324) 
-17.0232

>  <r_i_glide_ecoul>  (324) 
-0.0741527

>  <r_i_glide_erotb>  (324) 
0

>  <r_i_glide_esite>  (324) 
0

>  <r_i_glide_emodel>  (324) 
-20.109

>  <r_i_glide_energy>  (324) 
-17.0974

>  <r_i_glide_einternal>  (324) 
0.0415463

>  <r_i_glide_intrahb_reward>  (324) 
-0

>  <i_i_glide_confnum>  (324) 
2

>  <i_i_glide_posenum>  (324) 
18

>  <r_i_glide_eff_state_penalty>  (324) 
0

>  <ligand_id>  (324) 
76

>  <original_smiles>  (324) 
CN(C)C1c2cccc3c2C2C1C1CCCC12C=C3

>  <smiles>  (324) 
[H]C1=C([H])C23C([H])([H])C([H])([H])C([H])([H])C2([H])C2([H])C([H])(N(C([H])([H])[H])C([H])([H])[H])c4c([H])c([H])c([H])c1c4C23[H]

$$$$
76:1:2
     RDKit          3D

 40 44  0  0  1  0  0  0  0  0999 V2000
    7.0253   -1.7165    1.0580 C   0  0  0  0  0  0  0  0  0  0  0  0
    7.7989   -2.8986    0.6809 N   0  0  0  0  0  0  0  0  0  0  0  0
    8.9427   -2.5105   -0.1316 C   0  0  0  0  0  0  0  0  0  0  0  0
    7.0206   -3.9910    0.0958 C   0  0  2  0  0  0  0  0  0  0  0  0
    6.1058   -3.6317   -1.0759 C   0  0  0  0  0  0  0  0  0  0  0  0
    6.1699   -2.7064   -2.1348 C   0  0  0  0  0  0  0  0  0  0  0  0
    4.9611   -2.2873   -2.7435 C   0  0  0  0  0  0  0  0  0  0  0  0
    3.7154   -2.7241   -2.2398 C   0  0  0  0  0  0  0  0  0  0  0  0
    3.6469   -3.6745   -1.1882 C   0  0  0  0  0  0  0  0  0  0  0  0
    4.8744   -4.1865   -0.7827 C   0  0  0  0  0  0  0  0  0  0  0  0
    4.9299   -5.1768    0.3369 C   0  0  1  0  0  0  0  0  0  0  0  0
    6.1165   -4.7088    1.1267 C   0  0  2  0  0  0  0  0  0  0  0  0
    5.0422   -4.0256    2.0613 C   0  0  2  0  0  0  0  0  0  0  0  0
    5.1076   -4.2652    3.5654 C   0  0  0  0  0  0  0  0  0  0  0  0
    4.0015   -5.3039    3.8656 C   0  0  0  0  0  0  0  0  0  0  0  0
    3.7427   -6.0345    2.5374 C   0  0  0  0  0  0  0  0  0  0  0  0
    3.9766   -4.9670    1.4852 C   0  0  2  0  0  0  0  0  0  0  0  0
    2.6717   -4.3319    0.9696 C   0  0  0  0  0  0  0  0  0  0  0  0
    2.5111   -3.8470   -0.2897 C   0  0  0  0  0  0  0  0  0  0  0  0
    6.4492   -1.8917    1.9647 H   0  0  0  0  0  0  0  0  0  0  0  0
    6.3565   -1.3920    0.2615 H   0  0  0  0  0  0  0  0  0  0  0  0
    7.7006   -0.8905    1.2779 H   0  0  0  0  0  0  0  0  0  0  0  0
    9.6056   -3.3546   -0.3101 H   0  0  0  0  0  0  0  0  0  0  0  0
    9.5138   -1.7417    0.3898 H   0  0  0  0  0  0  0  0  0  0  0  0
    8.6421   -2.1048   -1.0894 H   0  0  0  0  0  0  0  0  0  0  0  0
    7.7376   -4.7241   -0.2890 H   0  0  0  0  0  0  0  0  0  0  0  0
    7.1072   -2.2665   -2.4256 H   0  0  0  0  0  0  0  0  0  0  0  0
    4.9766   -1.5303   -3.5121 H   0  0  0  0  0  0  0  0  0  0  0  0
    2.8004   -2.2674   -2.5889 H   0  0  0  0  0  0  0  0  0  0  0  0
    4.9959   -6.2117   -0.0193 H   0  0  0  0  0  0  0  0  0  0  0  0
    6.6232   -5.5341    1.6452 H   0  0  0  0  0  0  0  0  0  0  0  0
    4.7857   -3.0034    1.7680 H   0  0  0  0  0  0  0  0  0  0  0  0
    6.0849   -4.6631    3.8596 H   0  0  0  0  0  0  0  0  0  0  0  0
    4.9619   -3.3439    4.1258 H   0  0  0  0  0  0  0  0  0  0  0  0
    4.2647   -5.9754    4.6829 H   0  0  0  0  0  0  0  0  0  0  0  0
    3.0959   -4.7628    4.1499 H   0  0  0  0  0  0  0  0  0  0  0  0
    4.4877   -6.8303    2.4255 H   0  0  0  0  0  0  0  0  0  0  0  0
    2.7575   -6.5006    2.4812 H   0  0  0  0  0  0  0  0  0  0  0  0
    1.8295   -4.3545    1.6524 H   0  0  0  0  0  0  0  0  0  0  0  0
    1.5634   -3.4751   -0.6369 H   0  0  0  0  0  0  0  0  0  0  0  0
  1  2  1  0
  1 20  1  0
  1 21  1  0
  1 22  1  0
  2  3  1  0
  2  4  1  0
  3 23  1  0
  3 24  1  0
  3 25  1  0
  4 12  1  0
  4  5  1  0
  4 26  1  6
  5 10  2  0
  5  6  1  0
  6  7  2  0
  6 27  1  0
  7  8  1  0
  7 28  1  0
  8  9  2  0
  8 29  1  0
  9 19  1  0
  9 10  1  0
 10 11  1  0
 11 17  1  0
 11 12  1  0
 11 30  1  6
 12 13  1  0
 12 31  1  1
 13 17  1  0
 13 14  1  0
 13 32  1  1
 14 15  1  0
 14 33  1  0
 14 34  1  0
 15 16  1  0
 15 35  1  0
 15 36  1  0
 17 16  1  1
 16 37  1  0
 16 38  1  0
 17 18  1  0
 18 19  2  0
 18 39  1  0
 19 40  1  0
M  END
>  <i_m_ct_stereo_status>  (325) 
1

>  <s_m_source_file>  (325) 
/var/tmp/pbs.5076255.sched01/tmp8hdfbsd6/1003312lgh9.sdf

>  <i_m_source_file_index>  (325) 
27

>  <i_lp_mmshare_version>  (325) 
48012

>  <i_f3d_flags>  (325) 
2

>  <s_epik_input>  (325) 
W0NIMl0xW0NIMl1bQ0gyXVtDQEBIXTJbQ0BASF0zW0NASF0oTihbQ0gzXSlbQ0gzXSljKGM0W0NAQEhdM1tDQEBdMTI1KVtjSF1bY0hdW2NIXWM0W0NIXT1bQ0hdNQ==

>  <s_epik_cmdline>  (325) 
J2VwaWtfcHl0aG9uJywgJy1waHQnLCAnMi4wJywgJy1waCcsICc3LjAnLCAnLXRuJywgJzgnLCAnLW1hJywgJzIwMCcsICctaW1hZScsICc8aW5maWxlLm1hZT4nLCAnLW9tYWUnLCAnPG91dGZpbGUubWFlPic=

>  <r_epik_Ionization_Penalty>  (325) 
1.74005

>  <r_epik_Ionization_Penalty_Charging>  (325) 
0

>  <r_epik_Ionization_Penalty_Neutral>  (325) 
1.74005

>  <r_epik_State_Penalty>  (325) 
1.84906

>  <r_epik_Charging_Adjusted_Penalty>  (325) 
1.84906

>  <i_epik_Tot_Q>  (325) 
0

>  <i_epik_Tot_abs_Q>  (325) 
0

>  <s_lp_Force_Field>  (325) 
OPLS3e

>  <r_lp_Energy>  (325) 
83.0506

>  <b_lp_Chiralities_Consistent>  (325) 
0

>  <s_lp_Variant>  (325) 
76:0-2

>  <s_i_glide_gridfile>  (325) 
pfpi4k_grid

>  <i_i_glide_lignum>  (325) 
27

>  <i_i_glide_rotatable_bonds>  (325) 
1

>  <r_i_docking_score>  (325) 
-2.86082

>  <r_i_glide_ligand_efficiency>  (325) 
-0.150569

>  <r_i_glide_ligand_efficiency_sa>  (325) 
-0.401779

>  <r_i_glide_ligand_efficiency_ln>  (325) 
-0.725279

>  <r_i_glide_gscore>  (325) 
-2.86082

>  <r_i_glide_lipo>  (325) 
-0.576096

>  <r_i_glide_hbond>  (325) 
0

>  <r_i_glide_metal>  (325) 
-0

>  <r_i_glide_rewards>  (325) 
-1.69523

>  <r_i_glide_evdw>  (325) 
-14.7722

>  <r_i_glide_ecoul>  (325) 
0.994142

>  <r_i_glide_erotb>  (325) 
0

>  <r_i_glide_esite>  (325) 
0

>  <r_i_glide_emodel>  (325) 
-15.1113

>  <r_i_glide_energy>  (325) 
-13.7781

>  <r_i_glide_einternal>  (325) 
2.8149

>  <r_i_glide_intrahb_reward>  (325) 
-0

>  <i_i_glide_confnum>  (325) 
2

>  <i_i_glide_posenum>  (325) 
7

>  <r_i_glide_eff_state_penalty>  (325) 
0

>  <ligand_id>  (325) 
76

>  <original_smiles>  (325) 
CN(C)C1c2cccc3c2C2C1C1CCCC12C=C3

>  <smiles>  (325) 
[H]C1=C([H])C23C([H])([H])C([H])([H])C([H])([H])C2([H])C2([H])C([H])(N(C([H])([H])[H])C([H])([H])[H])c4c([H])c([H])c([H])c1c4C23[H]

$$$$
77:0:0
     RDKit          3D

 15 16  0  0  1  0  0  0  0  0999 V2000
    2.6168   -1.8887   -3.8012 C   0  0  0  0  0  0  0  0  0  0  0  0
    3.2607   -3.0737   -3.4114 C   0  0  0  0  0  0  0  0  0  0  0  0
    4.4252   -2.9682   -2.6344 C   0  0  0  0  0  0  0  0  0  0  0  0
    5.3078   -3.8691   -2.0729 N   0  0  0  0  0  0  0  0  0  0  0  0
    6.2439   -3.1426   -1.4408 C   0  0  0  0  0  0  0  0  0  0  0  0
    6.0983   -1.8227   -1.5010 N   0  0  0  0  0  0  0  0  0  0  0  0
    4.9368   -1.6953   -2.2517 C   0  0  0  0  0  0  0  0  0  0  0  0
    4.2269   -0.5496   -2.6842 C   0  0  0  0  0  0  0  0  0  0  0  0
    3.1103   -0.6875   -3.4323 N   0  0  0  0  0  0  0  0  0  0  0  0
    5.2815   -4.8791   -2.1205 H   0  0  0  0  0  0  0  0  0  0  0  0
    1.6945   -1.8790   -4.3622 H   0  0  0  0  0  0  0  0  0  0  0  0
    2.8555   -4.0380   -3.6794 H   0  0  0  0  0  0  0  0  0  0  0  0
    7.0731   -3.5969   -0.9148 H   0  0  0  0  0  0  0  0  0  0  0  0
    4.5190    0.4615   -2.4531 H   0  0  0  0  0  0  0  0  0  0  0  0
    2.6054    0.1617   -3.6976 H   0  0  0  0  0  0  0  0  0  0  0  0
  1  2  2  0
  1 11  1  0
  1  9  1  0
  2 12  1  0
  2  3  1  0
  3  4  1  0
  3  7  2  0
  4  5  1  0
  4 10  1  0
  5  6  2  0
  5 13  1  0
  6  7  1  0
  7  8  1  0
  8  9  2  0
  8 14  1  0
  9 15  1  0
M  CHG  1   9   1
M  END
>  <i_m_ct_stereo_status>  (326) 
1

>  <s_m_source_file>  (326) 
/var/tmp/pbs.5076255.sched01/tmp8hdfbsd6/1003312lgh9.sdf

>  <i_m_source_file_index>  (326) 
28

>  <i_lp_mmshare_version>  (326) 
48012

>  <i_f3d_flags>  (326) 
0

>  <s_epik_input>  (326) 
W2NIXTFbY0hdbltjSF1jKGMxMilbbkhdW2NIXW4y

>  <s_epik_cmdline>  (326) 
J2VwaWtfcHl0aG9uJywgJy1waHQnLCAnMi4wJywgJy1waCcsICc3LjAnLCAnLXRuJywgJzgnLCAnLW1hJywgJzIwMCcsICctaW1hZScsICc8aW5maWxlLm1hZT4nLCAnLW9tYWUnLCAnPG91dGZpbGUubWFlPic=

>  <r_lp_tautomer_probability>  (326) 
0.887829

>  <r_epik_Ionization_Penalty>  (326) 
0.946102

>  <r_epik_Ionization_Penalty_Charging>  (326) 
1.03232e-06

>  <r_epik_Ionization_Penalty_Neutral>  (326) 
0.946101

>  <r_epik_State_Penalty>  (326) 
0.154414

>  <r_epik_Charging_Adjusted_Penalty>  (326) 
0.154415

>  <i_epik_Tot_Q>  (326) 
1

>  <i_epik_Tot_abs_Q>  (326) 
1

>  <s_lp_Force_Field>  (326) 
OPLS3e

>  <r_lp_Energy>  (326) 
16.1974

>  <b_lp_Chiralities_Consistent>  (326) 
1

>  <s_lp_Variant>  (326) 
77:0-1

>  <s_i_glide_gridfile>  (326) 
pfpi4k_grid

>  <i_i_glide_lignum>  (326) 
28

>  <i_i_glide_rotatable_bonds>  (326) 
0

>  <r_i_docking_score>  (326) 
-4.74245

>  <r_i_glide_ligand_efficiency>  (326) 
-0.526939

>  <r_i_glide_ligand_efficiency_sa>  (326) 
-1.09608

>  <r_i_glide_ligand_efficiency_ln>  (326) 
-1.4833

>  <r_i_glide_gscore>  (326) 
-4.74245

>  <r_i_glide_lipo>  (326) 
-0.474506

>  <r_i_glide_hbond>  (326) 
-0.126757

>  <r_i_glide_metal>  (326) 
-0

>  <r_i_glide_rewards>  (326) 
-2.37372

>  <r_i_glide_evdw>  (326) 
-12.2809

>  <r_i_glide_ecoul>  (326) 
-7.6895

>  <r_i_glide_erotb>  (326) 
0

>  <r_i_glide_esite>  (326) 
0

>  <r_i_glide_emodel>  (326) 
-27.0748

>  <r_i_glide_energy>  (326) 
-19.9704

>  <r_i_glide_einternal>  (326) 
0

>  <r_i_glide_intrahb_reward>  (326) 
-0

>  <i_i_glide_confnum>  (326) 
1

>  <i_i_glide_posenum>  (326) 
21

>  <r_i_glide_eff_state_penalty>  (326) 
0

>  <ligand_id>  (326) 
77

>  <original_smiles>  (326) 
c1cc2nc[nH]c2cn1

>  <smiles>  (326) 
[H]c1c([H])[n+]([H])c([H])c2nc([H])n([H])c12

$$$$
77:0:1
     RDKit          3D

 15 16  0  0  1  0  0  0  0  0999 V2000
    4.1968   -1.6171    0.1655 C   0  0  0  0  0  0  0  0  0  0  0  0
    3.3969   -2.6471   -0.3704 C   0  0  0  0  0  0  0  0  0  0  0  0
    3.1552   -2.6573   -1.7581 C   0  0  0  0  0  0  0  0  0  0  0  0
    2.4218   -3.4502   -2.6158 N   0  0  0  0  0  0  0  0  0  0  0  0
    2.6145   -2.9459   -3.8470 C   0  0  0  0  0  0  0  0  0  0  0  0
    3.3980   -1.8754   -3.9415 N   0  0  0  0  0  0  0  0  0  0  0  0
    3.7309   -1.6641   -2.6103 C   0  0  0  0  0  0  0  0  0  0  0  0
    4.5298   -0.6668   -2.0004 C   0  0  0  0  0  0  0  0  0  0  0  0
    4.7246   -0.6801   -0.6571 N   0  0  0  0  0  0  0  0  0  0  0  0
    1.9137   -4.3035   -2.4267 H   0  0  0  0  0  0  0  0  0  0  0  0
    4.4175   -1.5099    1.2208 H   0  0  0  0  0  0  0  0  0  0  0  0
    2.9520   -3.3908    0.2687 H   0  0  0  0  0  0  0  0  0  0  0  0
    2.1662   -3.4040   -4.7133 H   0  0  0  0  0  0  0  0  0  0  0  0
    4.9918    0.1377   -2.5481 H   0  0  0  0  0  0  0  0  0  0  0  0
    5.2826    0.0752   -0.2514 H   0  0  0  0  0  0  0  0  0  0  0  0
  1  2  2  0
  1 11  1  0
  1  9  1  0
  2 12  1  0
  2  3  1  0
  3  4  1  0
  3  7  2  0
  4  5  1  0
  4 10  1  0
  5  6  2  0
  5 13  1  0
  6  7  1  0
  7  8  1  0
  8  9  2  0
  8 14  1  0
  9 15  1  0
M  CHG  1   9   1
M  END
>  <i_m_ct_stereo_status>  (327) 
1

>  <s_m_source_file>  (327) 
/var/tmp/pbs.5076255.sched01/tmp8hdfbsd6/1003312lgh9.sdf

>  <i_m_source_file_index>  (327) 
28

>  <i_lp_mmshare_version>  (327) 
48012

>  <i_f3d_flags>  (327) 
0

>  <s_epik_input>  (327) 
W2NIXTFbY0hdbltjSF1jKGMxMilbbkhdW2NIXW4y

>  <s_epik_cmdline>  (327) 
J2VwaWtfcHl0aG9uJywgJy1waHQnLCAnMi4wJywgJy1waCcsICc3LjAnLCAnLXRuJywgJzgnLCAnLW1hJywgJzIwMCcsICctaW1hZScsICc8aW5maWxlLm1hZT4nLCAnLW9tYWUnLCAnPG91dGZpbGUubWFlPic=

>  <r_lp_tautomer_probability>  (327) 
0.887829

>  <r_epik_Ionization_Penalty>  (327) 
0.946102

>  <r_epik_Ionization_Penalty_Charging>  (327) 
1.03232e-06

>  <r_epik_Ionization_Penalty_Neutral>  (327) 
0.946101

>  <r_epik_State_Penalty>  (327) 
0.154414

>  <r_epik_Charging_Adjusted_Penalty>  (327) 
0.154415

>  <i_epik_Tot_Q>  (327) 
1

>  <i_epik_Tot_abs_Q>  (327) 
1

>  <s_lp_Force_Field>  (327) 
OPLS3e

>  <r_lp_Energy>  (327) 
16.1974

>  <b_lp_Chiralities_Consistent>  (327) 
1

>  <s_lp_Variant>  (327) 
77:0-1

>  <s_i_glide_gridfile>  (327) 
pfpi4k_grid

>  <i_i_glide_lignum>  (327) 
28

>  <i_i_glide_rotatable_bonds>  (327) 
0

>  <r_i_docking_score>  (327) 
-4.52152

>  <r_i_glide_ligand_efficiency>  (327) 
-0.502392

>  <r_i_glide_ligand_efficiency_sa>  (327) 
-1.04502

>  <r_i_glide_ligand_efficiency_ln>  (327) 
-1.4142

>  <r_i_glide_gscore>  (327) 
-4.52152

>  <r_i_glide_lipo>  (327) 
0

>  <r_i_glide_hbond>  (327) 
-0.130956

>  <r_i_glide_metal>  (327) 
-0

>  <r_i_glide_rewards>  (327) 
-2.47158

>  <r_i_glide_evdw>  (327) 
-13.3799

>  <r_i_glide_ecoul>  (327) 
-8.07697

>  <r_i_glide_erotb>  (327) 
0

>  <r_i_glide_esite>  (327) 
-0.0384461

>  <r_i_glide_emodel>  (327) 
-28.2287

>  <r_i_glide_energy>  (327) 
-21.4569

>  <r_i_glide_einternal>  (327) 
0

>  <r_i_glide_intrahb_reward>  (327) 
-0

>  <i_i_glide_confnum>  (327) 
2

>  <i_i_glide_posenum>  (327) 
9

>  <r_i_glide_eff_state_penalty>  (327) 
0

>  <ligand_id>  (327) 
77

>  <original_smiles>  (327) 
c1cc2nc[nH]c2cn1

>  <smiles>  (327) 
[H]c1c([H])[n+]([H])c([H])c2nc([H])n([H])c12

$$$$
77:0:2
     RDKit          3D

 15 16  0  0  1  0  0  0  0  0999 V2000
    3.5693   -1.0939   -3.7458 C   0  0  0  0  0  0  0  0  0  0  0  0
    4.1218   -0.8390   -2.4762 C   0  0  0  0  0  0  0  0  0  0  0  0
    3.8194   -1.7212   -1.4217 C   0  0  0  0  0  0  0  0  0  0  0  0
    4.1418   -1.7845   -0.0742 N   0  0  0  0  0  0  0  0  0  0  0  0
    3.5228   -2.8794    0.4058 C   0  0  0  0  0  0  0  0  0  0  0  0
    2.8039   -3.5836   -0.4632 N   0  0  0  0  0  0  0  0  0  0  0  0
    2.9870   -2.8595   -1.6354 C   0  0  0  0  0  0  0  0  0  0  0  0
    2.4671   -3.0567   -2.9369 C   0  0  0  0  0  0  0  0  0  0  0  0
    2.7743   -2.1755   -3.9220 N   0  0  0  0  0  0  0  0  0  0  0  0
    4.7068   -1.1509    0.4766 H   0  0  0  0  0  0  0  0  0  0  0  0
    3.7251   -0.4604   -4.6108 H   0  0  0  0  0  0  0  0  0  0  0  0
    4.7249    0.0369   -2.3032 H   0  0  0  0  0  0  0  0  0  0  0  0
    3.6058   -3.1833    1.4386 H   0  0  0  0  0  0  0  0  0  0  0  0
    1.8139   -3.8715   -3.2040 H   0  0  0  0  0  0  0  0  0  0  0  0
    2.3625   -2.3256   -4.8511 H   0  0  0  0  0  0  0  0  0  0  0  0
  1  2  2  0
  1 11  1  0
  1  9  1  0
  2 12  1  0
  2  3  1  0
  3  4  1  0
  3  7  2  0
  4  5  1  0
  4 10  1  0
  5  6  2  0
  5 13  1  0
  6  7  1  0
  7  8  1  0
  8  9  2  0
  8 14  1  0
  9 15  1  0
M  CHG  1   9   1
M  END
>  <i_m_ct_stereo_status>  (328) 
1

>  <s_m_source_file>  (328) 
/var/tmp/pbs.5076255.sched01/tmp8hdfbsd6/1003312lgh9.sdf

>  <i_m_source_file_index>  (328) 
28

>  <i_lp_mmshare_version>  (328) 
48012

>  <i_f3d_flags>  (328) 
0

>  <s_epik_input>  (328) 
W2NIXTFbY0hdbltjSF1jKGMxMilbbkhdW2NIXW4y

>  <s_epik_cmdline>  (328) 
J2VwaWtfcHl0aG9uJywgJy1waHQnLCAnMi4wJywgJy1waCcsICc3LjAnLCAnLXRuJywgJzgnLCAnLW1hJywgJzIwMCcsICctaW1hZScsICc8aW5maWxlLm1hZT4nLCAnLW9tYWUnLCAnPG91dGZpbGUubWFlPic=

>  <r_lp_tautomer_probability>  (328) 
0.887829

>  <r_epik_Ionization_Penalty>  (328) 
0.946102

>  <r_epik_Ionization_Penalty_Charging>  (328) 
1.03232e-06

>  <r_epik_Ionization_Penalty_Neutral>  (328) 
0.946101

>  <r_epik_State_Penalty>  (328) 
0.154414

>  <r_epik_Charging_Adjusted_Penalty>  (328) 
0.154415

>  <i_epik_Tot_Q>  (328) 
1

>  <i_epik_Tot_abs_Q>  (328) 
1

>  <s_lp_Force_Field>  (328) 
OPLS3e

>  <r_lp_Energy>  (328) 
16.1974

>  <b_lp_Chiralities_Consistent>  (328) 
1

>  <s_lp_Variant>  (328) 
77:0-1

>  <s_i_glide_gridfile>  (328) 
pfpi4k_grid

>  <i_i_glide_lignum>  (328) 
28

>  <i_i_glide_rotatable_bonds>  (328) 
0

>  <r_i_docking_score>  (328) 
-4.16291

>  <r_i_glide_ligand_efficiency>  (328) 
-0.462545

>  <r_i_glide_ligand_efficiency_sa>  (328) 
-0.962133

>  <r_i_glide_ligand_efficiency_ln>  (328) 
-1.30204

>  <r_i_glide_gscore>  (328) 
-4.16291

>  <r_i_glide_lipo>  (328) 
-0.335801

>  <r_i_glide_hbond>  (328) 
0

>  <r_i_glide_metal>  (328) 
-0

>  <r_i_glide_rewards>  (328) 
-2.25

>  <r_i_glide_evdw>  (328) 
-13.9939

>  <r_i_glide_ecoul>  (328) 
-5.56127

>  <r_i_glide_erotb>  (328) 
0

>  <r_i_glide_esite>  (328) 
-0.0432217

>  <r_i_glide_emodel>  (328) 
-25.7848

>  <r_i_glide_energy>  (328) 
-19.5551

>  <r_i_glide_einternal>  (328) 
0

>  <r_i_glide_intrahb_reward>  (328) 
-0

>  <i_i_glide_confnum>  (328) 
1

>  <i_i_glide_posenum>  (328) 
15

>  <r_i_glide_eff_state_penalty>  (328) 
0

>  <ligand_id>  (328) 
77

>  <original_smiles>  (328) 
c1cc2nc[nH]c2cn1

>  <smiles>  (328) 
[H]c1c([H])[n+]([H])c([H])c2nc([H])n([H])c12

$$$$
77:1:0
     RDKit          3D

 14 15  0  0  1  0  0  0  0  0999 V2000
    5.7172   -1.6458   -0.3217 C   0  0  0  0  0  0  0  0  0  0  0  0
    4.3374   -1.5562   -0.5707 C   0  0  0  0  0  0  0  0  0  0  0  0
    3.8593   -2.1347   -1.7531 C   0  0  0  0  0  0  0  0  0  0  0  0
    2.6162   -2.2563   -2.3365 N   0  0  0  0  0  0  0  0  0  0  0  0
    2.8001   -2.9261   -3.4892 C   0  0  0  0  0  0  0  0  0  0  0  0
    4.0590   -3.2657   -3.7729 N   0  0  0  0  0  0  0  0  0  0  0  0
    4.7402   -2.7876   -2.6584 C   0  0  0  0  0  0  0  0  0  0  0  0
    6.1118   -2.8426   -2.3084 C   0  0  0  0  0  0  0  0  0  0  0  0
    6.5753   -2.2571   -1.1714 N   0  0  0  0  0  0  0  0  0  0  0  0
    1.7376   -1.8897   -1.9670 H   0  0  0  0  0  0  0  0  0  0  0  0
    6.1385   -1.2098    0.5744 H   0  0  0  0  0  0  0  0  0  0  0  0
    3.6656   -1.0603    0.1121 H   0  0  0  0  0  0  0  0  0  0  0  0
    1.9767   -3.1743   -4.1478 H   0  0  0  0  0  0  0  0  0  0  0  0
    6.8315   -3.3198   -2.9527 H   0  0  0  0  0  0  0  0  0  0  0  0
  1  2  2  0
  1 11  1  0
  1  9  1  0
  2 12  1  0
  2  3  1  0
  3  4  1  0
  3  7  2  0
  4  5  1  0
  4 10  1  0
  5  6  2  0
  5 13  1  0
  6  7  1  0
  7  8  1  0
  8  9  2  0
  8 14  1  0
M  END
>  <i_m_ct_stereo_status>  (329) 
1

>  <s_m_source_file>  (329) 
/var/tmp/pbs.5076255.sched01/tmp8hdfbsd6/1003312lgh9.sdf

>  <i_m_source_file_index>  (329) 
29

>  <i_lp_mmshare_version>  (329) 
48012

>  <i_f3d_flags>  (329) 
0

>  <s_epik_input>  (329) 
W2NIXTFbY0hdbltjSF1jKGMxMilbbkhdW2NIXW4y

>  <s_epik_cmdline>  (329) 
J2VwaWtfcHl0aG9uJywgJy1waHQnLCAnMi4wJywgJy1waCcsICc3LjAnLCAnLXRuJywgJzgnLCAnLW1hJywgJzIwMCcsICctaW1hZScsICc8aW5maWxlLm1hZT4nLCAnLW9tYWUnLCAnPG91dGZpbGUubWFlPic=

>  <r_lp_tautomer_probability>  (329) 
0.742559

>  <r_epik_Ionization_Penalty>  (329) 
0.135343

>  <r_epik_Ionization_Penalty_Charging>  (329) 
0.135205

>  <r_epik_Ionization_Penalty_Neutral>  (329) 
0.000138111

>  <r_epik_State_Penalty>  (329) 
0.946397

>  <r_epik_Charging_Adjusted_Penalty>  (329) 
1.0816

>  <i_epik_Tot_Q>  (329) 
0

>  <i_epik_Tot_abs_Q>  (329) 
0

>  <s_lp_Force_Field>  (329) 
OPLS3e

>  <r_lp_Energy>  (329) 
11.3419

>  <b_lp_Chiralities_Consistent>  (329) 
1

>  <s_lp_Variant>  (329) 
77:0-2

>  <s_i_glide_gridfile>  (329) 
pfpi4k_grid

>  <i_i_glide_lignum>  (329) 
29

>  <i_i_glide_rotatable_bonds>  (329) 
0

>  <r_i_docking_score>  (329) 
-4.91

>  <r_i_glide_ligand_efficiency>  (329) 
-0.545556

>  <r_i_glide_ligand_efficiency_sa>  (329) 
-1.1348

>  <r_i_glide_ligand_efficiency_ln>  (329) 
-1.53571

>  <r_i_glide_gscore>  (329) 
-4.91

>  <r_i_glide_lipo>  (329) 
-0.214291

>  <r_i_glide_hbond>  (329) 
-0.296473

>  <r_i_glide_metal>  (329) 
-0

>  <r_i_glide_rewards>  (329) 
-2.53234

>  <r_i_glide_evdw>  (329) 
-16.3133

>  <r_i_glide_ecoul>  (329) 
-6.55762

>  <r_i_glide_erotb>  (329) 
0

>  <r_i_glide_esite>  (329) 
-0.0675873

>  <r_i_glide_emodel>  (329) 
-30.6191

>  <r_i_glide_energy>  (329) 
-22.871

>  <r_i_glide_einternal>  (329) 
0

>  <r_i_glide_intrahb_reward>  (329) 
-0

>  <i_i_glide_confnum>  (329) 
2

>  <i_i_glide_posenum>  (329) 
5

>  <r_i_glide_eff_state_penalty>  (329) 
0

>  <ligand_id>  (329) 
77

>  <original_smiles>  (329) 
c1cc2nc[nH]c2cn1

>  <smiles>  (329) 
[H]c1nc([H])c2nc([H])n([H])c2c1[H]

$$$$
77:1:1
     RDKit          3D

 14 15  0  0  1  0  0  0  0  0999 V2000
    3.3373   -3.4071   -3.8472 C   0  0  0  0  0  0  0  0  0  0  0  0
    2.7529   -2.6463   -2.8263 C   0  0  0  0  0  0  0  0  0  0  0  0
    3.6052   -2.0933   -1.8645 C   0  0  0  0  0  0  0  0  0  0  0  0
    3.4151   -1.3151   -0.7425 N   0  0  0  0  0  0  0  0  0  0  0  0
    4.6386   -1.0891   -0.2328 C   0  0  0  0  0  0  0  0  0  0  0  0
    5.6634   -1.6317   -0.8916 N   0  0  0  0  0  0  0  0  0  0  0  0
    5.0109   -2.2929   -1.9247 C   0  0  0  0  0  0  0  0  0  0  0  0
    5.5024   -3.0957   -2.9846 C   0  0  0  0  0  0  0  0  0  0  0  0
    4.6690   -3.6209   -3.9192 N   0  0  0  0  0  0  0  0  0  0  0  0
    2.5095   -0.9791   -0.4043 H   0  0  0  0  0  0  0  0  0  0  0  0
    2.7244   -3.8477   -4.6215 H   0  0  0  0  0  0  0  0  0  0  0  0
    1.6862   -2.5031   -2.7958 H   0  0  0  0  0  0  0  0  0  0  0  0
    4.7921   -0.4970    0.6588 H   0  0  0  0  0  0  0  0  0  0  0  0
    6.5601   -3.2840   -3.1011 H   0  0  0  0  0  0  0  0  0  0  0  0
  1  2  2  0
  1 11  1  0
  1  9  1  0
  2 12  1  0
  2  3  1  0
  3  4  1  0
  3  7  2  0
  4  5  1  0
  4 10  1  0
  5  6  2  0
  5 13  1  0
  6  7  1  0
  7  8  1  0
  8  9  2  0
  8 14  1  0
M  END
>  <i_m_ct_stereo_status>  (330) 
1

>  <s_m_source_file>  (330) 
/var/tmp/pbs.5076255.sched01/tmp8hdfbsd6/1003312lgh9.sdf

>  <i_m_source_file_index>  (330) 
29

>  <i_lp_mmshare_version>  (330) 
48012

>  <i_f3d_flags>  (330) 
0

>  <s_epik_input>  (330) 
W2NIXTFbY0hdbltjSF1jKGMxMilbbkhdW2NIXW4y

>  <s_epik_cmdline>  (330) 
J2VwaWtfcHl0aG9uJywgJy1waHQnLCAnMi4wJywgJy1waCcsICc3LjAnLCAnLXRuJywgJzgnLCAnLW1hJywgJzIwMCcsICctaW1hZScsICc8aW5maWxlLm1hZT4nLCAnLW9tYWUnLCAnPG91dGZpbGUubWFlPic=

>  <r_lp_tautomer_probability>  (330) 
0.742559

>  <r_epik_Ionization_Penalty>  (330) 
0.135343

>  <r_epik_Ionization_Penalty_Charging>  (330) 
0.135205

>  <r_epik_Ionization_Penalty_Neutral>  (330) 
0.000138111

>  <r_epik_State_Penalty>  (330) 
0.946397

>  <r_epik_Charging_Adjusted_Penalty>  (330) 
1.0816

>  <i_epik_Tot_Q>  (330) 
0

>  <i_epik_Tot_abs_Q>  (330) 
0

>  <s_lp_Force_Field>  (330) 
OPLS3e

>  <r_lp_Energy>  (330) 
11.3419

>  <b_lp_Chiralities_Consistent>  (330) 
1

>  <s_lp_Variant>  (330) 
77:0-2

>  <s_i_glide_gridfile>  (330) 
pfpi4k_grid

>  <i_i_glide_lignum>  (330) 
29

>  <i_i_glide_rotatable_bonds>  (330) 
0

>  <r_i_docking_score>  (330) 
-4.39291

>  <r_i_glide_ligand_efficiency>  (330) 
-0.488101

>  <r_i_glide_ligand_efficiency_sa>  (330) 
-1.01529

>  <r_i_glide_ligand_efficiency_ln>  (330) 
-1.37398

>  <r_i_glide_gscore>  (330) 
-4.39291

>  <r_i_glide_lipo>  (330) 
-0.288482

>  <r_i_glide_hbond>  (330) 
-0.134889

>  <r_i_glide_metal>  (330) 
-0

>  <r_i_glide_rewards>  (330) 
-2.25

>  <r_i_glide_evdw>  (330) 
-14.9033

>  <r_i_glide_ecoul>  (330) 
-5.70479

>  <r_i_glide_erotb>  (330) 
0

>  <r_i_glide_esite>  (330) 
-0.118654

>  <r_i_glide_emodel>  (330) 
-27.5359

>  <r_i_glide_energy>  (330) 
-20.6081

>  <r_i_glide_einternal>  (330) 
0

>  <r_i_glide_intrahb_reward>  (330) 
-0

>  <i_i_glide_confnum>  (330) 
1

>  <i_i_glide_posenum>  (330) 
16

>  <r_i_glide_eff_state_penalty>  (330) 
0

>  <ligand_id>  (330) 
77

>  <original_smiles>  (330) 
c1cc2nc[nH]c2cn1

>  <smiles>  (330) 
[H]c1nc([H])c2nc([H])n([H])c2c1[H]

$$$$
77:1:2
     RDKit          3D

 14 15  0  0  1  0  0  0  0  0999 V2000
    4.2555   -1.9355    0.3057 C   0  0  0  0  0  0  0  0  0  0  0  0
    3.2884   -2.7742   -0.2723 C   0  0  0  0  0  0  0  0  0  0  0  0
    3.1993   -2.7809   -1.6718 C   0  0  0  0  0  0  0  0  0  0  0  0
    2.3991   -3.4256   -2.5996 N   0  0  0  0  0  0  0  0  0  0  0  0
    2.8275   -3.0186   -3.8047 C   0  0  0  0  0  0  0  0  0  0  0  0
    3.8357   -2.1483   -3.8197 N   0  0  0  0  0  0  0  0  0  0  0  0
    4.0731   -1.9782   -2.4610 C   0  0  0  0  0  0  0  0  0  0  0  0
    5.0144   -1.1703   -1.7775 C   0  0  0  0  0  0  0  0  0  0  0  0
    5.0975   -1.1693   -0.4240 N   0  0  0  0  0  0  0  0  0  0  0  0
    1.6651   -4.1039   -2.4506 H   0  0  0  0  0  0  0  0  0  0  0  0
    4.3623   -1.8842    1.3798 H   0  0  0  0  0  0  0  0  0  0  0  0
    2.6265   -3.3683    0.3393 H   0  0  0  0  0  0  0  0  0  0  0  0
    2.3767   -3.3851   -4.7155 H   0  0  0  0  0  0  0  0  0  0  0  0
    5.7061   -0.5444   -2.3166 H   0  0  0  0  0  0  0  0  0  0  0  0
  1  2  2  0
  1 11  1  0
  1  9  1  0
  2 12  1  0
  2  3  1  0
  3  4  1  0
  3  7  2  0
  4  5  1  0
  4 10  1  0
  5  6  2  0
  5 13  1  0
  6  7  1  0
  7  8  1  0
  8  9  2  0
  8 14  1  0
M  END
>  <i_m_ct_stereo_status>  (331) 
1

>  <s_m_source_file>  (331) 
/var/tmp/pbs.5076255.sched01/tmp8hdfbsd6/1003312lgh9.sdf

>  <i_m_source_file_index>  (331) 
29

>  <i_lp_mmshare_version>  (331) 
48012

>  <i_f3d_flags>  (331) 
0

>  <s_epik_input>  (331) 
W2NIXTFbY0hdbltjSF1jKGMxMilbbkhdW2NIXW4y

>  <s_epik_cmdline>  (331) 
J2VwaWtfcHl0aG9uJywgJy1waHQnLCAnMi4wJywgJy1waCcsICc3LjAnLCAnLXRuJywgJzgnLCAnLW1hJywgJzIwMCcsICctaW1hZScsICc8aW5maWxlLm1hZT4nLCAnLW9tYWUnLCAnPG91dGZpbGUubWFlPic=

>  <r_lp_tautomer_probability>  (331) 
0.742559

>  <r_epik_Ionization_Penalty>  (331) 
0.135343

>  <r_epik_Ionization_Penalty_Charging>  (331) 
0.135205

>  <r_epik_Ionization_Penalty_Neutral>  (331) 
0.000138111

>  <r_epik_State_Penalty>  (331) 
0.946397

>  <r_epik_Charging_Adjusted_Penalty>  (331) 
1.0816

>  <i_epik_Tot_Q>  (331) 
0

>  <i_epik_Tot_abs_Q>  (331) 
0

>  <s_lp_Force_Field>  (331) 
OPLS3e

>  <r_lp_Energy>  (331) 
11.3419

>  <b_lp_Chiralities_Consistent>  (331) 
1

>  <s_lp_Variant>  (331) 
77:0-2

>  <s_i_glide_gridfile>  (331) 
pfpi4k_grid

>  <i_i_glide_lignum>  (331) 
29

>  <i_i_glide_rotatable_bonds>  (331) 
0

>  <r_i_docking_score>  (331) 
-3.96375

>  <r_i_glide_ligand_efficiency>  (331) 
-0.440416

>  <r_i_glide_ligand_efficiency_sa>  (331) 
-0.916103

>  <r_i_glide_ligand_efficiency_ln>  (331) 
-1.23975

>  <r_i_glide_gscore>  (331) 
-3.96375

>  <r_i_glide_lipo>  (331) 
0

>  <r_i_glide_hbond>  (331) 
-0.108946

>  <r_i_glide_metal>  (331) 
-0

>  <r_i_glide_rewards>  (331) 
-2.47636

>  <r_i_glide_evdw>  (331) 
-15.2917

>  <r_i_glide_ecoul>  (331) 
-4.09238

>  <r_i_glide_erotb>  (331) 
0

>  <r_i_glide_esite>  (331) 
0

>  <r_i_glide_emodel>  (331) 
-25.6411

>  <r_i_glide_energy>  (331) 
-19.3841

>  <r_i_glide_einternal>  (331) 
0

>  <r_i_glide_intrahb_reward>  (331) 
-0

>  <i_i_glide_confnum>  (331) 
2

>  <i_i_glide_posenum>  (331) 
26

>  <r_i_glide_eff_state_penalty>  (331) 
0

>  <ligand_id>  (331) 
77

>  <original_smiles>  (331) 
c1cc2nc[nH]c2cn1

>  <smiles>  (331) 
[H]c1nc([H])c2nc([H])n([H])c2c1[H]

$$$$
77:2:0
     RDKit          3D

 14 15  0  0  1  0  0  0  0  0999 V2000
    4.8960   -3.6483   -1.8114 C   0  0  0  0  0  0  0  0  0  0  0  0
    4.9521   -3.2143   -3.1530 C   0  0  0  0  0  0  0  0  0  0  0  0
    4.2698   -2.0374   -3.5099 C   0  0  0  0  0  0  0  0  0  0  0  0
    4.1850   -1.3692   -4.7174 N   0  0  0  0  0  0  0  0  0  0  0  0
    3.4044   -0.3382   -4.4111 C   0  0  0  0  0  0  0  0  0  0  0  0
    3.0159   -0.2650   -3.1369 N   0  0  0  0  0  0  0  0  0  0  0  0
    3.5651   -1.3579   -2.4886 C   0  0  0  0  0  0  0  0  0  0  0  0
    3.5625   -1.8549   -1.1756 C   0  0  0  0  0  0  0  0  0  0  0  0
    4.2325   -2.9819   -0.8411 N   0  0  0  0  0  0  0  0  0  0  0  0
    2.4359    0.4853   -2.7573 H   0  0  0  0  0  0  0  0  0  0  0  0
    5.4020   -4.5525   -1.5129 H   0  0  0  0  0  0  0  0  0  0  0  0
    5.5023   -3.7740   -3.8884 H   0  0  0  0  0  0  0  0  0  0  0  0
    3.1120    0.3885   -5.1572 H   0  0  0  0  0  0  0  0  0  0  0  0
    3.0232   -1.3359   -0.3956 H   0  0  0  0  0  0  0  0  0  0  0  0
  1  9  2  0
  1  2  1  0
  1 11  1  0
  2  3  2  0
  2 12  1  0
  3  7  1  0
  3  4  1  0
  4  5  2  0
  5  6  1  0
  5 13  1  0
  6 10  1  0
  6  7  1  0
  7  8  2  0
  8  9  1  0
  8 14  1  0
M  END
>  <i_m_ct_stereo_status>  (332) 
1

>  <s_m_source_file>  (332) 
/var/tmp/pbs.5076255.sched01/tmp8hdfbsd6/1003312lgh9.sdf

>  <i_m_source_file_index>  (332) 
30

>  <i_lp_mmshare_version>  (332) 
48012

>  <i_f3d_flags>  (332) 
0

>  <s_epik_input>  (332) 
W2NIXTFbY0hdbltjSF1jKGMxMilbbkhdW2NIXW4y

>  <s_epik_cmdline>  (332) 
J2VwaWtfcHl0aG9uJywgJy1waHQnLCAnMi4wJywgJy1waCcsICc3LjAnLCAnLXRuJywgJzgnLCAnLW1hJywgJzIwMCcsICctaW1hZScsICc8aW5maWxlLm1hZT4nLCAnLW9tYWUnLCAnPG91dGZpbGUubWFlPic=

>  <r_lp_tautomer_probability>  (332) 
0.185015

>  <r_epik_Ionization_Penalty>  (332) 
0.0423083

>  <r_epik_Ionization_Penalty_Charging>  (332) 
0.0419218

>  <r_epik_Ionization_Penalty_Neutral>  (332) 
0.000386524

>  <r_epik_State_Penalty>  (332) 
2.23957

>  <r_epik_Charging_Adjusted_Penalty>  (332) 
2.28149

>  <i_epik_Tot_Q>  (332) 
0

>  <i_epik_Tot_abs_Q>  (332) 
0

>  <s_lp_Force_Field>  (332) 
OPLS3e

>  <r_lp_Energy>  (332) 
11.6682

>  <b_lp_Chiralities_Consistent>  (332) 
1

>  <s_lp_Variant>  (332) 
77:0-3

>  <s_i_glide_gridfile>  (332) 
pfpi4k_grid

>  <i_i_glide_lignum>  (332) 
30

>  <i_i_glide_rotatable_bonds>  (332) 
0

>  <r_i_docking_score>  (332) 
-5.34846

>  <r_i_glide_ligand_efficiency>  (332) 
-0.594274

>  <r_i_glide_ligand_efficiency_sa>  (332) 
-1.23614

>  <r_i_glide_ligand_efficiency_ln>  (332) 
-1.67285

>  <r_i_glide_gscore>  (332) 
-5.34846

>  <r_i_glide_lipo>  (332) 
-0.372166

>  <r_i_glide_hbond>  (332) 
-0.585285

>  <r_i_glide_metal>  (332) 
-0

>  <r_i_glide_rewards>  (332) 
-2.7

>  <r_i_glide_evdw>  (332) 
-11.8344

>  <r_i_glide_ecoul>  (332) 
-7.32862

>  <r_i_glide_erotb>  (332) 
0

>  <r_i_glide_esite>  (332) 
0

>  <r_i_glide_emodel>  (332) 
-27.0691

>  <r_i_glide_energy>  (332) 
-19.163

>  <r_i_glide_einternal>  (332) 
0

>  <r_i_glide_intrahb_reward>  (332) 
-0

>  <i_i_glide_confnum>  (332) 
1

>  <i_i_glide_posenum>  (332) 
4

>  <r_i_glide_eff_state_penalty>  (332) 
0

>  <ligand_id>  (332) 
77

>  <original_smiles>  (332) 
c1cc2nc[nH]c2cn1

>  <smiles>  (332) 
[H]c1nc([H])c2c(nc([H])n2[H])c1[H]

$$$$
77:2:1
     RDKit          3D

 14 15  0  0  1  0  0  0  0  0999 V2000
    5.7908   -3.0836   -1.2755 C   0  0  0  0  0  0  0  0  0  0  0  0
    5.2320   -3.2651   -2.5524 C   0  0  0  0  0  0  0  0  0  0  0  0
    4.4364   -2.2456   -3.1009 C   0  0  0  0  0  0  0  0  0  0  0  0
    3.8015   -2.1545   -4.3194 N   0  0  0  0  0  0  0  0  0  0  0  0
    3.2450   -0.9477   -4.2548 C   0  0  0  0  0  0  0  0  0  0  0  0
    3.4582   -0.2586   -3.1229 N   0  0  0  0  0  0  0  0  0  0  0  0
    4.2420   -1.0771   -2.3156 C   0  0  0  0  0  0  0  0  0  0  0  0
    4.8203   -0.9873   -1.0369 C   0  0  0  0  0  0  0  0  0  0  0  0
    5.6050   -1.9669   -0.5399 N   0  0  0  0  0  0  0  0  0  0  0  0
    3.0762    0.6594   -2.9307 H   0  0  0  0  0  0  0  0  0  0  0  0
    6.3873   -3.8612   -0.8227 H   0  0  0  0  0  0  0  0  0  0  0  0
    5.3991   -4.1713   -3.1107 H   0  0  0  0  0  0  0  0  0  0  0  0
    2.6467   -0.5481   -5.0619 H   0  0  0  0  0  0  0  0  0  0  0  0
    4.6685   -0.1103   -0.4336 H   0  0  0  0  0  0  0  0  0  0  0  0
  1  9  2  0
  1  2  1  0
  1 11  1  0
  2  3  2  0
  2 12  1  0
  3  7  1  0
  3  4  1  0
  4  5  2  0
  5  6  1  0
  5 13  1  0
  6 10  1  0
  6  7  1  0
  7  8  2  0
  8  9  1  0
  8 14  1  0
M  END
>  <i_m_ct_stereo_status>  (333) 
1

>  <s_m_source_file>  (333) 
/var/tmp/pbs.5076255.sched01/tmp8hdfbsd6/1003312lgh9.sdf

>  <i_m_source_file_index>  (333) 
30

>  <i_lp_mmshare_version>  (333) 
48012

>  <i_f3d_flags>  (333) 
0

>  <s_epik_input>  (333) 
W2NIXTFbY0hdbltjSF1jKGMxMilbbkhdW2NIXW4y

>  <s_epik_cmdline>  (333) 
J2VwaWtfcHl0aG9uJywgJy1waHQnLCAnMi4wJywgJy1waCcsICc3LjAnLCAnLXRuJywgJzgnLCAnLW1hJywgJzIwMCcsICctaW1hZScsICc8aW5maWxlLm1hZT4nLCAnLW9tYWUnLCAnPG91dGZpbGUubWFlPic=

>  <r_lp_tautomer_probability>  (333) 
0.185015

>  <r_epik_Ionization_Penalty>  (333) 
0.0423083

>  <r_epik_Ionization_Penalty_Charging>  (333) 
0.0419218

>  <r_epik_Ionization_Penalty_Neutral>  (333) 
0.000386524

>  <r_epik_State_Penalty>  (333) 
2.23957

>  <r_epik_Charging_Adjusted_Penalty>  (333) 
2.28149

>  <i_epik_Tot_Q>  (333) 
0

>  <i_epik_Tot_abs_Q>  (333) 
0

>  <s_lp_Force_Field>  (333) 
OPLS3e

>  <r_lp_Energy>  (333) 
11.6682

>  <b_lp_Chiralities_Consistent>  (333) 
1

>  <s_lp_Variant>  (333) 
77:0-3

>  <s_i_glide_gridfile>  (333) 
pfpi4k_grid

>  <i_i_glide_lignum>  (333) 
30

>  <i_i_glide_rotatable_bonds>  (333) 
0

>  <r_i_docking_score>  (333) 
-5.22922

>  <r_i_glide_ligand_efficiency>  (333) 
-0.581025

>  <r_i_glide_ligand_efficiency_sa>  (333) 
-1.20858

>  <r_i_glide_ligand_efficiency_ln>  (333) 
-1.63555

>  <r_i_glide_gscore>  (333) 
-5.22922

>  <r_i_glide_lipo>  (333) 
-0.385032

>  <r_i_glide_hbond>  (333) 
-0.608

>  <r_i_glide_metal>  (333) 
-0

>  <r_i_glide_rewards>  (333) 
-2.40302

>  <r_i_glide_evdw>  (333) 
-16.3203

>  <r_i_glide_ecoul>  (333) 
-6.78103

>  <r_i_glide_erotb>  (333) 
0

>  <r_i_glide_esite>  (333) 
0

>  <r_i_glide_emodel>  (333) 
-30.8272

>  <r_i_glide_energy>  (333) 
-23.1013

>  <r_i_glide_einternal>  (333) 
0

>  <r_i_glide_intrahb_reward>  (333) 
-0

>  <i_i_glide_confnum>  (333) 
1

>  <i_i_glide_posenum>  (333) 
9

>  <r_i_glide_eff_state_penalty>  (333) 
0

>  <ligand_id>  (333) 
77

>  <original_smiles>  (333) 
c1cc2nc[nH]c2cn1

>  <smiles>  (333) 
[H]c1nc([H])c2c(nc([H])n2[H])c1[H]

$$$$
77:2:2
     RDKit          3D

 14 15  0  0  1  0  0  0  0  0999 V2000
    3.0167   -3.5441   -0.6161 C   0  0  0  0  0  0  0  0  0  0  0  0
    2.7230   -3.3631   -1.9828 C   0  0  0  0  0  0  0  0  0  0  0  0
    3.1877   -2.2089   -2.6331 C   0  0  0  0  0  0  0  0  0  0  0  0
    3.0869   -1.7955   -3.9494 N   0  0  0  0  0  0  0  0  0  0  0  0
    3.7003   -0.6147   -3.9155 C   0  0  0  0  0  0  0  0  0  0  0  0
    4.2238   -0.2570   -2.7304 N   0  0  0  0  0  0  0  0  0  0  0  0
    3.9144   -1.2753   -1.8461 C   0  0  0  0  0  0  0  0  0  0  0  0
    4.1532   -1.5245   -0.4844 C   0  0  0  0  0  0  0  0  0  0  0  0
    3.7191   -2.6520    0.1198 N   0  0  0  0  0  0  0  0  0  0  0  0
    4.6861    0.6167   -2.5287 H   0  0  0  0  0  0  0  0  0  0  0  0
    2.6909   -4.4384   -0.1034 H   0  0  0  0  0  0  0  0  0  0  0  0
    2.1638   -4.1019   -2.5358 H   0  0  0  0  0  0  0  0  0  0  0  0
    3.7726    0.0060   -4.7980 H   0  0  0  0  0  0  0  0  0  0  0  0
    4.6920   -0.8154    0.1252 H   0  0  0  0  0  0  0  0  0  0  0  0
  1  9  2  0
  1  2  1  0
  1 11  1  0
  2  3  2  0
  2 12  1  0
  3  7  1  0
  3  4  1  0
  4  5  2  0
  5  6  1  0
  5 13  1  0
  6 10  1  0
  6  7  1  0
  7  8  2  0
  8  9  1  0
  8 14  1  0
M  END
>  <i_m_ct_stereo_status>  (334) 
1

>  <s_m_source_file>  (334) 
/var/tmp/pbs.5076255.sched01/tmp8hdfbsd6/1003312lgh9.sdf

>  <i_m_source_file_index>  (334) 
30

>  <i_lp_mmshare_version>  (334) 
48012

>  <i_f3d_flags>  (334) 
0

>  <s_epik_input>  (334) 
W2NIXTFbY0hdbltjSF1jKGMxMilbbkhdW2NIXW4y

>  <s_epik_cmdline>  (334) 
J2VwaWtfcHl0aG9uJywgJy1waHQnLCAnMi4wJywgJy1waCcsICc3LjAnLCAnLXRuJywgJzgnLCAnLW1hJywgJzIwMCcsICctaW1hZScsICc8aW5maWxlLm1hZT4nLCAnLW9tYWUnLCAnPG91dGZpbGUubWFlPic=

>  <r_lp_tautomer_probability>  (334) 
0.185015

>  <r_epik_Ionization_Penalty>  (334) 
0.0423083

>  <r_epik_Ionization_Penalty_Charging>  (334) 
0.0419218

>  <r_epik_Ionization_Penalty_Neutral>  (334) 
0.000386524

>  <r_epik_State_Penalty>  (334) 
2.23957

>  <r_epik_Charging_Adjusted_Penalty>  (334) 
2.28149

>  <i_epik_Tot_Q>  (334) 
0

>  <i_epik_Tot_abs_Q>  (334) 
0

>  <s_lp_Force_Field>  (334) 
OPLS3e

>  <r_lp_Energy>  (334) 
11.6682

>  <b_lp_Chiralities_Consistent>  (334) 
1

>  <s_lp_Variant>  (334) 
77:0-3

>  <s_i_glide_gridfile>  (334) 
pfpi4k_grid

>  <i_i_glide_lignum>  (334) 
30

>  <i_i_glide_rotatable_bonds>  (334) 
0

>  <r_i_docking_score>  (334) 
-3.92679

>  <r_i_glide_ligand_efficiency>  (334) 
-0.43631

>  <r_i_glide_ligand_efficiency_sa>  (334) 
-0.907562

>  <r_i_glide_ligand_efficiency_ln>  (334) 
-1.22819

>  <r_i_glide_gscore>  (334) 
-3.92679

>  <r_i_glide_lipo>  (334) 
-0.115071

>  <r_i_glide_hbond>  (334) 
-0.256668

>  <r_i_glide_metal>  (334) 
-0

>  <r_i_glide_rewards>  (334) 
-2.57337

>  <r_i_glide_evdw>  (334) 
-14.7667

>  <r_i_glide_ecoul>  (334) 
-1.62234

>  <r_i_glide_erotb>  (334) 
0

>  <r_i_glide_esite>  (334) 
0

>  <r_i_glide_emodel>  (334) 
-22.1834

>  <r_i_glide_energy>  (334) 
-16.389

>  <r_i_glide_einternal>  (334) 
0

>  <r_i_glide_intrahb_reward>  (334) 
-0

>  <i_i_glide_confnum>  (334) 
2

>  <i_i_glide_posenum>  (334) 
19

>  <r_i_glide_eff_state_penalty>  (334) 
0

>  <ligand_id>  (334) 
77

>  <original_smiles>  (334) 
c1cc2nc[nH]c2cn1

>  <smiles>  (334) 
[H]c1nc([H])c2c(nc([H])n2[H])c1[H]

$$$$
78:0:0
     RDKit          3D

 20 21  0  0  1  0  0  0  0  0999 V2000
    0.7026    0.2805    2.4839 C   0  0  0  0  0  0  0  0  0  0  0  0
   -0.0536   -0.0867    3.6777 N   0  0  0  0  0  0  0  0  0  0  0  0
   -0.0245   -1.3615    4.2397 C   0  0  0  0  0  0  0  0  0  0  0  0
   -0.9031   -1.3797    5.2890 C   0  0  0  0  0  0  0  0  0  0  0  0
   -1.4859   -0.1202    5.4026 N   0  0  0  0  0  0  0  0  0  0  0  0
   -0.9393    0.6188    4.4303 C   0  0  0  0  0  0  0  0  0  0  0  0
   -1.2884    2.0581    4.2029 C   0  0  0  0  0  0  0  0  0  0  0  0
   -2.4736    2.3869    4.2279 O   0  0  0  0  0  0  0  0  0  0  0  0
   -0.1519    3.0439    4.0781 C   0  0  0  0  0  0  0  0  0  0  0  0
    1.1627    2.8368    4.2746 N   0  0  0  0  0  0  0  0  0  0  0  0
    1.8142    4.0604    3.9598 O   0  0  0  0  0  0  0  0  0  0  0  0
    0.8038    4.9362    3.6822 C   0  0  0  0  0  0  0  0  0  0  0  0
   -0.3911    4.3412    3.7772 N   0  0  0  0  0  0  0  0  0  0  0  0
   -1.5147    4.9345    3.6429 O   0  0  0  0  0  0  0  0  0  0  0  0
    1.2308   -0.6018    2.1094 H   0  0  0  0  0  0  0  0  0  0  0  0
    1.4765    1.0164    2.6937 H   0  0  0  0  0  0  0  0  0  0  0  0
    0.0248    0.6584    1.7098 H   0  0  0  0  0  0  0  0  0  0  0  0
    0.5807   -2.1509    3.8242 H   0  0  0  0  0  0  0  0  0  0  0  0
   -1.1669   -2.1948    5.9475 H   0  0  0  0  0  0  0  0  0  0  0  0
    0.8694    5.9976    3.4398 H   0  0  0  0  0  0  0  0  0  0  0  0
  1  2  1  0
  1 15  1  0
  1 16  1  0
  1 17  1  0
  2  6  1  0
  2  3  1  0
  3  4  2  0
  3 18  1  0
  4  5  1  0
  4 19  1  0
  5  6  2  0
  6  7  1  0
  7  8  2  0
  7  9  1  0
  9 13  1  0
  9 10  2  0
 10 11  1  0
 11 12  1  0
 12 13  2  0
 12 20  1  0
 13 14  1  0
M  CHG  2  13   1  14  -1
M  END
>  <i_m_ct_stereo_status>  (335) 
1

>  <s_m_source_file>  (335) 
/var/tmp/pbs.5076255.sched01/tmp8hdfbsd6/1003312lgh9.sdf

>  <i_m_source_file_index>  (335) 
31

>  <i_lp_mmshare_version>  (335) 
48012

>  <i_f3d_flags>  (335) 
0

>  <s_epik_input>  (335) 
W0NIM11uMVtjSF1bY0hdbmMxQyg9TyljMm5vW2NIXVtuK10yW08tXQ==

>  <s_epik_cmdline>  (335) 
J2VwaWtfcHl0aG9uJywgJy1waHQnLCAnMi4wJywgJy1waCcsICc3LjAnLCAnLXRuJywgJzgnLCAnLW1hJywgJzIwMCcsICctaW1hZScsICc8aW5maWxlLm1hZT4nLCAnLW9tYWUnLCAnPG91dGZpbGUubWFlPic=

>  <r_lp_tautomer_probability>  (335) 
1

>  <r_epik_Ionization_Penalty>  (335) 
6.67677e-05

>  <r_epik_Ionization_Penalty_Charging>  (335) 
6.67617e-05

>  <r_epik_Ionization_Penalty_Neutral>  (335) 
5.99802e-09

>  <r_epik_State_Penalty>  (335) 
-0

>  <r_epik_Charging_Adjusted_Penalty>  (335) 
6.67617e-05

>  <i_epik_Tot_Q>  (335) 
0

>  <i_epik_Tot_abs_Q>  (335) 
2

>  <s_lp_Force_Field>  (335) 
OPLS3e

>  <r_lp_Energy>  (335) 
15.6704

>  <b_lp_Chiralities_Consistent>  (335) 
1

>  <s_lp_Variant>  (335) 
78:0-1

>  <s_i_glide_gridfile>  (335) 
pfpi4k_grid

>  <i_i_glide_lignum>  (335) 
31

>  <i_i_glide_rotatable_bonds>  (335) 
2

>  <r_i_docking_score>  (335) 
-5.25907

>  <r_i_glide_ligand_efficiency>  (335) 
-0.375648

>  <r_i_glide_ligand_efficiency_sa>  (335) 
-0.905364

>  <r_i_glide_ligand_efficiency_ln>  (335) 
-1.44517

>  <r_i_glide_gscore>  (335) 
-5.25907

>  <r_i_glide_lipo>  (335) 
0

>  <r_i_glide_hbond>  (335) 
-0.2

>  <r_i_glide_metal>  (335) 
-0

>  <r_i_glide_rewards>  (335) 
-2.38536

>  <r_i_glide_evdw>  (335) 
-14.2487

>  <r_i_glide_ecoul>  (335) 
-17.0105

>  <r_i_glide_erotb>  (335) 
0.858023

>  <r_i_glide_esite>  (335) 
-0.26772

>  <r_i_glide_emodel>  (335) 
-37.7446

>  <r_i_glide_energy>  (335) 
-31.2592

>  <r_i_glide_einternal>  (335) 
3.70981

>  <r_i_glide_intrahb_reward>  (335) 
-0

>  <i_i_glide_confnum>  (335) 
3

>  <i_i_glide_posenum>  (335) 
8

>  <r_i_glide_eff_state_penalty>  (335) 
0

>  <ligand_id>  (335) 
78

>  <original_smiles>  (335) 
Cn1ccnc1C(=O)c1noc[n+]1[O-]

>  <smiles>  (335) 
[H]c1nc(C(=O)c2noc([H])[n+]2[O-])n(C([H])([H])[H])c1[H]

$$$$
78:0:1
     RDKit          3D

 20 21  0  0  1  0  0  0  0  0999 V2000
    2.5562   -1.5134    4.0518 C   0  0  0  0  0  0  0  0  0  0  0  0
    1.7403   -2.7010    4.2354 N   0  0  0  0  0  0  0  0  0  0  0  0
    2.1236   -3.9461    3.7402 C   0  0  0  0  0  0  0  0  0  0  0  0
    1.2000   -4.8664    4.1563 C   0  0  0  0  0  0  0  0  0  0  0  0
    0.2399   -4.2124    4.9015 N   0  0  0  0  0  0  0  0  0  0  0  0
    0.5889   -2.9248    4.9146 C   0  0  0  0  0  0  0  0  0  0  0  0
   -0.2174   -1.8891    5.6168 C   0  0  0  0  0  0  0  0  0  0  0  0
   -0.5857   -2.1342    6.7622 O   0  0  0  0  0  0  0  0  0  0  0  0
   -0.6392   -0.6616    4.8793 C   0  0  0  0  0  0  0  0  0  0  0  0
   -0.2744   -0.2663    3.6649 N   0  0  0  0  0  0  0  0  0  0  0  0
   -0.8366    1.0077    3.3923 O   0  0  0  0  0  0  0  0  0  0  0  0
   -1.5633    1.2752    4.5026 C   0  0  0  0  0  0  0  0  0  0  0  0
   -1.4848    0.2715    5.3715 N   0  0  0  0  0  0  0  0  0  0  0  0
   -2.1502    0.2284    6.4760 O   0  0  0  0  0  0  0  0  0  0  0  0
    3.4972   -1.7898    3.5695 H   0  0  0  0  0  0  0  0  0  0  0  0
    2.7788   -1.0606    5.0195 H   0  0  0  0  0  0  0  0  0  0  0  0
    2.1006   -0.7733    3.3938 H   0  0  0  0  0  0  0  0  0  0  0  0
    3.0139   -4.0875    3.1650 H   0  0  0  0  0  0  0  0  0  0  0  0
    1.1646   -5.9332    3.9949 H   0  0  0  0  0  0  0  0  0  0  0  0
   -2.2240    2.1133    4.7119 H   0  0  0  0  0  0  0  0  0  0  0  0
  1  2  1  0
  1 15  1  0
  1 16  1  0
  1 17  1  0
  2  6  1  0
  2  3  1  0
  3  4  2  0
  3 18  1  0
  4  5  1  0
  4 19  1  0
  5  6  2  0
  6  7  1  0
  7  8  2  0
  7  9  1  0
  9 13  1  0
  9 10  2  0
 10 11  1  0
 11 12  1  0
 12 13  2  0
 12 20  1  0
 13 14  1  0
M  CHG  2  13   1  14  -1
M  END
>  <i_m_ct_stereo_status>  (336) 
1

>  <s_m_source_file>  (336) 
/var/tmp/pbs.5076255.sched01/tmp8hdfbsd6/1003312lgh9.sdf

>  <i_m_source_file_index>  (336) 
31

>  <i_lp_mmshare_version>  (336) 
48012

>  <i_f3d_flags>  (336) 
0

>  <s_epik_input>  (336) 
W0NIM11uMVtjSF1bY0hdbmMxQyg9TyljMm5vW2NIXVtuK10yW08tXQ==

>  <s_epik_cmdline>  (336) 
J2VwaWtfcHl0aG9uJywgJy1waHQnLCAnMi4wJywgJy1waCcsICc3LjAnLCAnLXRuJywgJzgnLCAnLW1hJywgJzIwMCcsICctaW1hZScsICc8aW5maWxlLm1hZT4nLCAnLW9tYWUnLCAnPG91dGZpbGUubWFlPic=

>  <r_lp_tautomer_probability>  (336) 
1

>  <r_epik_Ionization_Penalty>  (336) 
6.67677e-05

>  <r_epik_Ionization_Penalty_Charging>  (336) 
6.67617e-05

>  <r_epik_Ionization_Penalty_Neutral>  (336) 
5.99802e-09

>  <r_epik_State_Penalty>  (336) 
-0

>  <r_epik_Charging_Adjusted_Penalty>  (336) 
6.67617e-05

>  <i_epik_Tot_Q>  (336) 
0

>  <i_epik_Tot_abs_Q>  (336) 
2

>  <s_lp_Force_Field>  (336) 
OPLS3e

>  <r_lp_Energy>  (336) 
15.6704

>  <b_lp_Chiralities_Consistent>  (336) 
1

>  <s_lp_Variant>  (336) 
78:0-1

>  <s_i_glide_gridfile>  (336) 
pfpi4k_grid

>  <i_i_glide_lignum>  (336) 
31

>  <i_i_glide_rotatable_bonds>  (336) 
2

>  <r_i_docking_score>  (336) 
-4.74402

>  <r_i_glide_ligand_efficiency>  (336) 
-0.338859

>  <r_i_glide_ligand_efficiency_sa>  (336) 
-0.816697

>  <r_i_glide_ligand_efficiency_ln>  (336) 
-1.30364

>  <r_i_glide_gscore>  (336) 
-4.74402

>  <r_i_glide_lipo>  (336) 
-0.0010884

>  <r_i_glide_hbond>  (336) 
-0.2

>  <r_i_glide_metal>  (336) 
-0

>  <r_i_glide_rewards>  (336) 
-2.10513

>  <r_i_glide_evdw>  (336) 
-10.2222

>  <r_i_glide_ecoul>  (336) 
-17.6189

>  <r_i_glide_erotb>  (336) 
0.858023

>  <r_i_glide_esite>  (336) 
-0.141886

>  <r_i_glide_emodel>  (336) 
-33.1687

>  <r_i_glide_energy>  (336) 
-27.8411

>  <r_i_glide_einternal>  (336) 
3.98922

>  <r_i_glide_intrahb_reward>  (336) 
-0

>  <i_i_glide_confnum>  (336) 
3

>  <i_i_glide_posenum>  (336) 
39

>  <r_i_glide_eff_state_penalty>  (336) 
0

>  <ligand_id>  (336) 
78

>  <original_smiles>  (336) 
Cn1ccnc1C(=O)c1noc[n+]1[O-]

>  <smiles>  (336) 
[H]c1nc(C(=O)c2noc([H])[n+]2[O-])n(C([H])([H])[H])c1[H]

$$$$
78:0:2
     RDKit          3D

 20 21  0  0  1  0  0  0  0  0999 V2000
    0.8202  -10.3524    3.3591 C   0  0  0  0  0  0  0  0  0  0  0  0
    0.2201   -9.0874    2.9627 N   0  0  0  0  0  0  0  0  0  0  0  0
   -1.1137   -8.7718    3.1914 C   0  0  0  0  0  0  0  0  0  0  0  0
   -1.3151   -7.5161    2.6937 C   0  0  0  0  0  0  0  0  0  0  0  0
   -0.1262   -7.0413    2.1538 N   0  0  0  0  0  0  0  0  0  0  0  0
    0.7768   -8.0144    2.3374 C   0  0  0  0  0  0  0  0  0  0  0  0
    2.2320   -7.9712    1.9180 C   0  0  0  0  0  0  0  0  0  0  0  0
    2.9434   -8.9590    2.1134 O   0  0  0  0  0  0  0  0  0  0  0  0
    2.7597   -6.7197    1.2814 C   0  0  0  0  0  0  0  0  0  0  0  0
    2.1086   -5.5584    1.0552 N   0  0  0  0  0  0  0  0  0  0  0  0
    3.0173   -4.6763    0.4242 O   0  0  0  0  0  0  0  0  0  0  0  0
    4.1646   -5.4040    0.3227 C   0  0  0  0  0  0  0  0  0  0  0  0
    4.0284   -6.6249    0.8302 N   0  0  0  0  0  0  0  0  0  0  0  0
    4.9585   -7.5172    0.8601 O   0  0  0  0  0  0  0  0  0  0  0  0
    0.0817  -10.9920    3.8432 H   0  0  0  0  0  0  0  0  0  0  0  0
    1.6343  -10.1791    4.0647 H   0  0  0  0  0  0  0  0  0  0  0  0
    1.2058  -10.8760    2.4836 H   0  0  0  0  0  0  0  0  0  0  0  0
   -1.7902   -9.4563    3.6799 H   0  0  0  0  0  0  0  0  0  0  0  0
   -2.2160   -6.9224    2.6782 H   0  0  0  0  0  0  0  0  0  0  0  0
    5.1060   -5.0963   -0.1120 H   0  0  0  0  0  0  0  0  0  0  0  0
  1  2  1  0
  1 15  1  0
  1 16  1  0
  1 17  1  0
  2  6  1  0
  2  3  1  0
  3  4  2  0
  3 18  1  0
  4  5  1  0
  4 19  1  0
  5  6  2  0
  6  7  1  0
  7  8  2  0
  7  9  1  0
  9 13  1  0
  9 10  2  0
 10 11  1  0
 11 12  1  0
 12 13  2  0
 12 20  1  0
 13 14  1  0
M  CHG  2  13   1  14  -1
M  END
>  <i_m_ct_stereo_status>  (337) 
1

>  <s_m_source_file>  (337) 
/var/tmp/pbs.5076255.sched01/tmp8hdfbsd6/1003312lgh9.sdf

>  <i_m_source_file_index>  (337) 
31

>  <i_lp_mmshare_version>  (337) 
48012

>  <i_f3d_flags>  (337) 
0

>  <s_epik_input>  (337) 
W0NIM11uMVtjSF1bY0hdbmMxQyg9TyljMm5vW2NIXVtuK10yW08tXQ==

>  <s_epik_cmdline>  (337) 
J2VwaWtfcHl0aG9uJywgJy1waHQnLCAnMi4wJywgJy1waCcsICc3LjAnLCAnLXRuJywgJzgnLCAnLW1hJywgJzIwMCcsICctaW1hZScsICc8aW5maWxlLm1hZT4nLCAnLW9tYWUnLCAnPG91dGZpbGUubWFlPic=

>  <r_lp_tautomer_probability>  (337) 
1

>  <r_epik_Ionization_Penalty>  (337) 
6.67677e-05

>  <r_epik_Ionization_Penalty_Charging>  (337) 
6.67617e-05

>  <r_epik_Ionization_Penalty_Neutral>  (337) 
5.99802e-09

>  <r_epik_State_Penalty>  (337) 
-0

>  <r_epik_Charging_Adjusted_Penalty>  (337) 
6.67617e-05

>  <i_epik_Tot_Q>  (337) 
0

>  <i_epik_Tot_abs_Q>  (337) 
2

>  <s_lp_Force_Field>  (337) 
OPLS3e

>  <r_lp_Energy>  (337) 
15.6704

>  <b_lp_Chiralities_Consistent>  (337) 
1

>  <s_lp_Variant>  (337) 
78:0-1

>  <s_i_glide_gridfile>  (337) 
pfpi4k_grid

>  <i_i_glide_lignum>  (337) 
31

>  <i_i_glide_rotatable_bonds>  (337) 
2

>  <r_i_docking_score>  (337) 
-3.22238

>  <r_i_glide_ligand_efficiency>  (337) 
-0.23017

>  <r_i_glide_ligand_efficiency_sa>  (337) 
-0.554743

>  <r_i_glide_ligand_efficiency_ln>  (337) 
-0.8855

>  <r_i_glide_gscore>  (337) 
-3.22238

>  <r_i_glide_lipo>  (337) 
-0.100371

>  <r_i_glide_hbond>  (337) 
-0.052658

>  <r_i_glide_metal>  (337) 
-0

>  <r_i_glide_rewards>  (337) 
-2.24723

>  <r_i_glide_evdw>  (337) 
-18.267

>  <r_i_glide_ecoul>  (337) 
-4.10653

>  <r_i_glide_erotb>  (337) 
0.858023

>  <r_i_glide_esite>  (337) 
-0.150819

>  <r_i_glide_emodel>  (337) 
-27.9069

>  <r_i_glide_energy>  (337) 
-22.3735

>  <r_i_glide_einternal>  (337) 
0.0132499

>  <r_i_glide_intrahb_reward>  (337) 
-0

>  <i_i_glide_confnum>  (337) 
1

>  <i_i_glide_posenum>  (337) 
7

>  <r_i_glide_eff_state_penalty>  (337) 
0

>  <ligand_id>  (337) 
78

>  <original_smiles>  (337) 
Cn1ccnc1C(=O)c1noc[n+]1[O-]

>  <smiles>  (337) 
[H]c1nc(C(=O)c2noc([H])[n+]2[O-])n(C([H])([H])[H])c1[H]

$$$$
79:0:0
     RDKit          3D

 60 67  0  0  1  0  0  0  0  0999 V2000
    0.8144  -10.6565    5.2777 N   0  0  0  0  0  0  0  0  0  0  0  0
    2.1622  -10.0671    5.3766 C   0  0  2  0  0  0  0  0  0  0  0  0
    2.1616   -8.5992    4.9162 C   0  0  0  0  0  0  0  0  0  0  0  0
    3.3320   -8.2649    3.9625 C   0  0  1  0  0  0  0  0  0  0  0  0
    4.6942   -8.7478    4.5583 C   0  0  1  0  0  0  0  0  0  0  0  0
    4.6370  -10.2873    4.7434 C   0  0  0  0  0  0  0  0  0  0  0  0
    3.2087  -10.8909    4.6007 C   0  0  2  0  0  0  0  0  0  0  0  0
    2.8003  -11.1060    3.1240 C   0  0  0  0  0  0  0  0  0  0  0  0
    2.4347   -9.8592    2.2562 C   0  0  1  0  0  0  0  0  0  0  0  0
    1.0440   -9.6099    2.3553 O   0  0  0  0  0  0  0  0  0  0  0  0
    3.1125   -8.5717    2.5407 N   0  0  0  0  0  0  0  0  0  0  0  0
    4.2760   -8.3182    1.6061 C   0  0  2  0  0  0  0  0  0  0  0  0
    5.2408   -9.4260    1.5027 C   0  0  0  0  0  0  0  0  0  0  0  0
    5.9728   -8.4436    2.3286 C   0  0  1  0  0  0  0  0  0  0  0  0
    5.4942   -7.1802    1.5912 C   0  0  1  0  0  0  0  0  0  0  0  0
    4.4763   -6.0059    1.6529 C   0  0  0  0  0  0  0  0  0  0  0  0
    3.8412   -5.5773    0.4678 C   0  0  0  0  0  0  0  0  0  0  0  0
    2.9195   -4.5124    0.4800 C   0  0  0  0  0  0  0  0  0  0  0  0
    2.6282   -3.8440    1.6831 C   0  0  0  0  0  0  0  0  0  0  0  0
    3.2716   -4.2317    2.8658 C   0  0  0  0  0  0  0  0  0  0  0  0
    4.1996   -5.2919    2.8504 C   0  0  0  0  0  0  0  0  0  0  0  0
    4.9402   -5.6292    4.1327 C   0  0  0  0  0  0  0  0  0  0  0  0
    6.1240   -6.6129    3.9443 C   0  0  2  0  0  0  0  0  0  0  0  0
    6.9968   -6.1180    4.9596 O   0  0  0  0  0  0  0  0  0  0  0  0
    6.6331   -6.4718    2.5136 C   0  0  1  0  0  0  0  0  0  0  0  0
    8.0078   -6.9944    2.4759 O   0  0  0  0  0  0  0  0  0  0  0  0
    8.4845   -7.9410    3.4967 C   0  0  0  0  0  0  0  0  0  0  0  0
    7.3567   -8.7176    4.2818 C   0  0  0  0  0  0  0  0  0  0  0  0
    5.9711   -8.1812    3.8505 C   0  0  1  0  0  0  0  0  0  0  0  0
    0.5236  -10.6526    4.3102 H   0  0  0  0  0  0  0  0  0  0  0  0
    0.1406  -10.1356    5.8182 H   0  0  0  0  0  0  0  0  0  0  0  0
    2.4321  -10.0973    6.4336 H   0  0  0  0  0  0  0  0  0  0  0  0
    1.2050   -8.2862    4.4900 H   0  0  0  0  0  0  0  0  0  0  0  0
    2.2839   -7.9791    5.8066 H   0  0  0  0  0  0  0  0  0  0  0  0
    3.2472   -7.2031    3.9350 H   0  0  0  0  0  0  0  0  0  0  0  0
    4.7247   -8.3271    5.5648 H   0  0  0  0  0  0  0  0  0  0  0  0
    5.3251  -10.7958    4.0701 H   0  0  0  0  0  0  0  0  0  0  0  0
    5.0223  -10.5102    5.7391 H   0  0  0  0  0  0  0  0  0  0  0  0
    3.2523  -11.8800    5.0606 H   0  0  0  0  0  0  0  0  0  0  0  0
    3.5812  -11.6854    2.6387 H   0  0  0  0  0  0  0  0  0  0  0  0
    1.9604  -11.8018    3.0973 H   0  0  0  0  0  0  0  0  0  0  0  0
    2.5926  -10.1273    1.2104 H   0  0  0  0  0  0  0  0  0  0  0  0
    0.6468   -9.8330    1.5183 H   0  0  0  0  0  0  0  0  0  0  0  0
    3.7974   -8.2736    0.6284 H   0  0  0  0  0  0  0  0  0  0  0  0
    5.0503  -10.3751    1.9872 H   0  0  0  0  0  0  0  0  0  0  0  0
    5.6410   -9.5545    0.4958 H   0  0  0  0  0  0  0  0  0  0  0  0
    6.9191   -8.8205    1.9389 H   0  0  0  0  0  0  0  0  0  0  0  0
    4.0588   -6.0724   -0.4686 H   0  0  0  0  0  0  0  0  0  0  0  0
    2.4427   -4.1963   -0.4330 H   0  0  0  0  0  0  0  0  0  0  0  0
    1.9252   -3.0242    1.6996 H   0  0  0  0  0  0  0  0  0  0  0  0
    3.0719   -3.7019    3.7842 H   0  0  0  0  0  0  0  0  0  0  0  0
    5.3469   -4.6554    4.4159 H   0  0  0  0  0  0  0  0  0  0  0  0
    4.2979   -5.8800    4.9746 H   0  0  0  0  0  0  0  0  0  0  0  0
    7.8324   -6.5472    4.8646 H   0  0  0  0  0  0  0  0  0  0  0  0
    6.7679   -5.4282    2.2285 H   0  0  0  0  0  0  0  0  0  0  0  0
    9.1670   -8.6492    3.0252 H   0  0  0  0  0  0  0  0  0  0  0  0
    9.1090   -7.3917    4.2026 H   0  0  0  0  0  0  0  0  0  0  0  0
    7.4391   -9.7830    4.0604 H   0  0  0  0  0  0  0  0  0  0  0  0
    7.5012   -8.6292    5.3618 H   0  0  0  0  0  0  0  0  0  0  0  0
    0.8427  -11.5999    5.6373 H   0  0  0  0  0  0  0  0  0  0  0  0
  1  2  1  0
  1 30  1  0
  1 31  1  0
  1 60  1  0
  2  7  1  0
  2  3  1  0
  2 32  1  1
  3  4  1  0
  3 33  1  0
  3 34  1  0
  4 11  1  0
  4  5  1  0
  4 35  1  6
  5 29  1  0
  5  6  1  0
  5 36  1  1
  6  7  1  0
  6 37  1  0
  6 38  1  0
  7  8  1  0
  7 39  1  1
  8  9  1  0
  8 40  1  0
  8 41  1  0
  9 10  1  0
  9 11  1  0
  9 42  1  6
 10 43  1  0
 11 12  1  0
 12 15  1  0
 12 13  1  0
 12 44  1  6
 13 14  1  0
 13 45  1  0
 13 46  1  0
 14 29  1  0
 14 15  1  0
 14 47  1  6
 15 25  1  0
 15 16  1  6
 16 21  2  0
 16 17  1  0
 17 18  2  0
 17 48  1  0
 18 19  1  0
 18 49  1  0
 19 20  2  0
 19 50  1  0
 20 21  1  0
 20 51  1  0
 21 22  1  0
 22 23  1  0
 22 52  1  0
 22 53  1  0
 23 29  1  0
 23 24  1  1
 23 25  1  0
 24 54  1  0
 25 26  1  0
 25 55  1  6
 26 27  1  0
 27 28  1  0
 27 56  1  0
 27 57  1  0
 29 28  1  1
 28 58  1  0
 28 59  1  0
M  CHG  1   1   1
M  END
>  <i_m_ct_stereo_status>  (338) 
1

>  <s_m_source_file>  (338) 
/var/tmp/pbs.5076255.sched01/tmp8hdfbsd6/1003312lgh9.sdf

>  <i_m_source_file_index>  (338) 
32

>  <i_lp_mmshare_version>  (338) 
48012

>  <i_f3d_flags>  (338) 
2

>  <s_epik_input>  (338) 
W09IXVtDQEBIXTFbQ0gyXVtDQEhdKFtDQEhdKFtOSDJdKVtDSDJdMilbQ0gyXVtDQEhdKFtDQEhdMk4xW0NAQEhdM0M0NTYpW0NAXTcoW0NASF00W0NIMl0zKVtDQF0oW09IXSkoW0NAQEhdNk9bQ0gyXVtDSDJdNylbQ0gyXWM4YzVbY0hdW2NIXVtjSF1bY0hdOA==

>  <s_epik_cmdline>  (338) 
J2VwaWtfcHl0aG9uJywgJy1waHQnLCAnMi4wJywgJy1waCcsICc3LjAnLCAnLXRuJywgJzgnLCAnLW1hJywgJzIwMCcsICctaW1hZScsICc8aW5maWxlLm1hZT4nLCAnLW9tYWUnLCAnPG91dGZpbGUubWFlPic=

>  <r_epik_Ionization_Penalty>  (338) 
0.13804

>  <r_epik_Ionization_Penalty_Charging>  (338) 
0.000225428

>  <r_epik_Ionization_Penalty_Neutral>  (338) 
0.137815

>  <r_epik_State_Penalty>  (338) 
0.453863

>  <r_epik_Charging_Adjusted_Penalty>  (338) 
0.454089

>  <i_epik_Tot_Q>  (338) 
1

>  <i_epik_Tot_abs_Q>  (338) 
1

>  <s_epik_Chemistry_Notes>  (338) 
This compound contains an acetal/aminal-like group ( X-CH(R)-Y where X, Y are N, S, or O) that may be acid/base labile, releasing an aldehyde.

>  <s_lp_Force_Field>  (338) 
OPLS3e

>  <r_lp_Energy>  (338) 
240.386

>  <b_lp_Chiralities_Consistent>  (338) 
0

>  <s_lp_Variant>  (338) 
79:0-1

>  <s_i_glide_gridfile>  (338) 
pfpi4k_grid

>  <i_i_glide_lignum>  (338) 
32

>  <i_i_glide_rotatable_bonds>  (338) 
2

>  <r_i_docking_score>  (338) 
-4.22443

>  <r_i_glide_ligand_efficiency>  (338) 
-0.14567

>  <r_i_glide_ligand_efficiency_sa>  (338) 
-0.447544

>  <r_i_glide_ligand_efficiency_ln>  (338) 
-0.967287

>  <r_i_glide_gscore>  (338) 
-4.22443

>  <r_i_glide_lipo>  (338) 
-0.195737

>  <r_i_glide_hbond>  (338) 
-0.403401

>  <r_i_glide_metal>  (338) 
-0

>  <r_i_glide_rewards>  (338) 
-1.2124

>  <r_i_glide_evdw>  (338) 
-23.534

>  <r_i_glide_ecoul>  (338) 
-7.66566

>  <r_i_glide_erotb>  (338) 
0

>  <r_i_glide_esite>  (338) 
-0.0863449

>  <r_i_glide_emodel>  (338) 
-48.1655

>  <r_i_glide_energy>  (338) 
-31.1996

>  <r_i_glide_einternal>  (338) 
0.187458

>  <r_i_glide_intrahb_reward>  (338) 
-0.5

>  <i_i_glide_confnum>  (338) 
1

>  <i_i_glide_posenum>  (338) 
1

>  <r_i_glide_eff_state_penalty>  (338) 
0

>  <ligand_id>  (338) 
79

>  <original_smiles>  (338) 
NC1CC2C3CC1CC(O)N2C1CC2C14c1ccccc1CC1(O)C4OCCC321

>  <smiles>  (338) 
[H]OC1([H])N2C3([H])C([H])([H])C([H])([N+]([H])([H])[H])C([H])(C1([H])[H])C([H])([H])C3([H])C13C([H])([H])C([H])([H])OC4([H])C1(O[H])C([H])([H])c1c([H])c([H])c([H])c([H])c1C41C2([H])C([H])([H])C13[H]

$$$$
79:0:1
     RDKit          3D

 60 67  0  0  1  0  0  0  0  0999 V2000
    3.0383   -3.0751   -0.1955 N   0  0  0  0  0  0  0  0  0  0  0  0
    3.8341   -4.3028    0.0896 C   0  0  2  0  0  0  0  0  0  0  0  0
    2.9285   -5.4649    0.5172 C   0  0  0  0  0  0  0  0  0  0  0  0
    3.5059   -6.2667    1.7098 C   0  0  1  0  0  0  0  0  0  0  0  0
    5.0006   -6.6493    1.4796 C   0  0  1  0  0  0  0  0  0  0  0  0
    5.8253   -5.3385    1.3264 C   0  0  0  0  0  0  0  0  0  0  0  0
    4.9506   -4.0574    1.1240 C   0  0  2  0  0  0  0  0  0  0  0  0
    4.4154   -3.4942    2.4660 C   0  0  0  0  0  0  0  0  0  0  0  0
    3.2577   -4.2665    3.1912 C   0  0  1  0  0  0  0  0  0  0  0  0
    1.9989   -3.8046    2.7434 O   0  0  0  0  0  0  0  0  0  0  0  0
    3.2146   -5.7371    3.0443 N   0  0  0  0  0  0  0  0  0  0  0  0
    3.7887   -6.4566    4.2325 C   0  0  2  0  0  0  0  0  0  0  0  0
    5.1387   -6.0193    4.5963 C   0  0  0  0  0  0  0  0  0  0  0  0
    5.3813   -7.3265    3.9552 C   0  0  1  0  0  0  0  0  0  0  0  0
    4.1489   -8.0461    4.5308 C   0  0  1  0  0  0  0  0  0  0  0  0
    2.7054   -8.4859    4.2054 C   0  0  0  0  0  0  0  0  0  0  0  0
    1.7032   -8.3667    5.1940 C   0  0  0  0  0  0  0  0  0  0  0  0
    0.3842   -8.7774    4.9318 C   0  0  0  0  0  0  0  0  0  0  0  0
    0.0514   -9.3276    3.6788 C   0  0  0  0  0  0  0  0  0  0  0  0
    1.0356   -9.4818    2.7060 C   0  0  0  0  0  0  0  0  0  0  0  0
    2.3543   -9.0703    2.9568 C   0  0  0  0  0  0  0  0  0  0  0  0
    3.4175   -9.3384    1.9072 C   0  0  0  0  0  0  0  0  0  0  0  0
    4.8761   -9.1347    2.3834 C   0  0  2  0  0  0  0  0  0  0  0  0
    5.5490  -10.1234    1.6017 O   0  0  0  0  0  0  0  0  0  0  0  0
    4.8951   -9.3514    3.8977 C   0  0  1  0  0  0  0  0  0  0  0  0
    6.2850   -9.6132    4.3063 O   0  0  0  0  0  0  0  0  0  0  0  0
    7.3960   -9.1963    3.4351 C   0  0  0  0  0  0  0  0  0  0  0  0
    7.0800   -8.0422    2.4042 C   0  0  0  0  0  0  0  0  0  0  0  0
    5.5753   -7.7225    2.4743 C   0  0  1  0  0  0  0  0  0  0  0  0
    2.5581   -2.7774    0.6409 H   0  0  0  0  0  0  0  0  0  0  0  0
    2.3473   -3.2471   -0.9150 H   0  0  0  0  0  0  0  0  0  0  0  0
    4.3034   -4.5770   -0.8476 H   0  0  0  0  0  0  0  0  0  0  0  0
    1.8878   -5.1891    0.6969 H   0  0  0  0  0  0  0  0  0  0  0  0
    2.8891   -6.1582   -0.3185 H   0  0  0  0  0  0  0  0  0  0  0  0
    2.8529   -7.1094    1.6962 H   0  0  0  0  0  0  0  0  0  0  0  0
    5.0202   -7.1287    0.4969 H   0  0  0  0  0  0  0  0  0  0  0  0
    6.5212   -5.2106    2.1550 H   0  0  0  0  0  0  0  0  0  0  0  0
    6.4561   -5.4690    0.4539 H   0  0  0  0  0  0  0  0  0  0  0  0
    5.6211   -3.3099    0.7101 H   0  0  0  0  0  0  0  0  0  0  0  0
    5.2785   -3.3679    3.1236 H   0  0  0  0  0  0  0  0  0  0  0  0
    4.1090   -2.4650    2.3001 H   0  0  0  0  0  0  0  0  0  0  0  0
    3.2917   -3.9800    4.2457 H   0  0  0  0  0  0  0  0  0  0  0  0
    2.1159   -2.9312    2.4010 H   0  0  0  0  0  0  0  0  0  0  0  0
    3.1447   -6.1409    5.0488 H   0  0  0  0  0  0  0  0  0  0  0  0
    5.6056   -5.1720    4.1043 H   0  0  0  0  0  0  0  0  0  0  0  0
    5.2825   -6.0202    5.6771 H   0  0  0  0  0  0  0  0  0  0  0  0
    6.2782   -7.4397    4.5655 H   0  0  0  0  0  0  0  0  0  0  0  0
    1.9496   -7.9653    6.1700 H   0  0  0  0  0  0  0  0  0  0  0  0
   -0.3831   -8.7095    5.6865 H   0  0  0  0  0  0  0  0  0  0  0  0
   -0.9522   -9.6599    3.4831 H   0  0  0  0  0  0  0  0  0  0  0  0
    0.8000   -9.9487    1.7606 H   0  0  0  0  0  0  0  0  0  0  0  0
    3.2722  -10.4029    1.7242 H   0  0  0  0  0  0  0  0  0  0  0  0
    3.2092   -8.8890    0.9307 H   0  0  0  0  0  0  0  0  0  0  0  0
    4.9667  -10.8460    1.3779 H   0  0  0  0  0  0  0  0  0  0  0  0
    4.3694  -10.2627    4.1804 H   0  0  0  0  0  0  0  0  0  0  0  0
    8.2445   -8.9053    4.0600 H   0  0  0  0  0  0  0  0  0  0  0  0
    7.7365  -10.0742    2.8879 H   0  0  0  0  0  0  0  0  0  0  0  0
    7.6784   -7.1650    2.6577 H   0  0  0  0  0  0  0  0  0  0  0  0
    7.3801   -8.3288    1.3959 H   0  0  0  0  0  0  0  0  0  0  0  0
    3.6372   -2.3267   -0.5088 H   0  0  0  0  0  0  0  0  0  0  0  0
  1  2  1  0
  1 30  1  0
  1 31  1  0
  1 60  1  0
  2  7  1  0
  2  3  1  0
  2 32  1  6
  3  4  1  0
  3 33  1  0
  3 34  1  0
  4 11  1  0
  4  5  1  0
  4 35  1  1
  5 29  1  0
  5  6  1  0
  5 36  1  6
  6  7  1  0
  6 37  1  0
  6 38  1  0
  7  8  1  0
  7 39  1  6
  8  9  1  0
  8 40  1  0
  8 41  1  0
  9 10  1  0
  9 11  1  0
  9 42  1  1
 10 43  1  0
 11 12  1  0
 12 15  1  0
 12 13  1  0
 12 44  1  1
 13 14  1  0
 13 45  1  0
 13 46  1  0
 14 29  1  0
 14 15  1  0
 14 47  1  1
 15 25  1  0
 15 16  1  1
 16 21  2  0
 16 17  1  0
 17 18  2  0
 17 48  1  0
 18 19  1  0
 18 49  1  0
 19 20  2  0
 19 50  1  0
 20 21  1  0
 20 51  1  0
 21 22  1  0
 22 23  1  0
 22 52  1  0
 22 53  1  0
 23 29  1  0
 23 24  1  6
 23 25  1  0
 24 54  1  0
 25 26  1  0
 25 55  1  6
 26 27  1  0
 27 28  1  0
 27 56  1  0
 27 57  1  0
 29 28  1  6
 28 58  1  0
 28 59  1  0
M  CHG  1   1   1
M  END
>  <i_m_ct_stereo_status>  (339) 
1

>  <s_m_source_file>  (339) 
/var/tmp/pbs.5076255.sched01/tmp8hdfbsd6/1003312lgh9.sdf

>  <i_m_source_file_index>  (339) 
32

>  <i_lp_mmshare_version>  (339) 
48012

>  <i_f3d_flags>  (339) 
2

>  <s_epik_input>  (339) 
W09IXVtDQEBIXTFbQ0gyXVtDQEhdKFtDQEhdKFtOSDJdKVtDSDJdMilbQ0gyXVtDQEhdKFtDQEhdMk4xW0NAQEhdM0M0NTYpW0NAXTcoW0NASF00W0NIMl0zKVtDQF0oW09IXSkoW0NAQEhdNk9bQ0gyXVtDSDJdNylbQ0gyXWM4YzVbY0hdW2NIXVtjSF1bY0hdOA==

>  <s_epik_cmdline>  (339) 
J2VwaWtfcHl0aG9uJywgJy1waHQnLCAnMi4wJywgJy1waCcsICc3LjAnLCAnLXRuJywgJzgnLCAnLW1hJywgJzIwMCcsICctaW1hZScsICc8aW5maWxlLm1hZT4nLCAnLW9tYWUnLCAnPG91dGZpbGUubWFlPic=

>  <r_epik_Ionization_Penalty>  (339) 
0.13804

>  <r_epik_Ionization_Penalty_Charging>  (339) 
0.000225428

>  <r_epik_Ionization_Penalty_Neutral>  (339) 
0.137815

>  <r_epik_State_Penalty>  (339) 
0.453863

>  <r_epik_Charging_Adjusted_Penalty>  (339) 
0.454089

>  <i_epik_Tot_Q>  (339) 
1

>  <i_epik_Tot_abs_Q>  (339) 
1

>  <s_epik_Chemistry_Notes>  (339) 
This compound contains an acetal/aminal-like group ( X-CH(R)-Y where X, Y are N, S, or O) that may be acid/base labile, releasing an aldehyde.

>  <s_lp_Force_Field>  (339) 
OPLS3e

>  <r_lp_Energy>  (339) 
240.386

>  <b_lp_Chiralities_Consistent>  (339) 
0

>  <s_lp_Variant>  (339) 
79:0-1

>  <s_i_glide_gridfile>  (339) 
pfpi4k_grid

>  <i_i_glide_lignum>  (339) 
32

>  <i_i_glide_rotatable_bonds>  (339) 
2

>  <r_i_docking_score>  (339) 
-3.38057

>  <r_i_glide_ligand_efficiency>  (339) 
-0.116571

>  <r_i_glide_ligand_efficiency_sa>  (339) 
-0.358144

>  <r_i_glide_ligand_efficiency_ln>  (339) 
-0.774065

>  <r_i_glide_gscore>  (339) 
-3.38057

>  <r_i_glide_lipo>  (339) 
-0.398285

>  <r_i_glide_hbond>  (339) 
0

>  <r_i_glide_metal>  (339) 
-0

>  <r_i_glide_rewards>  (339) 
-0.71241

>  <r_i_glide_evdw>  (339) 
-22.8784

>  <r_i_glide_ecoul>  (339) 
-7.39336

>  <r_i_glide_erotb>  (339) 
0

>  <r_i_glide_esite>  (339) 
-0.01695

>  <r_i_glide_emodel>  (339) 
-39.2

>  <r_i_glide_energy>  (339) 
-30.2718

>  <r_i_glide_einternal>  (339) 
0.799105

>  <r_i_glide_intrahb_reward>  (339) 
-0

>  <i_i_glide_confnum>  (339) 
2

>  <i_i_glide_posenum>  (339) 
15

>  <r_i_glide_eff_state_penalty>  (339) 
0

>  <ligand_id>  (339) 
79

>  <original_smiles>  (339) 
NC1CC2C3CC1CC(O)N2C1CC2C14c1ccccc1CC1(O)C4OCCC321

>  <smiles>  (339) 
[H]OC1([H])N2C3([H])C([H])([H])C([H])([N+]([H])([H])[H])C([H])(C1([H])[H])C([H])([H])C3([H])C13C([H])([H])C([H])([H])OC4([H])C1(O[H])C([H])([H])c1c([H])c([H])c([H])c([H])c1C41C2([H])C([H])([H])C13[H]

$$$$
79:0:2
     RDKit          3D

 60 67  0  0  1  0  0  0  0  0999 V2000
    4.9554   -5.6924    0.1362 N   0  0  0  0  0  0  0  0  0  0  0  0
    4.9599   -6.6408    1.2778 C   0  0  2  0  0  0  0  0  0  0  0  0
    3.6356   -7.4058    1.3447 C   0  0  0  0  0  0  0  0  0  0  0  0
    3.0499   -7.4805    2.7744 C   0  0  1  0  0  0  0  0  0  0  0  0
    4.1290   -7.9738    3.7964 C   0  0  1  0  0  0  0  0  0  0  0  0
    5.3026   -6.9600    3.7956 C   0  0  0  0  0  0  0  0  0  0  0  0
    5.2697   -5.9417    2.6146 C   0  0  2  0  0  0  0  0  0  0  0  0
    4.3343   -4.7495    2.9056 C   0  0  0  0  0  0  0  0  0  0  0  0
    2.7939   -4.9811    2.8231 C   0  0  1  0  0  0  0  0  0  0  0  0
    2.3763   -4.7319    1.4972 O   0  0  0  0  0  0  0  0  0  0  0  0
    2.2464   -6.3141    3.1820 N   0  0  0  0  0  0  0  0  0  0  0  0
    1.7288   -6.3595    4.6124 C   0  0  2  0  0  0  0  0  0  0  0  0
    2.6594   -5.8364    5.6282 C   0  0  0  0  0  0  0  0  0  0  0  0
    2.7286   -7.2927    5.8550 C   0  0  1  0  0  0  0  0  0  0  0  0
    1.2403   -7.5904    5.6343 C   0  0  1  0  0  0  0  0  0  0  0  0
    0.2177   -8.0929    4.5853 C   0  0  0  0  0  0  0  0  0  0  0  0
   -1.0402   -7.4624    4.4651 C   0  0  0  0  0  0  0  0  0  0  0  0
   -1.9944   -7.9116    3.5336 C   0  0  0  0  0  0  0  0  0  0  0  0
   -1.7080   -9.0144    2.6995 C   0  0  0  0  0  0  0  0  0  0  0  0
   -0.4837   -9.6738    2.8259 C   0  0  0  0  0  0  0  0  0  0  0  0
    0.4664   -9.2389    3.7680 C   0  0  0  0  0  0  0  0  0  0  0  0
    1.7443  -10.0394    3.9334 C   0  0  0  0  0  0  0  0  0  0  0  0
    2.5908   -9.6411    5.1677 C   0  0  2  0  0  0  0  0  0  0  0  0
    3.1459  -10.9119    5.5050 O   0  0  0  0  0  0  0  0  0  0  0  0
    1.6528   -9.0540    6.2139 C   0  0  1  0  0  0  0  0  0  0  0  0
    2.3323   -9.1009    7.5176 O   0  0  0  0  0  0  0  0  0  0  0  0
    3.7957   -9.2345    7.5907 C   0  0  0  0  0  0  0  0  0  0  0  0
    4.5838   -8.7587    6.3109 C   0  0  0  0  0  0  0  0  0  0  0  0
    3.5764   -8.4036    5.1973 C   0  0  1  0  0  0  0  0  0  0  0  0
    4.2074   -5.0410    0.2973 H   0  0  0  0  0  0  0  0  0  0  0  0
    4.7806   -6.1785   -0.7274 H   0  0  0  0  0  0  0  0  0  0  0  0
    5.7552   -7.3547    1.0865 H   0  0  0  0  0  0  0  0  0  0  0  0
    2.8881   -7.0236    0.6495 H   0  0  0  0  0  0  0  0  0  0  0  0
    3.8275   -8.4302    1.0173 H   0  0  0  0  0  0  0  0  0  0  0  0
    2.2752   -8.1988    2.6149 H   0  0  0  0  0  0  0  0  0  0  0  0
    4.5259   -8.8939    3.3581 H   0  0  0  0  0  0  0  0  0  0  0  0
    5.3750   -6.4381    4.7490 H   0  0  0  0  0  0  0  0  0  0  0  0
    6.2234   -7.5367    3.7401 H   0  0  0  0  0  0  0  0  0  0  0  0
    6.2742   -5.5304    2.5528 H   0  0  0  0  0  0  0  0  0  0  0  0
    4.5984   -4.3186    3.8673 H   0  0  0  0  0  0  0  0  0  0  0  0
    4.5822   -3.9438    2.2169 H   0  0  0  0  0  0  0  0  0  0  0  0
    2.2908   -4.2180    3.4243 H   0  0  0  0  0  0  0  0  0  0  0  0
    2.3954   -3.7957    1.3624 H   0  0  0  0  0  0  0  0  0  0  0  0
    0.9126   -5.6394    4.5938 H   0  0  0  0  0  0  0  0  0  0  0  0
    3.6019   -5.3870    5.3403 H   0  0  0  0  0  0  0  0  0  0  0  0
    2.1595   -5.2804    6.4298 H   0  0  0  0  0  0  0  0  0  0  0  0
    2.9641   -7.1097    6.8986 H   0  0  0  0  0  0  0  0  0  0  0  0
   -1.2853   -6.6276    5.1123 H   0  0  0  0  0  0  0  0  0  0  0  0
   -2.9656   -7.4519    3.4696 H   0  0  0  0  0  0  0  0  0  0  0  0
   -2.4461   -9.3722    1.9968 H   0  0  0  0  0  0  0  0  0  0  0  0
   -0.2823  -10.5493    2.2115 H   0  0  0  0  0  0  0  0  0  0  0  0
    1.3606  -11.0522    4.0935 H   0  0  0  0  0  0  0  0  0  0  0  0
    2.3254  -10.1440    3.0187 H   0  0  0  0  0  0  0  0  0  0  0  0
    2.4987  -11.4243    5.9827 H   0  0  0  0  0  0  0  0  0  0  0  0
    0.7691   -9.6749    6.3646 H   0  0  0  0  0  0  0  0  0  0  0  0
    4.1481   -8.6930    8.4674 H   0  0  0  0  0  0  0  0  0  0  0  0
    4.0402  -10.2768    7.7977 H   0  0  0  0  0  0  0  0  0  0  0  0
    5.1948   -7.8951    6.5668 H   0  0  0  0  0  0  0  0  0  0  0  0
    5.2847   -9.5291    5.9765 H   0  0  0  0  0  0  0  0  0  0  0  0
    5.8357   -5.2142    0.0941 H   0  0  0  0  0  0  0  0  0  0  0  0
  1  2  1  0
  1 30  1  0
  1 31  1  0
  1 60  1  0
  2  7  1  0
  2  3  1  0
  2 32  1  6
  3  4  1  0
  3 33  1  0
  3 34  1  0
  4 11  1  0
  4  5  1  0
  4 35  1  6
  5 29  1  0
  5  6  1  0
  5 36  1  6
  6  7  1  0
  6 37  1  0
  6 38  1  0
  7  8  1  0
  7 39  1  6
  8  9  1  0
  8 40  1  0
  8 41  1  0
  9 10  1  0
  9 11  1  0
  9 42  1  1
 10 43  1  0
 11 12  1  0
 12 15  1  0
 12 13  1  0
 12 44  1  6
 13 14  1  0
 13 45  1  0
 13 46  1  0
 14 29  1  0
 14 15  1  0
 14 47  1  1
 15 25  1  0
 15 16  1  1
 16 21  2  0
 16 17  1  0
 17 18  2  0
 17 48  1  0
 18 19  1  0
 18 49  1  0
 19 20  2  0
 19 50  1  0
 20 21  1  0
 20 51  1  0
 21 22  1  0
 22 23  1  0
 22 52  1  0
 22 53  1  0
 23 29  1  0
 23 24  1  1
 23 25  1  0
 24 54  1  0
 25 26  1  0
 25 55  1  1
 26 27  1  0
 27 28  1  0
 27 56  1  0
 27 57  1  0
 29 28  1  1
 28 58  1  0
 28 59  1  0
M  CHG  1   1   1
M  END
>  <i_m_ct_stereo_status>  (340) 
1

>  <s_m_source_file>  (340) 
/var/tmp/pbs.5076255.sched01/tmp8hdfbsd6/1003312lgh9.sdf

>  <i_m_source_file_index>  (340) 
32

>  <i_lp_mmshare_version>  (340) 
48012

>  <i_f3d_flags>  (340) 
2

>  <s_epik_input>  (340) 
W09IXVtDQEBIXTFbQ0gyXVtDQEhdKFtDQEhdKFtOSDJdKVtDSDJdMilbQ0gyXVtDQEhdKFtDQEhdMk4xW0NAQEhdM0M0NTYpW0NAXTcoW0NASF00W0NIMl0zKVtDQF0oW09IXSkoW0NAQEhdNk9bQ0gyXVtDSDJdNylbQ0gyXWM4YzVbY0hdW2NIXVtjSF1bY0hdOA==

>  <s_epik_cmdline>  (340) 
J2VwaWtfcHl0aG9uJywgJy1waHQnLCAnMi4wJywgJy1waCcsICc3LjAnLCAnLXRuJywgJzgnLCAnLW1hJywgJzIwMCcsICctaW1hZScsICc8aW5maWxlLm1hZT4nLCAnLW9tYWUnLCAnPG91dGZpbGUubWFlPic=

>  <r_epik_Ionization_Penalty>  (340) 
0.13804

>  <r_epik_Ionization_Penalty_Charging>  (340) 
0.000225428

>  <r_epik_Ionization_Penalty_Neutral>  (340) 
0.137815

>  <r_epik_State_Penalty>  (340) 
0.453863

>  <r_epik_Charging_Adjusted_Penalty>  (340) 
0.454089

>  <i_epik_Tot_Q>  (340) 
1

>  <i_epik_Tot_abs_Q>  (340) 
1

>  <s_epik_Chemistry_Notes>  (340) 
This compound contains an acetal/aminal-like group ( X-CH(R)-Y where X, Y are N, S, or O) that may be acid/base labile, releasing an aldehyde.

>  <s_lp_Force_Field>  (340) 
OPLS3e

>  <r_lp_Energy>  (340) 
240.386

>  <b_lp_Chiralities_Consistent>  (340) 
0

>  <s_lp_Variant>  (340) 
79:0-1

>  <s_i_glide_gridfile>  (340) 
pfpi4k_grid

>  <i_i_glide_lignum>  (340) 
32

>  <i_i_glide_rotatable_bonds>  (340) 
2

>  <r_i_docking_score>  (340) 
-3.25501

>  <r_i_glide_ligand_efficiency>  (340) 
-0.112242

>  <r_i_glide_ligand_efficiency_sa>  (340) 
-0.344842

>  <r_i_glide_ligand_efficiency_ln>  (340) 
-0.745315

>  <r_i_glide_gscore>  (340) 
-3.25501

>  <r_i_glide_lipo>  (340) 
-0.240447

>  <r_i_glide_hbond>  (340) 
0

>  <r_i_glide_metal>  (340) 
-0

>  <r_i_glide_rewards>  (340) 
-1.2124

>  <r_i_glide_evdw>  (340) 
-23.4289

>  <r_i_glide_ecoul>  (340) 
-4.18768

>  <r_i_glide_erotb>  (340) 
0

>  <r_i_glide_esite>  (340) 
-0.00256744

>  <r_i_glide_emodel>  (340) 
-41.1119

>  <r_i_glide_energy>  (340) 
-27.6165

>  <r_i_glide_einternal>  (340) 
0.71438

>  <r_i_glide_intrahb_reward>  (340) 
-0.5

>  <i_i_glide_confnum>  (340) 
2

>  <i_i_glide_posenum>  (340) 
37

>  <r_i_glide_eff_state_penalty>  (340) 
0

>  <ligand_id>  (340) 
79

>  <original_smiles>  (340) 
NC1CC2C3CC1CC(O)N2C1CC2C14c1ccccc1CC1(O)C4OCCC321

>  <smiles>  (340) 
[H]OC1([H])N2C3([H])C([H])([H])C([H])([N+]([H])([H])[H])C([H])(C1([H])[H])C([H])([H])C3([H])C13C([H])([H])C([H])([H])OC4([H])C1(O[H])C([H])([H])c1c([H])c([H])c([H])c([H])c1C41C2([H])C([H])([H])C13[H]

$$$$
79:1:0
     RDKit          3D

 60 67  0  0  1  0  0  0  0  0999 V2000
   -0.9725   -8.6744    4.5511 N   0  0  0  0  0  0  0  0  0  0  0  0
    0.4816   -8.4512    4.7263 C   0  0  2  0  0  0  0  0  0  0  0  0
    0.8595   -6.9652    4.7704 C   0  0  0  0  0  0  0  0  0  0  0  0
    2.0841   -6.5847    3.8771 C   0  0  1  0  0  0  0  0  0  0  0  0
    3.2630   -7.5193    4.2248 C   0  0  1  0  0  0  0  0  0  0  0  0
    2.8332   -8.9756    3.8748 C   0  0  0  0  0  0  0  0  0  0  0  0
    1.2996   -9.1634    3.6431 C   0  0  2  0  0  0  0  0  0  0  0  0
    0.8410   -8.7534    2.2279 C   0  0  0  0  0  0  0  0  0  0  0  0
    0.7998   -7.2545    1.8103 C   0  0  1  0  0  0  0  0  0  0  0  0
   -0.3328   -6.6877    2.2108 O   0  0  0  0  0  0  0  0  0  0  0  0
    1.8546   -6.3784    2.4081 N   0  0  2  0  0  0  0  0  0  0  0  0
    3.0479   -6.0950    1.4693 C   0  0  2  0  0  0  0  0  0  0  0  0
    3.7226   -7.3363    1.0800 C   0  0  0  0  0  0  0  0  0  0  0  0
    4.6161   -6.8392    2.1514 C   0  0  1  0  0  0  0  0  0  0  0  0
    4.4690   -5.3338    1.8444 C   0  0  1  0  0  0  0  0  0  0  0  0
    3.7553   -4.0398    2.2792 C   0  0  0  0  0  0  0  0  0  0  0  0
    3.2811   -3.1407    1.2926 C   0  0  0  0  0  0  0  0  0  0  0  0
    2.6113   -1.9616    1.6598 C   0  0  0  0  0  0  0  0  0  0  0  0
    2.4048   -1.6478    3.0191 C   0  0  0  0  0  0  0  0  0  0  0  0
    2.9126   -2.5096    4.0097 C   0  0  0  0  0  0  0  0  0  0  0  0
    3.5950   -3.6821    3.6427 C   0  0  0  0  0  0  0  0  0  0  0  0
    4.2127   -4.5396    4.7370 C   0  0  0  0  0  0  0  0  0  0  0  0
    5.1380   -5.6753    4.2360 C   0  0  2  0  0  0  0  0  0  0  0  0
    6.0476   -5.7299    5.3277 O   0  0  0  0  0  0  0  0  0  0  0  0
    5.7144   -5.2306    2.8984 C   0  0  1  0  0  0  0  0  0  0  0  0
    6.9401   -6.0177    2.6520 O   0  0  0  0  0  0  0  0  0  0  0  0
    7.1547   -7.3040    3.3295 C   0  0  0  0  0  0  0  0  0  0  0  0
    5.8491   -8.0069    3.8665 C   0  0  0  0  0  0  0  0  0  0  0  0
    4.6437   -7.0599    3.6722 C   0  0  1  0  0  0  0  0  0  0  0  0
   -1.2244   -8.2182    3.6666 H   0  0  0  0  0  0  0  0  0  0  0  0
   -1.4688   -8.2150    5.3086 H   0  0  0  0  0  0  0  0  0  0  0  0
    0.7393   -8.9059    5.6821 H   0  0  0  0  0  0  0  0  0  0  0  0
    0.0053   -6.3067    4.6164 H   0  0  0  0  0  0  0  0  0  0  0  0
    1.1594   -6.7657    5.7854 H   0  0  0  0  0  0  0  0  0  0  0  0
    2.1898   -5.5813    4.1826 H   0  0  0  0  0  0  0  0  0  0  0  0
    3.3595   -7.4759    5.3091 H   0  0  0  0  0  0  0  0  0  0  0  0
    3.3912   -9.3845    3.0316 H   0  0  0  0  0  0  0  0  0  0  0  0
    3.1348   -9.6027    4.7114 H   0  0  0  0  0  0  0  0  0  0  0  0
    1.1097  -10.2322    3.7400 H   0  0  0  0  0  0  0  0  0  0  0  0
    1.4771   -9.2877    1.5389 H   0  0  0  0  0  0  0  0  0  0  0  0
   -0.1336   -9.1937    2.0477 H   0  0  0  0  0  0  0  0  0  0  0  0
    0.9847   -7.3025    0.7459 H   0  0  0  0  0  0  0  0  0  0  0  0
    2.6256   -5.6678    0.5672 H   0  0  0  0  0  0  0  0  0  0  0  0
    3.2759   -8.3097    1.2341 H   0  0  0  0  0  0  0  0  0  0  0  0
    4.1700   -7.2510    0.0858 H   0  0  0  0  0  0  0  0  0  0  0  0
    5.4693   -7.2671    1.6266 H   0  0  0  0  0  0  0  0  0  0  0  0
    3.4413   -3.3527    0.2414 H   0  0  0  0  0  0  0  0  0  0  0  0
    2.2421   -1.2835    0.8998 H   0  0  0  0  0  0  0  0  0  0  0  0
    1.8797   -0.7488    3.2980 H   0  0  0  0  0  0  0  0  0  0  0  0
    2.7896   -2.2487    5.0563 H   0  0  0  0  0  0  0  0  0  0  0  0
    4.8321   -3.8110    5.2658 H   0  0  0  0  0  0  0  0  0  0  0  0
    3.5141   -4.8617    5.5126 H   0  0  0  0  0  0  0  0  0  0  0  0
    6.7458   -6.3253    5.1085 H   0  0  0  0  0  0  0  0  0  0  0  0
    6.0961   -4.2029    2.9379 H   0  0  0  0  0  0  0  0  0  0  0  0
    7.6952   -7.9670    2.6547 H   0  0  0  0  0  0  0  0  0  0  0  0
    7.8455   -7.1481    4.1589 H   0  0  0  0  0  0  0  0  0  0  0  0
    5.6996   -8.9372    3.3185 H   0  0  0  0  0  0  0  0  0  0  0  0
    5.9595   -8.2922    4.9143 H   0  0  0  0  0  0  0  0  0  0  0  0
   -1.2294   -9.6420    4.5631 H   0  0  0  0  0  0  0  0  0  0  0  0
    1.3558   -5.5019    2.3885 H   0  0  0  0  0  0  0  0  0  0  0  0
  1  2  1  0
  1 30  1  0
  1 31  1  0
  1 59  1  0
  2  7  1  0
  2  3  1  0
  2 32  1  1
  3  4  1  0
  3 33  1  0
  3 34  1  0
  4 11  1  0
  4  5  1  0
  4 35  1  1
  5 29  1  0
  5  6  1  0
  5 36  1  1
  6  7  1  0
  6 37  1  0
  6 38  1  0
  7  8  1  0
  7 39  1  6
  8  9  1  0
  8 40  1  0
  8 41  1  0
  9 10  1  0
  9 11  1  0
  9 42  1  6
 11 12  1  0
 11 60  1  1
 12 15  1  0
 12 13  1  0
 12 43  1  6
 13 14  1  0
 13 44  1  0
 13 45  1  0
 14 29  1  0
 14 15  1  0
 14 46  1  6
 15 25  1  0
 15 16  1  6
 16 21  2  0
 16 17  1  0
 17 18  2  0
 17 47  1  0
 18 19  1  0
 18 48  1  0
 19 20  2  0
 19 49  1  0
 20 21  1  0
 20 50  1  0
 21 22  1  0
 22 23  1  0
 22 51  1  0
 22 52  1  0
 23 29  1  0
 23 24  1  1
 23 25  1  0
 24 53  1  0
 25 26  1  0
 25 54  1  1
 26 27  1  0
 27 28  1  0
 27 55  1  0
 27 56  1  0
 29 28  1  6
 28 57  1  0
 28 58  1  0
M  CHG  3   1   1  10  -1  11   1
M  END
>  <i_m_ct_stereo_status>  (341) 
1

>  <s_m_source_file>  (341) 
/var/tmp/pbs.5076255.sched01/tmp8hdfbsd6/1003312lgh9.sdf

>  <i_m_source_file_index>  (341) 
33

>  <i_lp_mmshare_version>  (341) 
48012

>  <i_f3d_flags>  (341) 
2

>  <s_epik_input>  (341) 
W09IXVtDQEBIXTFbQ0gyXVtDQEhdKFtDQEhdKFtOSDJdKVtDSDJdMilbQ0gyXVtDQEhdKFtDQEhdMk4xW0NAQEhdM0M0NTYpW0NAXTcoW0NASF00W0NIMl0zKVtDQF0oW09IXSkoW0NAQEhdNk9bQ0gyXVtDSDJdNylbQ0gyXWM4YzVbY0hdW2NIXVtjSF1bY0hdOA==

>  <s_epik_cmdline>  (341) 
J2VwaWtfcHl0aG9uJywgJy1waHQnLCAnMi4wJywgJy1waCcsICc3LjAnLCAnLXRuJywgJzgnLCAnLW1hJywgJzIwMCcsICctaW1hZScsICc8aW5maWxlLm1hZT4nLCAnLW9tYWUnLCAnPG91dGZpbGUubWFlPic=

>  <r_epik_Ionization_Penalty>  (341) 
0.151524

>  <r_epik_Ionization_Penalty_Charging>  (341) 
0.151524

>  <r_epik_Ionization_Penalty_Neutral>  (341) 
1.63586e-07

>  <r_epik_State_Penalty>  (341) 
0.508542

>  <r_epik_Charging_Adjusted_Penalty>  (341) 
0.660066

>  <i_epik_Tot_Q>  (341) 
1

>  <i_epik_Tot_abs_Q>  (341) 
3

>  <s_epik_Chemistry_Notes>  (341) 
This compound contains an acetal/aminal-like group ( X-CH(R)-Y where X, Y are N, S, or O) that may be acid/base labile, releasing an aldehyde.

>  <s_lp_Force_Field>  (341) 
OPLS3e

>  <r_lp_Energy>  (341) 
253.931

>  <b_lp_Chiralities_Consistent>  (341) 
0

>  <s_lp_Variant>  (341) 
79:0-2

>  <s_i_glide_gridfile>  (341) 
pfpi4k_grid

>  <i_i_glide_lignum>  (341) 
33

>  <i_i_glide_rotatable_bonds>  (341) 
1

>  <r_i_docking_score>  (341) 
-4.47718

>  <r_i_glide_ligand_efficiency>  (341) 
-0.154385

>  <r_i_glide_ligand_efficiency_sa>  (341) 
-0.474321

>  <r_i_glide_ligand_efficiency_ln>  (341) 
-1.02516

>  <r_i_glide_gscore>  (341) 
-4.47718

>  <r_i_glide_lipo>  (341) 
-0.172146

>  <r_i_glide_hbond>  (341) 
-0.4

>  <r_i_glide_metal>  (341) 
-0

>  <r_i_glide_rewards>  (341) 
-1.5124

>  <r_i_glide_evdw>  (341) 
-19.1593

>  <r_i_glide_ecoul>  (341) 
-8.3732

>  <r_i_glide_erotb>  (341) 
0

>  <r_i_glide_esite>  (341) 
-0.178684

>  <r_i_glide_emodel>  (341) 
-45.5769

>  <r_i_glide_energy>  (341) 
-27.5325

>  <r_i_glide_einternal>  (341) 
0.0242385

>  <r_i_glide_intrahb_reward>  (341) 
-0.5

>  <i_i_glide_confnum>  (341) 
1

>  <i_i_glide_posenum>  (341) 
1

>  <r_i_glide_eff_state_penalty>  (341) 
0

>  <ligand_id>  (341) 
79

>  <original_smiles>  (341) 
NC1CC2C3CC1CC(O)N2C1CC2C14c1ccccc1CC1(O)C4OCCC321

>  <smiles>  (341) 
[H]OC12C([H])([H])c3c([H])c([H])c([H])c([H])c3C34C1([H])OC([H])([H])C([H])([H])C21C3([H])C([H])([H])C4([H])[N+]2([H])C([H])([O-])C([H])([H])C3([H])C([H])([H])C1([H])C2([H])C([H])([H])C3([H])[N+]([H])([H])[H]

$$$$
79:1:1
     RDKit          3D

 60 67  0  0  1  0  0  0  0  0999 V2000
   -1.3840   -8.9949    1.8058 N   0  0  0  0  0  0  0  0  0  0  0  0
   -0.8128   -8.9729    3.1521 C   0  0  2  0  0  0  0  0  0  0  0  0
   -1.1137   -7.6448    3.8588 C   0  0  0  0  0  0  0  0  0  0  0  0
    0.1224   -7.0160    4.5821 C   0  0  1  0  0  0  0  0  0  0  0  0
    0.7254   -8.0858    5.5168 C   0  0  1  0  0  0  0  0  0  0  0  0
    1.2351   -9.2691    4.6383 C   0  0  0  0  0  0  0  0  0  0  0  0
    0.6951   -9.2624    3.1755 C   0  0  2  0  0  0  0  0  0  0  0  0
    1.4794   -8.3135    2.2287 C   0  0  0  0  0  0  0  0  0  0  0  0
    1.3280   -6.7761    2.3767 C   0  0  1  0  0  0  0  0  0  0  0  0
    0.2167   -6.3702    1.7087 O   0  0  0  0  0  0  0  0  0  0  0  0
    1.1055   -6.2508    3.7521 N   0  0  2  0  0  0  0  0  0  0  0  0
    2.3874   -5.7013    4.4191 C   0  0  2  0  0  0  0  0  0  0  0  0
    3.4335   -6.7310    4.5163 C   0  0  0  0  0  0  0  0  0  0  0  0
    2.8787   -6.7359    5.8978 C   0  0  1  0  0  0  0  0  0  0  0  0
    2.5914   -5.2223    6.0059 C   0  0  1  0  0  0  0  0  0  0  0  0
    1.4893   -4.1550    5.9020 C   0  0  0  0  0  0  0  0  0  0  0  0
    1.7529   -2.9263    5.2681 C   0  0  0  0  0  0  0  0  0  0  0  0
    0.7628   -1.9401    5.1417 C   0  0  0  0  0  0  0  0  0  0  0  0
   -0.5338   -2.1646    5.6758 C   0  0  0  0  0  0  0  0  0  0  0  0
   -0.7940   -3.3570    6.3585 C   0  0  0  0  0  0  0  0  0  0  0  0
    0.1929   -4.3421    6.4860 C   0  0  0  0  0  0  0  0  0  0  0  0
   -0.1002   -5.5876    7.2942 C   0  0  0  0  0  0  0  0  0  0  0  0
    1.1158   -6.5029    7.5800 C   0  0  2  0  0  0  0  0  0  0  0  0
    0.7125   -7.0328    8.8361 O   0  0  0  0  0  0  0  0  0  0  0  0
    2.3530   -5.6080    7.5720 C   0  0  1  0  0  0  0  0  0  0  0  0
    3.4167   -6.3086    8.3190 O   0  0  0  0  0  0  0  0  0  0  0  0
    3.3743   -7.7649    8.4967 C   0  0  0  0  0  0  0  0  0  0  0  0
    2.4880   -8.5461    7.4520 C   0  0  0  0  0  0  0  0  0  0  0  0
    1.7413   -7.5274    6.5575 C   0  0  1  0  0  0  0  0  0  0  0  0
   -0.9374   -8.2366    1.2915 H   0  0  0  0  0  0  0  0  0  0  0  0
   -2.3820   -8.8849    1.8239 H   0  0  0  0  0  0  0  0  0  0  0  0
   -1.3016   -9.7755    3.6748 H   0  0  0  0  0  0  0  0  0  0  0  0
   -1.6354   -6.9399    3.2145 H   0  0  0  0  0  0  0  0  0  0  0  0
   -1.8339   -7.8831    4.6299 H   0  0  0  0  0  0  0  0  0  0  0  0
   -0.3801   -6.2164    5.0586 H   0  0  0  0  0  0  0  0  0  0  0  0
   -0.1051   -8.4748    6.1052 H   0  0  0  0  0  0  0  0  0  0  0  0
    2.3199   -9.3519    4.6355 H   0  0  0  0  0  0  0  0  0  0  0  0
    0.9042  -10.1865    5.1253 H   0  0  0  0  0  0  0  0  0  0  0  0
    0.8361  -10.2726    2.7913 H   0  0  0  0  0  0  0  0  0  0  0  0
    2.5302   -8.5771    2.3349 H   0  0  0  0  0  0  0  0  0  0  0  0
    1.2845   -8.5858    1.2011 H   0  0  0  0  0  0  0  0  0  0  0  0
    2.2662   -6.4041    2.0277 H   0  0  0  0  0  0  0  0  0  0  0  0
    2.7639   -4.9304    3.7564 H   0  0  0  0  0  0  0  0  0  0  0  0
    3.3735   -7.6643    3.9682 H   0  0  0  0  0  0  0  0  0  0  0  0
    4.4310   -6.2951    4.4595 H   0  0  0  0  0  0  0  0  0  0  0  0
    3.8691   -6.9786    6.2841 H   0  0  0  0  0  0  0  0  0  0  0  0
    2.7469   -2.7283    4.8730 H   0  0  0  0  0  0  0  0  0  0  0  0
    0.9748   -1.0101    4.6464 H   0  0  0  0  0  0  0  0  0  0  0  0
   -1.2980   -1.4194    5.5516 H   0  0  0  0  0  0  0  0  0  0  0  0
   -1.7811   -3.5315    6.7833 H   0  0  0  0  0  0  0  0  0  0  0  0
   -0.4323   -5.1598    8.2456 H   0  0  0  0  0  0  0  0  0  0  0  0
   -0.9835   -6.1363    6.9649 H   0  0  0  0  0  0  0  0  0  0  0  0
    1.4325   -7.5266    9.1940 H   0  0  0  0  0  0  0  0  0  0  0  0
    2.2002   -4.7044    8.1713 H   0  0  0  0  0  0  0  0  0  0  0  0
    4.3958   -8.1451    8.4887 H   0  0  0  0  0  0  0  0  0  0  0  0
    3.0164   -7.9822    9.5046 H   0  0  0  0  0  0  0  0  0  0  0  0
    3.1375   -9.1837    6.8486 H   0  0  0  0  0  0  0  0  0  0  0  0
    1.7928   -9.2224    7.9545 H   0  0  0  0  0  0  0  0  0  0  0  0
   -1.1270   -9.8614    1.3465 H   0  0  0  0  0  0  0  0  0  0  0  0
    0.6249   -5.4044    3.5239 H   0  0  0  0  0  0  0  0  0  0  0  0
  1  2  1  0
  1 30  1  0
  1 31  1  0
  1 59  1  0
  2  7  1  0
  2  3  1  0
  2 32  1  1
  3  4  1  0
  3 33  1  0
  3 34  1  0
  4 11  1  0
  4  5  1  0
  4 35  1  1
  5 29  1  0
  5  6  1  0
  5 36  1  1
  6  7  1  0
  6 37  1  0
  6 38  1  0
  7  8  1  0
  7 39  1  6
  8  9  1  0
  8 40  1  0
  8 41  1  0
  9 10  1  0
  9 11  1  0
  9 42  1  6
 11 12  1  0
 11 60  1  6
 12 15  1  0
 12 13  1  0
 12 43  1  6
 13 14  1  0
 13 44  1  0
 13 45  1  0
 14 29  1  0
 14 15  1  0
 14 46  1  1
 15 25  1  0
 15 16  1  6
 16 21  2  0
 16 17  1  0
 17 18  2  0
 17 47  1  0
 18 19  1  0
 18 48  1  0
 19 20  2  0
 19 49  1  0
 20 21  1  0
 20 50  1  0
 21 22  1  0
 22 23  1  0
 22 51  1  0
 22 52  1  0
 23 29  1  0
 23 24  1  1
 23 25  1  0
 24 53  1  0
 25 26  1  0
 25 54  1  1
 26 27  1  0
 27 28  1  0
 27 55  1  0
 27 56  1  0
 29 28  1  1
 28 57  1  0
 28 58  1  0
M  CHG  3   1   1  10  -1  11   1
M  END
>  <i_m_ct_stereo_status>  (342) 
1

>  <s_m_source_file>  (342) 
/var/tmp/pbs.5076255.sched01/tmp8hdfbsd6/1003312lgh9.sdf

>  <i_m_source_file_index>  (342) 
33

>  <i_lp_mmshare_version>  (342) 
48012

>  <i_f3d_flags>  (342) 
2

>  <s_epik_input>  (342) 
W09IXVtDQEBIXTFbQ0gyXVtDQEhdKFtDQEhdKFtOSDJdKVtDSDJdMilbQ0gyXVtDQEhdKFtDQEhdMk4xW0NAQEhdM0M0NTYpW0NAXTcoW0NASF00W0NIMl0zKVtDQF0oW09IXSkoW0NAQEhdNk9bQ0gyXVtDSDJdNylbQ0gyXWM4YzVbY0hdW2NIXVtjSF1bY0hdOA==

>  <s_epik_cmdline>  (342) 
J2VwaWtfcHl0aG9uJywgJy1waHQnLCAnMi4wJywgJy1waCcsICc3LjAnLCAnLXRuJywgJzgnLCAnLW1hJywgJzIwMCcsICctaW1hZScsICc8aW5maWxlLm1hZT4nLCAnLW9tYWUnLCAnPG91dGZpbGUubWFlPic=

>  <r_epik_Ionization_Penalty>  (342) 
0.151524

>  <r_epik_Ionization_Penalty_Charging>  (342) 
0.151524

>  <r_epik_Ionization_Penalty_Neutral>  (342) 
1.63586e-07

>  <r_epik_State_Penalty>  (342) 
0.508542

>  <r_epik_Charging_Adjusted_Penalty>  (342) 
0.660066

>  <i_epik_Tot_Q>  (342) 
1

>  <i_epik_Tot_abs_Q>  (342) 
3

>  <s_epik_Chemistry_Notes>  (342) 
This compound contains an acetal/aminal-like group ( X-CH(R)-Y where X, Y are N, S, or O) that may be acid/base labile, releasing an aldehyde.

>  <s_lp_Force_Field>  (342) 
OPLS3e

>  <r_lp_Energy>  (342) 
253.931

>  <b_lp_Chiralities_Consistent>  (342) 
0

>  <s_lp_Variant>  (342) 
79:0-2

>  <s_i_glide_gridfile>  (342) 
pfpi4k_grid

>  <i_i_glide_lignum>  (342) 
33

>  <i_i_glide_rotatable_bonds>  (342) 
1

>  <r_i_docking_score>  (342) 
-4.31765

>  <r_i_glide_ligand_efficiency>  (342) 
-0.148885

>  <r_i_glide_ligand_efficiency_sa>  (342) 
-0.457421

>  <r_i_glide_ligand_efficiency_ln>  (342) 
-0.988633

>  <r_i_glide_gscore>  (342) 
-4.31765

>  <r_i_glide_lipo>  (342) 
-0.0152106

>  <r_i_glide_hbond>  (342) 
-0.3158

>  <r_i_glide_metal>  (342) 
-0

>  <r_i_glide_rewards>  (342) 
-1.5124

>  <r_i_glide_evdw>  (342) 
-20.1319

>  <r_i_glide_ecoul>  (342) 
-9.44137

>  <r_i_glide_erotb>  (342) 
0

>  <r_i_glide_esite>  (342) 
-0.0514402

>  <r_i_glide_emodel>  (342) 
-47.2596

>  <r_i_glide_energy>  (342) 
-29.5733

>  <r_i_glide_einternal>  (342) 
0.0234197

>  <r_i_glide_intrahb_reward>  (342) 
-0.5

>  <i_i_glide_confnum>  (342) 
2

>  <i_i_glide_posenum>  (342) 
39

>  <r_i_glide_eff_state_penalty>  (342) 
0

>  <ligand_id>  (342) 
79

>  <original_smiles>  (342) 
NC1CC2C3CC1CC(O)N2C1CC2C14c1ccccc1CC1(O)C4OCCC321

>  <smiles>  (342) 
[H]OC12C([H])([H])c3c([H])c([H])c([H])c([H])c3C34C1([H])OC([H])([H])C([H])([H])C21C3([H])C([H])([H])C4([H])[N+]2([H])C([H])([O-])C([H])([H])C3([H])C([H])([H])C1([H])C2([H])C([H])([H])C3([H])[N+]([H])([H])[H]

$$$$
79:1:2
     RDKit          3D

 60 67  0  0  1  0  0  0  0  0999 V2000
   -1.0872   -9.2995    2.0900 N   0  0  0  0  0  0  0  0  0  0  0  0
   -0.3211   -9.1532    3.3384 C   0  0  2  0  0  0  0  0  0  0  0  0
   -0.7675   -7.9253    4.1412 C   0  0  0  0  0  0  0  0  0  0  0  0
    0.4075   -7.0544    4.6853 C   0  0  1  0  0  0  0  0  0  0  0  0
    1.3780   -7.9667    5.4658 C   0  0  1  0  0  0  0  0  0  0  0  0
    1.9646   -9.0022    4.4601 C   0  0  0  0  0  0  0  0  0  0  0  0
    1.1913   -9.1064    3.1047 C   0  0  2  0  0  0  0  0  0  0  0  0
    1.5896   -8.0094    2.0891 C   0  0  0  0  0  0  0  0  0  0  0  0
    1.1509   -6.5445    2.3287 C   0  0  1  0  0  0  0  0  0  0  0  0
   -0.0872   -6.3890    1.8637 O   0  0  0  0  0  0  0  0  0  0  0  0
    1.0526   -6.0850    3.7457 N   0  0  2  0  0  0  0  0  0  0  0  0
    2.2716   -5.2696    4.2132 C   0  0  2  0  0  0  0  0  0  0  0  0
    3.5076   -6.0445    4.0818 C   0  0  0  0  0  0  0  0  0  0  0  0
    3.2200   -6.1829    5.5332 C   0  0  1  0  0  0  0  0  0  0  0  0
    2.6352   -4.7740    5.7527 C   0  0  1  0  0  0  0  0  0  0  0  0
    1.3317   -3.9686    5.8770 C   0  0  0  0  0  0  0  0  0  0  0  0
    1.2192   -2.7065    5.2624 C   0  0  0  0  0  0  0  0  0  0  0  0
    0.0309   -1.9597    5.3466 C   0  0  0  0  0  0  0  0  0  0  0  0
   -1.0730   -2.4627    6.0753 C   0  0  0  0  0  0  0  0  0  0  0  0
   -0.9611   -3.6986    6.7376 C   0  0  0  0  0  0  0  0  0  0  0  0
    0.2250   -4.4352    6.6587 C   0  0  0  0  0  0  0  0  0  0  0  0
    0.3498   -5.7223    7.4531 C   0  0  0  0  0  0  0  0  0  0  0  0
    1.7654   -6.3425    7.4953 C   0  0  2  0  0  0  0  0  0  0  0  0
    1.7105   -6.9431    8.7814 O   0  0  0  0  0  0  0  0  0  0  0  0
    2.7561   -5.2001    7.3255 C   0  0  1  0  0  0  0  0  0  0  0  0
    4.0606   -5.6530    7.8453 O   0  0  0  0  0  0  0  0  0  0  0  0
    4.3634   -7.0846    7.9724 C   0  0  0  0  0  0  0  0  0  0  0  0
    3.5000   -8.0344    7.0599 C   0  0  0  0  0  0  0  0  0  0  0  0
    2.4091   -7.2058    6.3463 C   0  0  1  0  0  0  0  0  0  0  0  0
   -0.9239   -8.4561    1.5509 H   0  0  0  0  0  0  0  0  0  0  0  0
   -2.0659   -9.4150    2.3005 H   0  0  0  0  0  0  0  0  0  0  0  0
   -0.5261  -10.0423    3.9288 H   0  0  0  0  0  0  0  0  0  0  0  0
   -1.5300   -7.3424    3.6268 H   0  0  0  0  0  0  0  0  0  0  0  0
   -1.2846   -8.3227    5.0039 H   0  0  0  0  0  0  0  0  0  0  0  0
   -0.1662   -6.3895    5.2706 H   0  0  0  0  0  0  0  0  0  0  0  0
    0.7575   -8.5292    6.1675 H   0  0  0  0  0  0  0  0  0  0  0  0
    3.0288   -8.8482    4.2812 H   0  0  0  0  0  0  0  0  0  0  0  0
    1.9290   -9.9685    4.9581 H   0  0  0  0  0  0  0  0  0  0  0  0
    1.4849  -10.0633    2.6698 H   0  0  0  0  0  0  0  0  0  0  0  0
    2.6656   -8.0442    2.0075 H   0  0  0  0  0  0  0  0  0  0  0  0
    1.2774   -8.3157    1.0952 H   0  0  0  0  0  0  0  0  0  0  0  0
    1.9337   -5.9797    1.8563 H   0  0  0  0  0  0  0  0  0  0  0  0
    2.3563   -4.4335    3.5273 H   0  0  0  0  0  0  0  0  0  0  0  0
    3.5606   -6.9659    3.5178 H   0  0  0  0  0  0  0  0  0  0  0  0
    4.3687   -5.3969    3.8845 H   0  0  0  0  0  0  0  0  0  0  0  0
    4.2882   -6.1956    5.7394 H   0  0  0  0  0  0  0  0  0  0  0  0
    2.0643   -2.2918    4.7147 H   0  0  0  0  0  0  0  0  0  0  0  0
   -0.0491   -0.9984    4.8566 H   0  0  0  0  0  0  0  0  0  0  0  0
   -1.9955   -1.9083    6.0813 H   0  0  0  0  0  0  0  0  0  0  0  0
   -1.8070   -4.0830    7.3096 H   0  0  0  0  0  0  0  0  0  0  0  0
    0.1014   -5.3780    8.4602 H   0  0  0  0  0  0  0  0  0  0  0  0
   -0.4364   -6.4559    7.2584 H   0  0  0  0  0  0  0  0  0  0  0  0
    2.5699   -7.2670    8.9986 H   0  0  0  0  0  0  0  0  0  0  0  0
    2.5157   -4.3484    7.9771 H   0  0  0  0  0  0  0  0  0  0  0  0
    5.4261   -7.2319    7.7810 H   0  0  0  0  0  0  0  0  0  0  0  0
    4.2373   -7.3769    9.0150 H   0  0  0  0  0  0  0  0  0  0  0  0
    4.1570   -8.5105    6.3319 H   0  0  0  0  0  0  0  0  0  0  0  0
    3.0602   -8.8458    7.6435 H   0  0  0  0  0  0  0  0  0  0  0  0
   -0.7509  -10.0937    1.5584 H   0  0  0  0  0  0  0  0  0  0  0  0
    0.3606   -5.3634    3.6380 H   0  0  0  0  0  0  0  0  0  0  0  0
  1  2  1  0
  1 30  1  0
  1 31  1  0
  1 59  1  0
  2  7  1  0
  2  3  1  0
  2 32  1  1
  3  4  1  0
  3 33  1  0
  3 34  1  0
  4 11  1  0
  4  5  1  0
  4 35  1  1
  5 29  1  0
  5  6  1  0
  5 36  1  1
  6  7  1  0
  6 37  1  0
  6 38  1  0
  7  8  1  0
  7 39  1  6
  8  9  1  0
  8 40  1  0
  8 41  1  0
  9 10  1  0
  9 11  1  0
  9 42  1  6
 11 12  1  0
 11 60  1  6
 12 15  1  0
 12 13  1  0
 12 43  1  6
 13 14  1  0
 13 44  1  0
 13 45  1  0
 14 29  1  0
 14 15  1  0
 14 46  1  1
 15 25  1  0
 15 16  1  1
 16 21  2  0
 16 17  1  0
 17 18  2  0
 17 47  1  0
 18 19  1  0
 18 48  1  0
 19 20  2  0
 19 49  1  0
 20 21  1  0
 20 50  1  0
 21 22  1  0
 22 23  1  0
 22 51  1  0
 22 52  1  0
 23 29  1  0
 23 24  1  1
 23 25  1  0
 24 53  1  0
 25 26  1  0
 25 54  1  1
 26 27  1  0
 27 28  1  0
 27 55  1  0
 27 56  1  0
 29 28  1  1
 28 57  1  0
 28 58  1  0
M  CHG  3   1   1  10  -1  11   1
M  END
>  <i_m_ct_stereo_status>  (343) 
1

>  <s_m_source_file>  (343) 
/var/tmp/pbs.5076255.sched01/tmp8hdfbsd6/1003312lgh9.sdf

>  <i_m_source_file_index>  (343) 
33

>  <i_lp_mmshare_version>  (343) 
48012

>  <i_f3d_flags>  (343) 
2

>  <s_epik_input>  (343) 
W09IXVtDQEBIXTFbQ0gyXVtDQEhdKFtDQEhdKFtOSDJdKVtDSDJdMilbQ0gyXVtDQEhdKFtDQEhdMk4xW0NAQEhdM0M0NTYpW0NAXTcoW0NASF00W0NIMl0zKVtDQF0oW09IXSkoW0NAQEhdNk9bQ0gyXVtDSDJdNylbQ0gyXWM4YzVbY0hdW2NIXVtjSF1bY0hdOA==

>  <s_epik_cmdline>  (343) 
J2VwaWtfcHl0aG9uJywgJy1waHQnLCAnMi4wJywgJy1waCcsICc3LjAnLCAnLXRuJywgJzgnLCAnLW1hJywgJzIwMCcsICctaW1hZScsICc8aW5maWxlLm1hZT4nLCAnLW9tYWUnLCAnPG91dGZpbGUubWFlPic=

>  <r_epik_Ionization_Penalty>  (343) 
0.151524

>  <r_epik_Ionization_Penalty_Charging>  (343) 
0.151524

>  <r_epik_Ionization_Penalty_Neutral>  (343) 
1.63586e-07

>  <r_epik_State_Penalty>  (343) 
0.508542

>  <r_epik_Charging_Adjusted_Penalty>  (343) 
0.660066

>  <i_epik_Tot_Q>  (343) 
1

>  <i_epik_Tot_abs_Q>  (343) 
3

>  <s_epik_Chemistry_Notes>  (343) 
This compound contains an acetal/aminal-like group ( X-CH(R)-Y where X, Y are N, S, or O) that may be acid/base labile, releasing an aldehyde.

>  <s_lp_Force_Field>  (343) 
OPLS3e

>  <r_lp_Energy>  (343) 
253.931

>  <b_lp_Chiralities_Consistent>  (343) 
0

>  <s_lp_Variant>  (343) 
79:0-2

>  <s_i_glide_gridfile>  (343) 
pfpi4k_grid

>  <i_i_glide_lignum>  (343) 
33

>  <i_i_glide_rotatable_bonds>  (343) 
1

>  <r_i_docking_score>  (343) 
-4.29833

>  <r_i_glide_ligand_efficiency>  (343) 
-0.148218

>  <r_i_glide_ligand_efficiency_sa>  (343) 
-0.455373

>  <r_i_glide_ligand_efficiency_ln>  (343) 
-0.984208

>  <r_i_glide_gscore>  (343) 
-4.29833

>  <r_i_glide_lipo>  (343) 
-0.000935503

>  <r_i_glide_hbond>  (343) 
-0.351982

>  <r_i_glide_metal>  (343) 
-0

>  <r_i_glide_rewards>  (343) 
-1.5124

>  <r_i_glide_evdw>  (343) 
-18.8246

>  <r_i_glide_ecoul>  (343) 
-9.51931

>  <r_i_glide_erotb>  (343) 
0

>  <r_i_glide_esite>  (343) 
-0.0638854

>  <r_i_glide_emodel>  (343) 
-46.0353

>  <r_i_glide_energy>  (343) 
-28.3439

>  <r_i_glide_einternal>  (343) 
0.0201115

>  <r_i_glide_intrahb_reward>  (343) 
-0.5

>  <i_i_glide_confnum>  (343) 
2

>  <i_i_glide_posenum>  (343) 
2

>  <r_i_glide_eff_state_penalty>  (343) 
0

>  <ligand_id>  (343) 
79

>  <original_smiles>  (343) 
NC1CC2C3CC1CC(O)N2C1CC2C14c1ccccc1CC1(O)C4OCCC321

>  <smiles>  (343) 
[H]OC12C([H])([H])c3c([H])c([H])c([H])c([H])c3C34C1([H])OC([H])([H])C([H])([H])C21C3([H])C([H])([H])C4([H])[N+]2([H])C([H])([O-])C([H])([H])C3([H])C([H])([H])C1([H])C2([H])C([H])([H])C3([H])[N+]([H])([H])[H]

$$$$
79:2:0
     RDKit          3D

 61 68  0  0  1  0  0  0  0  0999 V2000
    0.6121  -11.2120    4.4216 N   0  0  0  0  0  0  0  0  0  0  0  0
    1.7741  -10.5231    5.0202 C   0  0  2  0  0  0  0  0  0  0  0  0
    1.5373   -9.0054    5.1472 C   0  0  0  0  0  0  0  0  0  0  0  0
    2.7439   -8.1323    4.6852 C   0  0  1  0  0  0  0  0  0  0  0  0
    4.0505   -8.6366    5.3716 C   0  0  1  0  0  0  0  0  0  0  0  0
    4.3036  -10.1059    4.9392 C   0  0  0  0  0  0  0  0  0  0  0  0
    3.0867  -10.7930    4.2528 C   0  0  2  0  0  0  0  0  0  0  0  0
    2.9753  -10.4435    2.7528 C   0  0  0  0  0  0  0  0  0  0  0  0
    2.5060   -9.0211    2.3224 C   0  0  1  0  0  0  0  0  0  0  0  0
    1.0957   -8.9317    2.2605 O   0  0  0  0  0  0  0  0  0  0  0  0
    2.8626   -7.8579    3.2132 N   0  0  2  0  0  0  0  0  0  0  0  0
    4.0684   -7.0743    2.6830 C   0  0  2  0  0  0  0  0  0  0  0  0
    5.2212   -7.9644    2.4763 C   0  0  0  0  0  0  0  0  0  0  0  0
    5.5721   -7.3153    3.7654 C   0  0  1  0  0  0  0  0  0  0  0  0
    5.0013   -5.9206    3.4513 C   0  0  1  0  0  0  0  0  0  0  0  0
    3.7925   -4.9892    3.6881 C   0  0  0  0  0  0  0  0  0  0  0  0
    3.3275   -4.1833    2.6220 C   0  0  0  0  0  0  0  0  0  0  0  0
    2.2237   -3.3274    2.7980 C   0  0  0  0  0  0  0  0  0  0  0  0
    1.5778   -3.2554    4.0434 C   0  0  0  0  0  0  0  0  0  0  0  0
    2.0560   -4.0141    5.1240 C   0  0  0  0  0  0  0  0  0  0  0  0
    3.1681   -4.8632    4.9507 C   0  0  0  0  0  0  0  0  0  0  0  0
    3.7312   -5.5830    6.1667 C   0  0  0  0  0  0  0  0  0  0  0  0
    5.0970   -6.2798    5.9298 C   0  0  2  0  0  0  0  0  0  0  0  0
    5.6511   -6.1468    7.2397 O   0  0  0  0  0  0  0  0  0  0  0  0
    5.8155   -5.5294    4.8128 C   0  0  1  0  0  0  0  0  0  0  0  0
    7.2536   -5.8388    4.8993 O   0  0  0  0  0  0  0  0  0  0  0  0
    7.7135   -7.0387    5.6139 C   0  0  0  0  0  0  0  0  0  0  0  0
    6.6442   -8.1892    5.7504 C   0  0  0  0  0  0  0  0  0  0  0  0
    5.2731   -7.6839    5.2342 C   0  0  1  0  0  0  0  0  0  0  0  0
    0.4727  -10.8476    3.4898 H   0  0  0  0  0  0  0  0  0  0  0  0
   -0.2475  -11.0583    4.9509 H   0  0  0  0  0  0  0  0  0  0  0  0
    1.8976  -10.9362    6.0241 H   0  0  0  0  0  0  0  0  0  0  0  0
    0.5983   -8.6879    4.6872 H   0  0  0  0  0  0  0  0  0  0  0  0
    1.3894   -8.8152    6.2118 H   0  0  0  0  0  0  0  0  0  0  0  0
    2.4070   -7.1879    5.0454 H   0  0  0  0  0  0  0  0  0  0  0  0
    3.8287   -8.6681    6.4408 H   0  0  0  0  0  0  0  0  0  0  0  0
    5.1775  -10.1947    4.2936 H   0  0  0  0  0  0  0  0  0  0  0  0
    4.5700  -10.6716    5.8336 H   0  0  0  0  0  0  0  0  0  0  0  0
    3.2741  -11.8667    4.3069 H   0  0  0  0  0  0  0  0  0  0  0  0
    3.9246  -10.6829    2.2786 H   0  0  0  0  0  0  0  0  0  0  0  0
    2.3037  -11.1657    2.3041 H   0  0  0  0  0  0  0  0  0  0  0  0
    2.8371   -8.8441    1.2979 H   0  0  0  0  0  0  0  0  0  0  0  0
    0.8053   -9.3502    1.4561 H   0  0  0  0  0  0  0  0  0  0  0  0
    3.7728   -6.6934    1.7046 H   0  0  0  0  0  0  0  0  0  0  0  0
    5.1353   -9.0404    2.5089 H   0  0  0  0  0  0  0  0  0  0  0  0
    5.8399   -7.6425    1.6353 H   0  0  0  0  0  0  0  0  0  0  0  0
    6.6288   -7.3950    3.5059 H   0  0  0  0  0  0  0  0  0  0  0  0
    3.8271   -4.2128    1.6650 H   0  0  0  0  0  0  0  0  0  0  0  0
    1.8762   -2.7142    1.9789 H   0  0  0  0  0  0  0  0  0  0  0  0
    0.7276   -2.6022    4.1755 H   0  0  0  0  0  0  0  0  0  0  0  0
    1.5884   -3.9224    6.0927 H   0  0  0  0  0  0  0  0  0  0  0  0
    3.8887   -4.7484    6.8563 H   0  0  0  0  0  0  0  0  0  0  0  0
    3.0155   -6.2045    6.7014 H   0  0  0  0  0  0  0  0  0  0  0  0
    5.6068   -5.2396    7.5040 H   0  0  0  0  0  0  0  0  0  0  0  0
    5.7983   -4.4515    4.9763 H   0  0  0  0  0  0  0  0  0  0  0  0
    8.6095   -7.4153    5.1185 H   0  0  0  0  0  0  0  0  0  0  0  0
    8.0555   -6.7449    6.6083 H   0  0  0  0  0  0  0  0  0  0  0  0
    6.9815   -9.0552    5.1779 H   0  0  0  0  0  0  0  0  0  0  0  0
    6.5742   -8.5279    6.7874 H   0  0  0  0  0  0  0  0  0  0  0  0
    0.8027  -12.2024    4.3759 H   0  0  0  0  0  0  0  0  0  0  0  0
    2.0941   -7.2245    3.0444 H   0  0  0  0  0  0  0  0  0  0  0  0
  1  2  1  0
  1 30  1  0
  1 31  1  0
  1 60  1  0
  2  7  1  0
  2  3  1  0
  2 32  1  1
  3  4  1  0
  3 33  1  0
  3 34  1  0
  4 11  1  0
  4  5  1  0
  4 35  1  1
  5 29  1  0
  5  6  1  0
  5 36  1  1
  6  7  1  0
  6 37  1  0
  6 38  1  0
  7  8  1  0
  7 39  1  6
  8  9  1  0
  8 40  1  0
  8 41  1  0
  9 10  1  0
  9 11  1  0
  9 42  1  6
 10 43  1  0
 11 12  1  0
 11 61  1  6
 12 15  1  0
 12 13  1  0
 12 44  1  6
 13 14  1  0
 13 45  1  0
 13 46  1  0
 14 29  1  0
 14 15  1  0
 14 47  1  1
 15 25  1  0
 15 16  1  6
 16 21  2  0
 16 17  1  0
 17 18  2  0
 17 48  1  0
 18 19  1  0
 18 49  1  0
 19 20  2  0
 19 50  1  0
 20 21  1  0
 20 51  1  0
 21 22  1  0
 22 23  1  0
 22 52  1  0
 22 53  1  0
 23 29  1  0
 23 24  1  1
 23 25  1  0
 24 54  1  0
 25 26  1  0
 25 55  1  1
 26 27  1  0
 27 28  1  0
 27 56  1  0
 27 57  1  0
 29 28  1  1
 28 58  1  0
 28 59  1  0
M  CHG  2   1   1  11   1
M  END
>  <i_m_ct_stereo_status>  (344) 
1

>  <s_m_source_file>  (344) 
/var/tmp/pbs.5076255.sched01/tmp8hdfbsd6/1003312lgh9.sdf

>  <i_m_source_file_index>  (344) 
34

>  <i_lp_mmshare_version>  (344) 
48012

>  <i_f3d_flags>  (344) 
2

>  <s_epik_input>  (344) 
W09IXVtDQEBIXTFbQ0gyXVtDQEhdKFtDQEhdKFtOSDJdKVtDSDJdMilbQ0gyXVtDQEhdKFtDQEhdMk4xW0NAQEhdM0M0NTYpW0NAXTcoW0NASF00W0NIMl0zKVtDQF0oW09IXSkoW0NAQEhdNk9bQ0gyXVtDSDJdNylbQ0gyXWM4YzVbY0hdW2NIXVtjSF1bY0hdOA==

>  <s_epik_cmdline>  (344) 
J2VwaWtfcHl0aG9uJywgJy1waHQnLCAnMi4wJywgJy1waCcsICc3LjAnLCAnLXRuJywgJzgnLCAnLW1hJywgJzIwMCcsICctaW1hZScsICc8aW5maWxlLm1hZT4nLCAnLW9tYWUnLCAnPG91dGZpbGUubWFlPic=

>  <r_epik_Ionization_Penalty>  (344) 
1.83155

>  <r_epik_Ionization_Penalty_Charging>  (344) 
0.940124

>  <r_epik_Ionization_Penalty_Neutral>  (344) 
0.891428

>  <r_epik_State_Penalty>  (344) 
1.30096

>  <r_epik_Charging_Adjusted_Penalty>  (344) 
2.24109

>  <i_epik_Tot_Q>  (344) 
2

>  <i_epik_Tot_abs_Q>  (344) 
2

>  <s_epik_Chemistry_Notes>  (344) 
This compound contains an acetal/aminal-like group ( X-CH(R)-Y where X, Y are N, S, or O) that may be acid/base labile, releasing an aldehyde.

>  <s_lp_Force_Field>  (344) 
OPLS3e

>  <r_lp_Energy>  (344) 
256.507

>  <b_lp_Chiralities_Consistent>  (344) 
0

>  <s_lp_Variant>  (344) 
79:0-3

>  <s_i_glide_gridfile>  (344) 
pfpi4k_grid

>  <i_i_glide_lignum>  (344) 
34

>  <i_i_glide_rotatable_bonds>  (344) 
2

>  <r_i_docking_score>  (344) 
-3.99047

>  <r_i_glide_ligand_efficiency>  (344) 
-0.137602

>  <r_i_glide_ligand_efficiency_sa>  (344) 
-0.422758

>  <r_i_glide_ligand_efficiency_ln>  (344) 
-0.913717

>  <r_i_glide_gscore>  (344) 
-3.99047

>  <r_i_glide_lipo>  (344) 
-0.0245291

>  <r_i_glide_hbond>  (344) 
-0.52

>  <r_i_glide_metal>  (344) 
-0

>  <r_i_glide_rewards>  (344) 
-1.20553

>  <r_i_glide_evdw>  (344) 
-15.7184

>  <r_i_glide_ecoul>  (344) 
-9.47272

>  <r_i_glide_erotb>  (344) 
0

>  <r_i_glide_esite>  (344) 
-0.0335863

>  <r_i_glide_emodel>  (344) 
-41.9386

>  <r_i_glide_energy>  (344) 
-25.1911

>  <r_i_glide_einternal>  (344) 
0.0976575

>  <r_i_glide_intrahb_reward>  (344) 
-0.5

>  <i_i_glide_confnum>  (344) 
2

>  <i_i_glide_posenum>  (344) 
17

>  <r_i_glide_eff_state_penalty>  (344) 
0

>  <ligand_id>  (344) 
79

>  <original_smiles>  (344) 
NC1CC2C3CC1CC(O)N2C1CC2C14c1ccccc1CC1(O)C4OCCC321

>  <smiles>  (344) 
[H]OC12C([H])([H])c3c([H])c([H])c([H])c([H])c3C34C1([H])OC([H])([H])C([H])([H])C21C3([H])C([H])([H])C4([H])[N+]2([H])C([H])(O[H])C([H])([H])C3([H])C([H])([H])C1([H])C2([H])C([H])([H])C3([H])[N+]([H])([H])[H]

$$$$
79:2:1
     RDKit          3D

 61 68  0  0  1  0  0  0  0  0999 V2000
    3.1107   -2.6652   -0.3366 N   0  0  0  0  0  0  0  0  0  0  0  0
    3.8466   -3.9454   -0.0573 C   0  0  2  0  0  0  0  0  0  0  0  0
    2.9088   -5.0811    0.3934 C   0  0  0  0  0  0  0  0  0  0  0  0
    3.4641   -5.9501    1.5606 C   0  0  1  0  0  0  0  0  0  0  0  0
    4.9221   -6.3827    1.2679 C   0  0  1  0  0  0  0  0  0  0  0  0
    5.7983   -5.1008    1.1320 C   0  0  0  0  0  0  0  0  0  0  0  0
    4.9849   -3.7688    0.9613 C   0  0  2  0  0  0  0  0  0  0  0  0
    4.4912   -3.2033    2.3144 C   0  0  0  0  0  0  0  0  0  0  0  0
    3.3343   -3.9283    3.0753 C   0  0  1  0  0  0  0  0  0  0  0  0
    2.0614   -3.5553    2.6254 O   0  0  0  0  0  0  0  0  0  0  0  0
    3.2221   -5.4204    2.9446 N   0  0  2  0  0  0  0  0  0  0  0  0
    3.7660   -6.1571    4.1597 C   0  0  2  0  0  0  0  0  0  0  0  0
    5.1619   -5.7678    4.3949 C   0  0  0  0  0  0  0  0  0  0  0  0
    5.3199   -7.0735    3.7181 C   0  0  1  0  0  0  0  0  0  0  0  0
    4.1042   -7.7719    4.3426 C   0  0  1  0  0  0  0  0  0  0  0  0
    2.6465   -8.1690    4.0785 C   0  0  0  0  0  0  0  0  0  0  0  0
    1.6869   -8.0462    5.1209 C   0  0  0  0  0  0  0  0  0  0  0  0
    0.3478   -8.4107    4.9128 C   0  0  0  0  0  0  0  0  0  0  0  0
   -0.0506   -8.9205    3.6640 C   0  0  0  0  0  0  0  0  0  0  0  0
    0.8856   -9.0947    2.6463 C   0  0  0  0  0  0  0  0  0  0  0  0
    2.2343   -8.7235    2.8534 C   0  0  0  0  0  0  0  0  0  0  0  0
    3.2462   -9.0413    1.7559 C   0  0  0  0  0  0  0  0  0  0  0  0
    4.7290   -8.8555    2.1635 C   0  0  2  0  0  0  0  0  0  0  0  0
    5.3463   -9.8211    1.3040 O   0  0  0  0  0  0  0  0  0  0  0  0
    4.8018   -9.0843    3.6742 C   0  0  1  0  0  0  0  0  0  0  0  0
    6.1939   -9.3830    4.0478 O   0  0  0  0  0  0  0  0  0  0  0  0
    7.2822   -9.0122    3.1296 C   0  0  0  0  0  0  0  0  0  0  0  0
    6.9682   -7.8325    2.1306 C   0  0  0  0  0  0  0  0  0  0  0  0
    5.4692   -7.4683    2.2388 C   0  0  1  0  0  0  0  0  0  0  0  0
    2.6377   -2.3333    0.4804 H   0  0  0  0  0  0  0  0  0  0  0  0
    2.4256   -2.7921   -1.0594 H   0  0  0  0  0  0  0  0  0  0  0  0
    4.2981   -4.2431   -1.0002 H   0  0  0  0  0  0  0  0  0  0  0  0
    1.8776   -4.7667    0.5547 H   0  0  0  0  0  0  0  0  0  0  0  0
    2.8433   -5.7734   -0.4374 H   0  0  0  0  0  0  0  0  0  0  0  0
    2.7632   -6.7490    1.5158 H   0  0  0  0  0  0  0  0  0  0  0  0
    4.9021   -6.8485    0.2748 H   0  0  0  0  0  0  0  0  0  0  0  0
    6.5058   -5.0112    1.9645 H   0  0  0  0  0  0  0  0  0  0  0  0
    6.4284   -5.2393    0.2509 H   0  0  0  0  0  0  0  0  0  0  0  0
    5.6948   -3.0502    0.5492 H   0  0  0  0  0  0  0  0  0  0  0  0
    5.3688   -3.0996    2.9527 H   0  0  0  0  0  0  0  0  0  0  0  0
    4.1988   -2.1678    2.1599 H   0  0  0  0  0  0  0  0  0  0  0  0
    3.3585   -3.6073    4.1159 H   0  0  0  0  0  0  0  0  0  0  0  0
    2.1381   -2.6783    2.2719 H   0  0  0  0  0  0  0  0  0  0  0  0
    3.1796   -5.8229    5.0197 H   0  0  0  0  0  0  0  0  0  0  0  0
    5.6126   -4.9137    3.8989 H   0  0  0  0  0  0  0  0  0  0  0  0
    5.3824   -5.7757    5.4656 H   0  0  0  0  0  0  0  0  0  0  0  0
    6.2284   -7.2226    4.2987 H   0  0  0  0  0  0  0  0  0  0  0  0
    1.9954   -7.7001    6.0838 H   0  0  0  0  0  0  0  0  0  0  0  0
   -0.3791   -8.3523    5.7060 H   0  0  0  0  0  0  0  0  0  0  0  0
   -1.0801   -9.2301    3.4963 H   0  0  0  0  0  0  0  0  0  0  0  0
    0.5887   -9.5714    1.7197 H   0  0  0  0  0  0  0  0  0  0  0  0
    3.0771  -10.1130    1.5878 H   0  0  0  0  0  0  0  0  0  0  0  0
    3.0190   -8.5959    0.7904 H   0  0  0  0  0  0  0  0  0  0  0  0
    4.8055  -10.6046    1.2181 H   0  0  0  0  0  0  0  0  0  0  0  0
    4.2660   -9.9903    3.9591 H   0  0  0  0  0  0  0  0  0  0  0  0
    8.1744   -8.7779    3.7121 H   0  0  0  0  0  0  0  0  0  0  0  0
    7.5343   -9.9066    2.5615 H   0  0  0  0  0  0  0  0  0  0  0  0
    7.6057   -6.9799    2.3776 H   0  0  0  0  0  0  0  0  0  0  0  0
    7.2425   -8.1177    1.1062 H   0  0  0  0  0  0  0  0  0  0  0  0
    3.7532   -1.9622   -0.6475 H   0  0  0  0  0  0  0  0  0  0  0  0
    2.2308   -5.5366    3.0419 H   0  0  0  0  0  0  0  0  0  0  0  0
  1  2  1  0
  1 30  1  0
  1 31  1  0
  1 60  1  0
  2  7  1  0
  2  3  1  0
  2 32  1  6
  3  4  1  0
  3 33  1  0
  3 34  1  0
  4 11  1  0
  4  5  1  0
  4 35  1  1
  5 29  1  0
  5  6  1  0
  5 36  1  6
  6  7  1  0
  6 37  1  0
  6 38  1  0
  7  8  1  0
  7 39  1  6
  8  9  1  0
  8 40  1  0
  8 41  1  0
  9 10  1  0
  9 11  1  0
  9 42  1  1
 10 43  1  0
 11 12  1  0
 11 61  1  1
 12 15  1  0
 12 13  1  0
 12 44  1  1
 13 14  1  0
 13 45  1  0
 13 46  1  0
 14 29  1  0
 14 15  1  0
 14 47  1  1
 15 25  1  0
 15 16  1  1
 16 21  2  0
 16 17  1  0
 17 18  2  0
 17 48  1  0
 18 19  1  0
 18 49  1  0
 19 20  2  0
 19 50  1  0
 20 21  1  0
 20 51  1  0
 21 22  1  0
 22 23  1  0
 22 52  1  0
 22 53  1  0
 23 29  1  0
 23 24  1  6
 23 25  1  0
 24 54  1  0
 25 26  1  0
 25 55  1  6
 26 27  1  0
 27 28  1  0
 27 56  1  0
 27 57  1  0
 29 28  1  6
 28 58  1  0
 28 59  1  0
M  CHG  2   1   1  11   1
M  END
>  <i_m_ct_stereo_status>  (345) 
1

>  <s_m_source_file>  (345) 
/var/tmp/pbs.5076255.sched01/tmp8hdfbsd6/1003312lgh9.sdf

>  <i_m_source_file_index>  (345) 
34

>  <i_lp_mmshare_version>  (345) 
48012

>  <i_f3d_flags>  (345) 
2

>  <s_epik_input>  (345) 
W09IXVtDQEBIXTFbQ0gyXVtDQEhdKFtDQEhdKFtOSDJdKVtDSDJdMilbQ0gyXVtDQEhdKFtDQEhdMk4xW0NAQEhdM0M0NTYpW0NAXTcoW0NASF00W0NIMl0zKVtDQF0oW09IXSkoW0NAQEhdNk9bQ0gyXVtDSDJdNylbQ0gyXWM4YzVbY0hdW2NIXVtjSF1bY0hdOA==

>  <s_epik_cmdline>  (345) 
J2VwaWtfcHl0aG9uJywgJy1waHQnLCAnMi4wJywgJy1waCcsICc3LjAnLCAnLXRuJywgJzgnLCAnLW1hJywgJzIwMCcsICctaW1hZScsICc8aW5maWxlLm1hZT4nLCAnLW9tYWUnLCAnPG91dGZpbGUubWFlPic=

>  <r_epik_Ionization_Penalty>  (345) 
1.83155

>  <r_epik_Ionization_Penalty_Charging>  (345) 
0.940124

>  <r_epik_Ionization_Penalty_Neutral>  (345) 
0.891428

>  <r_epik_State_Penalty>  (345) 
1.30096

>  <r_epik_Charging_Adjusted_Penalty>  (345) 
2.24109

>  <i_epik_Tot_Q>  (345) 
2

>  <i_epik_Tot_abs_Q>  (345) 
2

>  <s_epik_Chemistry_Notes>  (345) 
This compound contains an acetal/aminal-like group ( X-CH(R)-Y where X, Y are N, S, or O) that may be acid/base labile, releasing an aldehyde.

>  <s_lp_Force_Field>  (345) 
OPLS3e

>  <r_lp_Energy>  (345) 
256.507

>  <b_lp_Chiralities_Consistent>  (345) 
0

>  <s_lp_Variant>  (345) 
79:0-3

>  <s_i_glide_gridfile>  (345) 
pfpi4k_grid

>  <i_i_glide_lignum>  (345) 
34

>  <i_i_glide_rotatable_bonds>  (345) 
2

>  <r_i_docking_score>  (345) 
-3.58484

>  <r_i_glide_ligand_efficiency>  (345) 
-0.123615

>  <r_i_glide_ligand_efficiency_sa>  (345) 
-0.379785

>  <r_i_glide_ligand_efficiency_ln>  (345) 
-0.820838

>  <r_i_glide_gscore>  (345) 
-3.58484

>  <r_i_glide_lipo>  (345) 
-0.393236

>  <r_i_glide_hbond>  (345) 
0

>  <r_i_glide_metal>  (345) 
-0

>  <r_i_glide_rewards>  (345) 
-0.705638

>  <r_i_glide_evdw>  (345) 
-21.8805

>  <r_i_glide_ecoul>  (345) 
-8.97042

>  <r_i_glide_erotb>  (345) 
0

>  <r_i_glide_esite>  (345) 
-0.0463843

>  <r_i_glide_emodel>  (345) 
-41.0257

>  <r_i_glide_energy>  (345) 
-30.8509

>  <r_i_glide_einternal>  (345) 
0.558927

>  <r_i_glide_intrahb_reward>  (345) 
-0

>  <i_i_glide_confnum>  (345) 
1

>  <i_i_glide_posenum>  (345) 
18

>  <r_i_glide_eff_state_penalty>  (345) 
0

>  <ligand_id>  (345) 
79

>  <original_smiles>  (345) 
NC1CC2C3CC1CC(O)N2C1CC2C14c1ccccc1CC1(O)C4OCCC321

>  <smiles>  (345) 
[H]OC12C([H])([H])c3c([H])c([H])c([H])c([H])c3C34C1([H])OC([H])([H])C([H])([H])C21C3([H])C([H])([H])C4([H])[N+]2([H])C([H])(O[H])C([H])([H])C3([H])C([H])([H])C1([H])C2([H])C([H])([H])C3([H])[N+]([H])([H])[H]

$$$$
79:2:2
     RDKit          3D

 61 68  0  0  1  0  0  0  0  0999 V2000
    3.4183   -1.4517   -1.1981 N   0  0  0  0  0  0  0  0  0  0  0  0
    4.1709   -2.6498   -0.7463 C   0  0  2  0  0  0  0  0  0  0  0  0
    3.2233   -3.7803   -0.2893 C   0  0  0  0  0  0  0  0  0  0  0  0
    3.6764   -4.4865    1.0346 C   0  0  1  0  0  0  0  0  0  0  0  0
    5.1744   -4.8977    0.9222 C   0  0  1  0  0  0  0  0  0  0  0  0
    6.0334   -3.6163    0.7213 C   0  0  0  0  0  0  0  0  0  0  0  0
    5.2157   -2.3369    0.3494 C   0  0  2  0  0  0  0  0  0  0  0  0
    4.5786   -1.6368    1.5792 C   0  0  0  0  0  0  0  0  0  0  0  0
    3.3621   -2.3208    2.3061 C   0  0  1  0  0  0  0  0  0  0  0  0
    2.1003   -2.0195    1.7266 O   0  0  0  0  0  0  0  0  0  0  0  0
    3.3146   -3.8205    2.3314 N   0  0  2  0  0  0  0  0  0  0  0  0
    3.7751   -4.4019    3.6703 C   0  0  2  0  0  0  0  0  0  0  0  0
    5.1427   -3.9494    3.9838 C   0  0  0  0  0  0  0  0  0  0  0  0
    5.3877   -5.3237    3.4725 C   0  0  1  0  0  0  0  0  0  0  0  0
    4.1319   -5.9910    4.0598 C   0  0  1  0  0  0  0  0  0  0  0  0
    2.7056   -6.4779    3.7004 C   0  0  0  0  0  0  0  0  0  0  0  0
    1.6646   -6.2750    4.6324 C   0  0  0  0  0  0  0  0  0  0  0  0
    0.3519   -6.6947    4.3501 C   0  0  0  0  0  0  0  0  0  0  0  0
    0.0759   -7.3372    3.1344 C   0  0  0  0  0  0  0  0  0  0  0  0
    1.0982   -7.5746    2.2104 C   0  0  0  0  0  0  0  0  0  0  0  0
    2.4195   -7.1600    2.4964 C   0  0  0  0  0  0  0  0  0  0  0  0
    3.5326   -7.5448    1.5357 C   0  0  0  0  0  0  0  0  0  0  0  0
    4.9645   -7.2741    2.0672 C   0  0  2  0  0  0  0  0  0  0  0  0
    5.6549   -8.3366    1.3993 O   0  0  0  0  0  0  0  0  0  0  0  0
    4.9239   -7.3357    3.5953 C   0  0  1  0  0  0  0  0  0  0  0  0
    6.2930   -7.5759    4.0853 O   0  0  0  0  0  0  0  0  0  0  0  0
    7.4517   -7.2557    3.2303 C   0  0  0  0  0  0  0  0  0  0  0  0
    7.1832   -6.1916    2.0963 C   0  0  0  0  0  0  0  0  0  0  0  0
    5.6658   -5.8614    2.0484 C   0  0  1  0  0  0  0  0  0  0  0  0
    2.8462   -1.0457   -0.4702 H   0  0  0  0  0  0  0  0  0  0  0  0
    2.7784   -1.6795   -1.9456 H   0  0  0  0  0  0  0  0  0  0  0  0
    4.7094   -3.0102   -1.6233 H   0  0  0  0  0  0  0  0  0  0  0  0
    2.1779   -3.4718   -0.2431 H   0  0  0  0  0  0  0  0  0  0  0  0
    3.2562   -4.5413   -1.0716 H   0  0  0  0  0  0  0  0  0  0  0  0
    2.9942   -5.3108    1.0258 H   0  0  0  0  0  0  0  0  0  0  0  0
    5.2564   -5.4693   -0.0004 H   0  0  0  0  0  0  0  0  0  0  0  0
    6.6496   -3.4039    1.5977 H   0  0  0  0  0  0  0  0  0  0  0  0
    6.7559   -3.8302   -0.0819 H   0  0  0  0  0  0  0  0  0  0  0  0
    5.9367   -1.6350   -0.0823 H   0  0  0  0  0  0  0  0  0  0  0  0
    5.3918   -1.4460    2.2773 H   0  0  0  0  0  0  0  0  0  0  0  0
    4.2877   -0.6274    1.2884 H   0  0  0  0  0  0  0  0  0  0  0  0
    3.3196   -1.9075    3.3164 H   0  0  0  0  0  0  0  0  0  0  0  0
    2.2165   -1.4232    1.0120 H   0  0  0  0  0  0  0  0  0  0  0  0
    3.0995   -3.9913    4.4242 H   0  0  0  0  0  0  0  0  0  0  0  0
    5.6075   -3.1419    3.4348 H   0  0  0  0  0  0  0  0  0  0  0  0
    5.2853   -3.8297    5.0552 H   0  0  0  0  0  0  0  0  0  0  0  0
    6.2615   -5.3926    4.1270 H   0  0  0  0  0  0  0  0  0  0  0  0
    1.8786   -5.8089    5.5753 H   0  0  0  0  0  0  0  0  0  0  0  0
   -0.4250   -6.5520    5.0763 H   0  0  0  0  0  0  0  0  0  0  0  0
   -0.9259   -7.6780    2.9226 H   0  0  0  0  0  0  0  0  0  0  0  0
    0.8945   -8.1235    1.3107 H   0  0  0  0  0  0  0  0  0  0  0  0
    3.3935   -8.6317    1.4642 H   0  0  0  0  0  0  0  0  0  0  0  0
    3.4000   -7.2077    0.5119 H   0  0  0  0  0  0  0  0  0  0  0  0
    5.2351   -9.1604    1.6092 H   0  0  0  0  0  0  0  0  0  0  0  0
    4.4015   -8.2209    3.9303 H   0  0  0  0  0  0  0  0  0  0  0  0
    8.2729   -6.9194    3.8663 H   0  0  0  0  0  0  0  0  0  0  0  0
    7.8085   -8.1814    2.7758 H   0  0  0  0  0  0  0  0  0  0  0  0
    7.7763   -5.2915    2.3037 H   0  0  0  0  0  0  0  0  0  0  0  0
    7.5387   -6.5625    1.1310 H   0  0  0  0  0  0  0  0  0  0  0  0
    4.0552   -0.7498   -1.5375 H   0  0  0  0  0  0  0  0  0  0  0  0
    2.3238   -3.9578    2.3751 H   0  0  0  0  0  0  0  0  0  0  0  0
  1  2  1  0
  1 30  1  0
  1 31  1  0
  1 60  1  0
  2  7  1  0
  2  3  1  0
  2 32  1  6
  3  4  1  0
  3 33  1  0
  3 34  1  0
  4 11  1  0
  4  5  1  0
  4 35  1  1
  5 29  1  0
  5  6  1  0
  5 36  1  6
  6  7  1  0
  6 37  1  0
  6 38  1  0
  7  8  1  0
  7 39  1  6
  8  9  1  0
  8 40  1  0
  8 41  1  0
  9 10  1  0
  9 11  1  0
  9 42  1  1
 10 43  1  0
 11 12  1  0
 11 61  1  1
 12 15  1  0
 12 13  1  0
 12 44  1  1
 13 14  1  0
 13 45  1  0
 13 46  1  0
 14 29  1  0
 14 15  1  0
 14 47  1  1
 15 25  1  0
 15 16  1  1
 16 21  2  0
 16 17  1  0
 17 18  2  0
 17 48  1  0
 18 19  1  0
 18 49  1  0
 19 20  2  0
 19 50  1  0
 20 21  1  0
 20 51  1  0
 21 22  1  0
 22 23  1  0
 22 52  1  0
 22 53  1  0
 23 29  1  0
 23 24  1  6
 23 25  1  0
 24 54  1  0
 25 26  1  0
 25 55  1  6
 26 27  1  0
 27 28  1  0
 27 56  1  0
 27 57  1  0
 29 28  1  1
 28 58  1  0
 28 59  1  0
M  CHG  2   1   1  11   1
M  END
>  <i_m_ct_stereo_status>  (346) 
1

>  <s_m_source_file>  (346) 
/var/tmp/pbs.5076255.sched01/tmp8hdfbsd6/1003312lgh9.sdf

>  <i_m_source_file_index>  (346) 
34

>  <i_lp_mmshare_version>  (346) 
48012

>  <i_f3d_flags>  (346) 
2

>  <s_epik_input>  (346) 
W09IXVtDQEBIXTFbQ0gyXVtDQEhdKFtDQEhdKFtOSDJdKVtDSDJdMilbQ0gyXVtDQEhdKFtDQEhdMk4xW0NAQEhdM0M0NTYpW0NAXTcoW0NASF00W0NIMl0zKVtDQF0oW09IXSkoW0NAQEhdNk9bQ0gyXVtDSDJdNylbQ0gyXWM4YzVbY0hdW2NIXVtjSF1bY0hdOA==

>  <s_epik_cmdline>  (346) 
J2VwaWtfcHl0aG9uJywgJy1waHQnLCAnMi4wJywgJy1waCcsICc3LjAnLCAnLXRuJywgJzgnLCAnLW1hJywgJzIwMCcsICctaW1hZScsICc8aW5maWxlLm1hZT4nLCAnLW9tYWUnLCAnPG91dGZpbGUubWFlPic=

>  <r_epik_Ionization_Penalty>  (346) 
1.83155

>  <r_epik_Ionization_Penalty_Charging>  (346) 
0.940124

>  <r_epik_Ionization_Penalty_Neutral>  (346) 
0.891428

>  <r_epik_State_Penalty>  (346) 
1.30096

>  <r_epik_Charging_Adjusted_Penalty>  (346) 
2.24109

>  <i_epik_Tot_Q>  (346) 
2

>  <i_epik_Tot_abs_Q>  (346) 
2

>  <s_epik_Chemistry_Notes>  (346) 
This compound contains an acetal/aminal-like group ( X-CH(R)-Y where X, Y are N, S, or O) that may be acid/base labile, releasing an aldehyde.

>  <s_lp_Force_Field>  (346) 
OPLS3e

>  <r_lp_Energy>  (346) 
256.507

>  <b_lp_Chiralities_Consistent>  (346) 
0

>  <s_lp_Variant>  (346) 
79:0-3

>  <s_i_glide_gridfile>  (346) 
pfpi4k_grid

>  <i_i_glide_lignum>  (346) 
34

>  <i_i_glide_rotatable_bonds>  (346) 
2

>  <r_i_docking_score>  (346) 
-3.57202

>  <r_i_glide_ligand_efficiency>  (346) 
-0.123173

>  <r_i_glide_ligand_efficiency_sa>  (346) 
-0.378427

>  <r_i_glide_ligand_efficiency_ln>  (346) 
-0.817902

>  <r_i_glide_gscore>  (346) 
-3.57202

>  <r_i_glide_lipo>  (346) 
-0.364746

>  <r_i_glide_hbond>  (346) 
-0.060615

>  <r_i_glide_metal>  (346) 
-0

>  <r_i_glide_rewards>  (346) 
-0.705529

>  <r_i_glide_evdw>  (346) 
-23.4971

>  <r_i_glide_ecoul>  (346) 
-7.76874

>  <r_i_glide_erotb>  (346) 
0

>  <r_i_glide_esite>  (346) 
-0.100965

>  <r_i_glide_emodel>  (346) 
-41.7514

>  <r_i_glide_energy>  (346) 
-31.2658

>  <r_i_glide_einternal>  (346) 
0.111551

>  <r_i_glide_intrahb_reward>  (346) 
-0

>  <i_i_glide_confnum>  (346) 
2

>  <i_i_glide_posenum>  (346) 
4

>  <r_i_glide_eff_state_penalty>  (346) 
0

>  <ligand_id>  (346) 
79

>  <original_smiles>  (346) 
NC1CC2C3CC1CC(O)N2C1CC2C14c1ccccc1CC1(O)C4OCCC321

>  <smiles>  (346) 
[H]OC12C([H])([H])c3c([H])c([H])c([H])c([H])c3C34C1([H])OC([H])([H])C([H])([H])C21C3([H])C([H])([H])C4([H])[N+]2([H])C([H])(O[H])C([H])([H])C3([H])C([H])([H])C1([H])C2([H])C([H])([H])C3([H])[N+]([H])([H])[H]

$$$$
80:0:0
     RDKit          3D

 58 62  0  0  1  0  0  0  0  0999 V2000
    3.8250    0.1606   -3.5874 C   0  0  0  0  0  0  0  0  0  0  0  0
    3.3612   -1.0836   -3.1152 O   0  0  0  0  0  0  0  0  0  0  0  0
    4.3184   -1.9597   -2.6598 C   0  0  0  0  0  0  0  0  0  0  0  0
    5.4185   -1.5617   -1.9108 C   0  0  0  0  0  0  0  0  0  0  0  0
    6.2757   -2.7630   -1.8528 C   0  0  1  0  0  0  0  0  0  0  0  0
    7.6219   -2.4800   -1.5314 O   0  0  0  0  0  0  0  0  0  0  0  0
    5.4913   -3.5594   -0.8446 C   0  0  1  0  0  0  0  0  0  0  0  0
    4.4680   -2.8474   -0.1321 O   0  0  0  0  0  0  0  0  0  0  0  0
    3.9306   -1.5501   -0.0420 C   0  0  1  0  0  0  0  0  0  0  0  0
    3.3039   -1.6116    1.3782 C   0  0  0  0  0  0  0  0  0  0  0  0
    3.1697   -3.0798    1.9190 C   0  0  1  0  0  0  0  0  0  0  0  0
    2.2721   -3.0025    3.1835 C   0  0  0  0  0  0  0  0  0  0  0  0
    2.4569   -3.9949    0.8234 C   0  0  0  0  0  0  0  0  0  0  0  0
    3.5105   -4.9206    0.0947 C   0  0  1  0  0  0  0  0  0  0  0  0
    4.2970   -4.3383   -1.2697 C   0  0  1  0  0  0  0  0  0  0  0  0
    3.6939   -3.4251   -2.4793 C   0  0  1  0  0  0  0  0  0  0  0  0
    2.1519   -3.4158   -2.5868 C   0  0  0  0  0  0  0  0  0  0  0  0
    4.4246   -5.1808    1.3964 C   0  0  0  0  0  0  0  0  0  0  0  0
    3.6315   -6.2036    2.2883 C   0  0  0  0  0  0  0  0  0  0  0  0
    5.7314   -5.9897    1.1279 C   0  0  0  0  0  0  0  0  0  0  0  0
    4.6031   -3.7428    2.1708 C   0  0  2  0  0  0  0  0  0  0  0  0
    4.7664   -4.0690    3.5416 O   0  0  0  0  0  0  0  0  0  0  0  0
    5.9205   -2.7406    1.9110 C   0  0  0  0  0  0  0  0  0  0  0  0
    6.0973   -1.3874    0.9575 C   0  0  1  0  0  0  0  0  0  0  0  0
    7.4684   -1.0676    0.8479 O   0  0  0  0  0  0  0  0  0  0  0  0
    5.2431   -0.9748   -0.3970 C   0  0  1  0  0  0  0  0  0  0  0  0
    2.9843    0.6767   -4.0495 H   0  0  0  0  0  0  0  0  0  0  0  0
    4.5715    0.0275   -4.3703 H   0  0  0  0  0  0  0  0  0  0  0  0
    4.2242    0.7895   -2.7976 H   0  0  0  0  0  0  0  0  0  0  0  0
    6.3270   -3.2846   -2.8135 H   0  0  0  0  0  0  0  0  0  0  0  0
    8.1912   -2.9992   -2.0891 H   0  0  0  0  0  0  0  0  0  0  0  0
    6.1925   -4.1288   -0.2648 H   0  0  0  0  0  0  0  0  0  0  0  0
    3.1127   -1.2951   -0.7105 H   0  0  0  0  0  0  0  0  0  0  0  0
    3.7891   -0.9698    2.1090 H   0  0  0  0  0  0  0  0  0  0  0  0
    2.2985   -1.1912    1.2853 H   0  0  0  0  0  0  0  0  0  0  0  0
    2.1191   -3.9733    3.6540 H   0  0  0  0  0  0  0  0  0  0  0  0
    1.2824   -2.6117    2.9363 H   0  0  0  0  0  0  0  0  0  0  0  0
    2.7053   -2.3432    3.9380 H   0  0  0  0  0  0  0  0  0  0  0  0
    1.7218   -4.6328    1.3053 H   0  0  0  0  0  0  0  0  0  0  0  0
    1.8852   -3.3973    0.1186 H   0  0  0  0  0  0  0  0  0  0  0  0
    3.0014   -5.8362   -0.2136 H   0  0  0  0  0  0  0  0  0  0  0  0
    4.7171   -5.2227   -1.7454 H   0  0  0  0  0  0  0  0  0  0  0  0
    4.0300   -3.9309   -3.3873 H   0  0  0  0  0  0  0  0  0  0  0  0
    1.8392   -3.1676   -3.6045 H   0  0  0  0  0  0  0  0  0  0  0  0
    1.7118   -2.6745   -1.9229 H   0  0  0  0  0  0  0  0  0  0  0  0
    1.6996   -4.3680   -2.3228 H   0  0  0  0  0  0  0  0  0  0  0  0
    4.2059   -6.5248    3.1611 H   0  0  0  0  0  0  0  0  0  0  0  0
    3.3962   -7.1107    1.7253 H   0  0  0  0  0  0  0  0  0  0  0  0
    2.6930   -5.8385    2.6940 H   0  0  0  0  0  0  0  0  0  0  0  0
    6.6406   -5.4486    1.3782 H   0  0  0  0  0  0  0  0  0  0  0  0
    5.7955   -6.2960    0.0851 H   0  0  0  0  0  0  0  0  0  0  0  0
    5.8053   -6.9156    1.7005 H   0  0  0  0  0  0  0  0  0  0  0  0
    5.5460   -4.5914    3.6138 H   0  0  0  0  0  0  0  0  0  0  0  0
    6.1530   -2.3365    2.8951 H   0  0  0  0  0  0  0  0  0  0  0  0
    6.7861   -3.3687    1.7066 H   0  0  0  0  0  0  0  0  0  0  0  0
    5.8046   -0.5974    1.6485 H   0  0  0  0  0  0  0  0  0  0  0  0
    7.6082   -0.1833    1.2068 H   0  0  0  0  0  0  0  0  0  0  0  0
    5.1425    0.1048   -0.4358 H   0  0  0  0  0  0  0  0  0  0  0  0
  1  2  1  0
  1 27  1  0
  1 28  1  0
  1 29  1  0
  2  3  1  0
  3 16  1  0
  3  4  2  0
  4 26  1  0
  4  5  1  0
  5  6  1  0
  5  7  1  0
  5 30  1  6
  6 31  1  0
  7 15  1  0
  7  8  1  0
  7 32  1  1
  8  9  1  0
  9 26  1  0
  9 10  1  0
  9 33  1  6
 10 11  1  0
 10 34  1  0
 10 35  1  0
 11 21  1  0
 11 12  1  1
 11 13  1  0
 12 36  1  0
 12 37  1  0
 12 38  1  0
 13 14  1  0
 13 39  1  0
 13 40  1  0
 14 15  1  0
 14 18  1  0
 14 41  1  6
 15 16  1  0
 15 42  1  6
 16 17  1  0
 16 43  1  6
 17 44  1  0
 17 45  1  0
 17 46  1  0
 18 19  1  0
 18 20  1  0
 18 21  1  0
 19 47  1  0
 19 48  1  0
 19 49  1  0
 20 50  1  0
 20 51  1  0
 20 52  1  0
 21 22  1  1
 21 23  1  0
 22 53  1  0
 23 24  1  0
 23 54  1  0
 23 55  1  0
 24 25  1  0
 24 26  1  0
 24 56  1  1
 25 57  1  0
 26 58  1  6
M  END
>  <i_m_ct_stereo_status>  (347) 
1

>  <s_m_source_file>  (347) 
/var/tmp/pbs.5076255.sched01/tmp8hdfbsd6/1003312lgh9.sdf

>  <i_m_source_file_index>  (347) 
35

>  <i_lp_mmshare_version>  (347) 
48012

>  <i_f3d_flags>  (347) 
0

>  <s_epik_input>  (347) 
W0NIM11PQyhbQ0BASF0xW0NIM10pPUMoW0NAQEhdKFtDQEBIXShPMilbQ0gyXTMpW0NAQEhdKFtDSDJdNClbT0hdKVtDQEBIXShbT0hdKVtDQEBIXTJbQ0BIXTFbQ0BIXShbQ0gyXTUpQyhbQ0gzXSkoW0NIM10pW0NAXTQoW09IXSlbQ0BAXTM1W0NIM10=

>  <s_epik_cmdline>  (347) 
J2VwaWtfcHl0aG9uJywgJy1waHQnLCAnMi4wJywgJy1waCcsICc3LjAnLCAnLXRuJywgJzgnLCAnLW1hJywgJzIwMCcsICctaW1hZScsICc8aW5maWxlLm1hZT4nLCAnLW9tYWUnLCAnPG91dGZpbGUubWFlPic=

>  <r_lp_tautomer_probability>  (347) 
1

>  <r_epik_Ionization_Penalty>  (347) 
3.95405e-06

>  <r_epik_Ionization_Penalty_Charging>  (347) 
0

>  <r_epik_Ionization_Penalty_Neutral>  (347) 
3.95405e-06

>  <r_epik_State_Penalty>  (347) 
-0

>  <r_epik_Charging_Adjusted_Penalty>  (347) 
0

>  <i_epik_Tot_Q>  (347) 
0

>  <i_epik_Tot_abs_Q>  (347) 
0

>  <s_lp_Force_Field>  (347) 
OPLS3e

>  <r_lp_Energy>  (347) 
313.194

>  <b_lp_Chiralities_Consistent>  (347) 
1

>  <s_lp_Variant>  (347) 
80:0-1

>  <s_i_glide_gridfile>  (347) 
pfpi4k_grid

>  <i_i_glide_lignum>  (347) 
35

>  <i_i_glide_rotatable_bonds>  (347) 
4

>  <r_i_docking_score>  (347) 
-4.17456

>  <r_i_glide_ligand_efficiency>  (347) 
-0.16056

>  <r_i_glide_ligand_efficiency_sa>  (347) 
-0.475658

>  <r_i_glide_ligand_efficiency_ln>  (347) 
-0.980382

>  <r_i_glide_gscore>  (347) 
-4.17456

>  <r_i_glide_lipo>  (347) 
-0.730577

>  <r_i_glide_hbond>  (347) 
0

>  <r_i_glide_metal>  (347) 
-0

>  <r_i_glide_rewards>  (347) 
-0.924029

>  <r_i_glide_evdw>  (347) 
-19.2448

>  <r_i_glide_ecoul>  (347) 
-10.3848

>  <r_i_glide_erotb>  (347) 
0

>  <r_i_glide_esite>  (347) 
0

>  <r_i_glide_emodel>  (347) 
-34.3184

>  <r_i_glide_energy>  (347) 
-29.6296

>  <r_i_glide_einternal>  (347) 
4.27413

>  <r_i_glide_intrahb_reward>  (347) 
-0

>  <i_i_glide_confnum>  (347) 
1

>  <i_i_glide_posenum>  (347) 
17

>  <r_i_glide_eff_state_penalty>  (347) 
0

>  <ligand_id>  (347) 
80

>  <original_smiles>  (347) 
COC1=C2C(O)C3OC4CC5(C)CC(C3C1C)C(C)(C)C5(O)CC(O)C24

>  <smiles>  (347) 
[H]OC1([H])C2=C(OC([H])([H])[H])C([H])(C([H])([H])[H])C3([H])C1([H])OC1([H])C([H])([H])C4(C([H])([H])[H])C([H])([H])C3([H])C(C([H])([H])[H])(C([H])([H])[H])C4(O[H])C([H])([H])C([H])(O[H])C21[H]

$$$$
80:0:1
     RDKit          3D

 58 62  0  0  1  0  0  0  0  0999 V2000
    4.2798   -3.7960    5.7428 C   0  0  0  0  0  0  0  0  0  0  0  0
    3.8883   -4.6139    4.6517 O   0  0  0  0  0  0  0  0  0  0  0  0
    3.1194   -4.0410    3.6640 C   0  0  0  0  0  0  0  0  0  0  0  0
    2.9774   -2.6627    3.4929 C   0  0  0  0  0  0  0  0  0  0  0  0
    1.9453   -2.5060    2.4489 C   0  0  1  0  0  0  0  0  0  0  0  0
    1.3508   -1.2243    2.4045 O   0  0  0  0  0  0  0  0  0  0  0  0
    2.7697   -2.9074    1.2449 C   0  0  1  0  0  0  0  0  0  0  0  0
    4.1882   -2.9631    1.4525 O   0  0  0  0  0  0  0  0  0  0  0  0
    5.1322   -2.7615    2.4692 C   0  0  1  0  0  0  0  0  0  0  0  0
    6.3960   -2.5128    1.6133 C   0  0  0  0  0  0  0  0  0  0  0  0
    6.2347   -2.9365    0.1209 C   0  0  1  0  0  0  0  0  0  0  0  0
    7.6545   -2.8938   -0.5125 C   0  0  0  0  0  0  0  0  0  0  0  0
    5.6791   -4.4328    0.0664 C   0  0  0  0  0  0  0  0  0  0  0  0
    4.1414   -4.4389   -0.3103 C   0  0  1  0  0  0  0  0  0  0  0  0
    2.9860   -4.3521    0.9078 C   0  0  1  0  0  0  0  0  0  0  0  0
    3.0228   -5.0352    2.3944 C   0  0  1  0  0  0  0  0  0  0  0  0
    3.9825   -6.2371    2.4904 C   0  0  0  0  0  0  0  0  0  0  0  0
    4.2166   -3.1751   -1.3239 C   0  0  0  0  0  0  0  0  0  0  0  0
    4.8964   -3.6874   -2.6448 C   0  0  0  0  0  0  0  0  0  0  0  0
    2.8454   -2.6889   -1.8847 C   0  0  0  0  0  0  0  0  0  0  0  0
    5.1528   -2.0232   -0.6106 C   0  0  2  0  0  0  0  0  0  0  0  0
    5.7500   -1.3053   -1.6687 O   0  0  0  0  0  0  0  0  0  0  0  0
    4.5166   -0.7581    0.2985 C   0  0  0  0  0  0  0  0  0  0  0  0
    4.3614   -0.5636    1.9485 C   0  0  1  0  0  0  0  0  0  0  0  0
    3.5069    0.5288    2.2275 O   0  0  0  0  0  0  0  0  0  0  0  0
    4.2639   -1.7404    3.1060 C   0  0  1  0  0  0  0  0  0  0  0  0
    4.6879   -4.4382    6.5211 H   0  0  0  0  0  0  0  0  0  0  0  0
    3.4443   -3.2424    6.1720 H   0  0  0  0  0  0  0  0  0  0  0  0
    5.0689   -3.1060    5.4511 H   0  0  0  0  0  0  0  0  0  0  0  0
    1.1139   -3.1993    2.5959 H   0  0  0  0  0  0  0  0  0  0  0  0
    1.3775   -0.9056    1.5122 H   0  0  0  0  0  0  0  0  0  0  0  0
    2.4385   -2.3137    0.4179 H   0  0  0  0  0  0  0  0  0  0  0  0
    5.3881   -3.6239    3.0838 H   0  0  0  0  0  0  0  0  0  0  0  0
    6.8108   -1.5073    1.6950 H   0  0  0  0  0  0  0  0  0  0  0  0
    7.1477   -3.1871    2.0113 H   0  0  0  0  0  0  0  0  0  0  0  0
    7.6565   -3.1583   -1.5701 H   0  0  0  0  0  0  0  0  0  0  0  0
    8.3208   -3.5996   -0.0140 H   0  0  0  0  0  0  0  0  0  0  0  0
    8.1058   -1.9042   -0.4216 H   0  0  0  0  0  0  0  0  0  0  0  0
    6.2145   -4.9962   -0.6845 H   0  0  0  0  0  0  0  0  0  0  0  0
    5.8812   -4.9768    0.9846 H   0  0  0  0  0  0  0  0  0  0  0  0
    3.9543   -5.3812   -0.8154 H   0  0  0  0  0  0  0  0  0  0  0  0
    2.0701   -4.7135    0.4410 H   0  0  0  0  0  0  0  0  0  0  0  0
    2.0301   -5.4708    2.5085 H   0  0  0  0  0  0  0  0  0  0  0  0
    3.6869   -6.8952    3.3107 H   0  0  0  0  0  0  0  0  0  0  0  0
    5.0071   -5.9250    2.6952 H   0  0  0  0  0  0  0  0  0  0  0  0
    3.9799   -6.8308    1.5745 H   0  0  0  0  0  0  0  0  0  0  0  0
    4.9136   -2.9245   -3.4270 H   0  0  0  0  0  0  0  0  0  0  0  0
    4.3532   -4.5307   -3.0656 H   0  0  0  0  0  0  0  0  0  0  0  0
    5.9249   -4.0090   -2.5314 H   0  0  0  0  0  0  0  0  0  0  0  0
    2.6275   -1.6510   -1.6323 H   0  0  0  0  0  0  0  0  0  0  0  0
    2.0203   -3.3107   -1.5350 H   0  0  0  0  0  0  0  0  0  0  0  0
    2.7667   -2.7105   -2.9725 H   0  0  0  0  0  0  0  0  0  0  0  0
    5.0378   -0.8835   -2.1264 H   0  0  0  0  0  0  0  0  0  0  0  0
    5.1210    0.1152    0.0456 H   0  0  0  0  0  0  0  0  0  0  0  0
    3.5492   -0.5034   -0.1241 H   0  0  0  0  0  0  0  0  0  0  0  0
    5.3138   -0.1040    2.2071 H   0  0  0  0  0  0  0  0  0  0  0  0
    3.9426    1.3451    2.0027 H   0  0  0  0  0  0  0  0  0  0  0  0
    4.7163   -1.3770    4.0264 H   0  0  0  0  0  0  0  0  0  0  0  0
  1  2  1  0
  1 27  1  0
  1 28  1  0
  1 29  1  0
  2  3  1  0
  3 16  1  0
  3  4  2  0
  4 26  1  0
  4  5  1  0
  5  6  1  0
  5  7  1  0
  5 30  1  1
  6 31  1  0
  7 15  1  0
  7  8  1  0
  7 32  1  6
  8  9  1  0
  9 26  1  0
  9 10  1  0
  9 33  1  1
 10 11  1  0
 10 34  1  0
 10 35  1  0
 11 21  1  0
 11 12  1  6
 11 13  1  0
 12 36  1  0
 12 37  1  0
 12 38  1  0
 13 14  1  0
 13 39  1  0
 13 40  1  0
 14 15  1  0
 14 18  1  0
 14 41  1  6
 15 16  1  0
 15 42  1  6
 16 17  1  0
 16 43  1  1
 17 44  1  0
 17 45  1  0
 17 46  1  0
 18 19  1  0
 18 20  1  0
 18 21  1  0
 19 47  1  0
 19 48  1  0
 19 49  1  0
 20 50  1  0
 20 51  1  0
 20 52  1  0
 21 22  1  6
 21 23  1  0
 22 53  1  0
 23 24  1  0
 23 54  1  0
 23 55  1  0
 24 25  1  0
 24 26  1  0
 24 56  1  1
 25 57  1  0
 26 58  1  1
M  END
>  <i_m_ct_stereo_status>  (348) 
1

>  <s_m_source_file>  (348) 
/var/tmp/pbs.5076255.sched01/tmp8hdfbsd6/1003312lgh9.sdf

>  <i_m_source_file_index>  (348) 
35

>  <i_lp_mmshare_version>  (348) 
48012

>  <i_f3d_flags>  (348) 
0

>  <s_epik_input>  (348) 
W0NIM11PQyhbQ0BASF0xW0NIM10pPUMoW0NAQEhdKFtDQEBIXShPMilbQ0gyXTMpW0NAQEhdKFtDSDJdNClbT0hdKVtDQEBIXShbT0hdKVtDQEBIXTJbQ0BIXTFbQ0BIXShbQ0gyXTUpQyhbQ0gzXSkoW0NIM10pW0NAXTQoW09IXSlbQ0BAXTM1W0NIM10=

>  <s_epik_cmdline>  (348) 
J2VwaWtfcHl0aG9uJywgJy1waHQnLCAnMi4wJywgJy1waCcsICc3LjAnLCAnLXRuJywgJzgnLCAnLW1hJywgJzIwMCcsICctaW1hZScsICc8aW5maWxlLm1hZT4nLCAnLW9tYWUnLCAnPG91dGZpbGUubWFlPic=

>  <r_lp_tautomer_probability>  (348) 
1

>  <r_epik_Ionization_Penalty>  (348) 
3.95405e-06

>  <r_epik_Ionization_Penalty_Charging>  (348) 
0

>  <r_epik_Ionization_Penalty_Neutral>  (348) 
3.95405e-06

>  <r_epik_State_Penalty>  (348) 
-0

>  <r_epik_Charging_Adjusted_Penalty>  (348) 
0

>  <i_epik_Tot_Q>  (348) 
0

>  <i_epik_Tot_abs_Q>  (348) 
0

>  <s_lp_Force_Field>  (348) 
OPLS3e

>  <r_lp_Energy>  (348) 
313.194

>  <b_lp_Chiralities_Consistent>  (348) 
1

>  <s_lp_Variant>  (348) 
80:0-1

>  <s_i_glide_gridfile>  (348) 
pfpi4k_grid

>  <i_i_glide_lignum>  (348) 
35

>  <i_i_glide_rotatable_bonds>  (348) 
4

>  <r_i_docking_score>  (348) 
-2.97506

>  <r_i_glide_ligand_efficiency>  (348) 
-0.114425

>  <r_i_glide_ligand_efficiency_sa>  (348) 
-0.338985

>  <r_i_glide_ligand_efficiency_ln>  (348) 
-0.698683

>  <r_i_glide_gscore>  (348) 
-2.97506

>  <r_i_glide_lipo>  (348) 
-0.492177

>  <r_i_glide_hbond>  (348) 
-0.0648671

>  <r_i_glide_metal>  (348) 
-0

>  <r_i_glide_rewards>  (348) 
-0.924029

>  <r_i_glide_evdw>  (348) 
-16.0385

>  <r_i_glide_ecoul>  (348) 
-4.61373

>  <r_i_glide_erotb>  (348) 
0

>  <r_i_glide_esite>  (348) 
0

>  <r_i_glide_emodel>  (348) 
-24.9438

>  <r_i_glide_energy>  (348) 
-20.6523

>  <r_i_glide_einternal>  (348) 
1.42347

>  <r_i_glide_intrahb_reward>  (348) 
-0

>  <i_i_glide_confnum>  (348) 
2

>  <i_i_glide_posenum>  (348) 
11

>  <r_i_glide_eff_state_penalty>  (348) 
0

>  <ligand_id>  (348) 
80

>  <original_smiles>  (348) 
COC1=C2C(O)C3OC4CC5(C)CC(C3C1C)C(C)(C)C5(O)CC(O)C24

>  <smiles>  (348) 
[H]OC1([H])C2=C(OC([H])([H])[H])C([H])(C([H])([H])[H])C3([H])C1([H])OC1([H])C([H])([H])C4(C([H])([H])[H])C([H])([H])C3([H])C(C([H])([H])[H])(C([H])([H])[H])C4(O[H])C([H])([H])C([H])(O[H])C21[H]

$$$$
80:0:2
     RDKit          3D

 58 62  0  0  1  0  0  0  0  0999 V2000
    4.3021   -4.1351    5.6930 C   0  0  0  0  0  0  0  0  0  0  0  0
    3.9119   -4.8646    4.5357 O   0  0  0  0  0  0  0  0  0  0  0  0
    3.1365   -4.2137    3.6036 C   0  0  0  0  0  0  0  0  0  0  0  0
    3.0030   -2.8256    3.5339 C   0  0  0  0  0  0  0  0  0  0  0  0
    1.9742   -2.5661    2.5063 C   0  0  1  0  0  0  0  0  0  0  0  0
    1.4562   -1.2515    2.5068 O   0  0  0  0  0  0  0  0  0  0  0  0
    2.7785   -2.9088    1.2760 C   0  0  1  0  0  0  0  0  0  0  0  0
    4.1941   -2.9856    1.4729 O   0  0  0  0  0  0  0  0  0  0  0  0
    5.1508   -2.8731    2.4946 C   0  0  1  0  0  0  0  0  0  0  0  0
    6.4118   -2.5626    1.6515 C   0  0  0  0  0  0  0  0  0  0  0  0
    6.2332   -2.8717    0.1382 C   0  0  1  0  0  0  0  0  0  0  0  0
    7.6452   -2.7990   -0.5065 C   0  0  0  0  0  0  0  0  0  0  0  0
    5.6655   -4.3521   -0.0094 C   0  0  0  0  0  0  0  0  0  0  0  0
    4.1290   -4.3158   -0.3948 C   0  0  1  0  0  0  0  0  0  0  0  0
    2.9803   -4.3217    0.8345 C   0  0  1  0  0  0  0  0  0  0  0  0
    3.0244   -5.1115    2.2614 C   0  0  1  0  0  0  0  0  0  0  0  0
    3.9714   -6.3237    2.2651 C   0  0  0  0  0  0  0  0  0  0  0  0
    4.2090   -2.9859   -1.3120 C   0  0  0  0  0  0  0  0  0  0  0  0
    4.8738   -3.4261   -2.6650 C   0  0  0  0  0  0  0  0  0  0  0  0
    2.8447   -2.4505   -1.8391 C   0  0  0  0  0  0  0  0  0  0  0  0
    5.1553   -1.9022   -0.5204 C   0  0  2  0  0  0  0  0  0  0  0  0
    5.7493   -1.1011   -1.5210 O   0  0  0  0  0  0  0  0  0  0  0  0
    4.5276   -0.7137    0.4789 C   0  0  0  0  0  0  0  0  0  0  0  0
    4.4056   -0.6424    2.1358 C   0  0  1  0  0  0  0  0  0  0  0  0
    3.5724    0.4437    2.4829 O   0  0  0  0  0  0  0  0  0  0  0  0
    4.2995   -1.8948    3.2121 C   0  0  1  0  0  0  0  0  0  0  0  0
    4.7083   -4.8383    6.4174 H   0  0  0  0  0  0  0  0  0  0  0  0
    3.4605   -3.6232    6.1623 H   0  0  0  0  0  0  0  0  0  0  0  0
    5.0870   -3.4214    5.4621 H   0  0  0  0  0  0  0  0  0  0  0  0
    1.1207   -3.2432    2.6209 H   0  0  0  0  0  0  0  0  0  0  0  0
    1.1809   -1.0414    1.6197 H   0  0  0  0  0  0  0  0  0  0  0  0
    2.4486   -2.2596    0.4941 H   0  0  0  0  0  0  0  0  0  0  0  0
    5.4041   -3.7820    3.0382 H   0  0  0  0  0  0  0  0  0  0  0  0
    6.8255   -1.5633    1.7995 H   0  0  0  0  0  0  0  0  0  0  0  0
    7.1640   -3.2666    1.9848 H   0  0  0  0  0  0  0  0  0  0  0  0
    7.6356   -2.9848   -1.5827 H   0  0  0  0  0  0  0  0  0  0  0  0
    8.3080   -3.5471   -0.0695 H   0  0  0  0  0  0  0  0  0  0  0  0
    8.1125   -1.8246   -0.3464 H   0  0  0  0  0  0  0  0  0  0  0  0
    6.2196   -4.8641   -0.7797 H   0  0  0  0  0  0  0  0  0  0  0  0
    5.8613   -4.9570    0.8734 H   0  0  0  0  0  0  0  0  0  0  0  0
    3.9405   -5.1892   -1.0011 H   0  0  0  0  0  0  0  0  0  0  0  0
    2.0588   -4.6428    0.3434 H   0  0  0  0  0  0  0  0  0  0  0  0
    2.0254   -5.5449    2.3528 H   0  0  0  0  0  0  0  0  0  0  0  0
    3.6774   -7.0357    3.0331 H   0  0  0  0  0  0  0  0  0  0  0  0
    5.0002   -6.0387    2.4829 H   0  0  0  0  0  0  0  0  0  0  0  0
    3.9583   -6.8485    1.3048 H   0  0  0  0  0  0  0  0  0  0  0  0
    4.8932   -2.6140   -3.3948 H   0  0  0  0  0  0  0  0  0  0  0  0
    4.2993   -4.2351   -3.1228 H   0  0  0  0  0  0  0  0  0  0  0  0
    5.8977   -3.7772   -2.5912 H   0  0  0  0  0  0  0  0  0  0  0  0
    2.6252   -1.4286   -1.5297 H   0  0  0  0  0  0  0  0  0  0  0  0
    2.0181   -3.0803   -1.5167 H   0  0  0  0  0  0  0  0  0  0  0  0
    2.7638   -2.4114   -2.9259 H   0  0  0  0  0  0  0  0  0  0  0  0
    5.0477   -0.5743   -1.8750 H   0  0  0  0  0  0  0  0  0  0  0  0
    5.1585    0.1540    0.2934 H   0  0  0  0  0  0  0  0  0  0  0  0
    3.5670   -0.3997    0.0757 H   0  0  0  0  0  0  0  0  0  0  0  0
    5.3610   -0.2017    2.4194 H   0  0  0  0  0  0  0  0  0  0  0  0
    2.6746    0.1792    2.3112 H   0  0  0  0  0  0  0  0  0  0  0  0
    4.7613   -1.6032    4.1540 H   0  0  0  0  0  0  0  0  0  0  0  0
  1  2  1  0
  1 27  1  0
  1 28  1  0
  1 29  1  0
  2  3  1  0
  3 16  1  0
  3  4  2  0
  4 26  1  0
  4  5  1  0
  5  6  1  0
  5  7  1  0
  5 30  1  1
  6 31  1  0
  7 15  1  0
  7  8  1  0
  7 32  1  6
  8  9  1  0
  9 26  1  0
  9 10  1  0
  9 33  1  1
 10 11  1  0
 10 34  1  0
 10 35  1  0
 11 21  1  0
 11 12  1  6
 11 13  1  0
 12 36  1  0
 12 37  1  0
 12 38  1  0
 13 14  1  0
 13 39  1  0
 13 40  1  0
 14 15  1  0
 14 18  1  0
 14 41  1  6
 15 16  1  0
 15 42  1  6
 16 17  1  0
 16 43  1  1
 17 44  1  0
 17 45  1  0
 17 46  1  0
 18 19  1  0
 18 20  1  0
 18 21  1  0
 19 47  1  0
 19 48  1  0
 19 49  1  0
 20 50  1  0
 20 51  1  0
 20 52  1  0
 21 22  1  6
 21 23  1  0
 22 53  1  0
 23 24  1  0
 23 54  1  0
 23 55  1  0
 24 25  1  0
 24 26  1  0
 24 56  1  1
 25 57  1  0
 26 58  1  1
M  END
>  <i_m_ct_stereo_status>  (349) 
1

>  <s_m_source_file>  (349) 
/var/tmp/pbs.5076255.sched01/tmp8hdfbsd6/1003312lgh9.sdf

>  <i_m_source_file_index>  (349) 
35

>  <i_lp_mmshare_version>  (349) 
48012

>  <i_f3d_flags>  (349) 
0

>  <s_epik_input>  (349) 
W0NIM11PQyhbQ0BASF0xW0NIM10pPUMoW0NAQEhdKFtDQEBIXShPMilbQ0gyXTMpW0NAQEhdKFtDSDJdNClbT0hdKVtDQEBIXShbT0hdKVtDQEBIXTJbQ0BIXTFbQ0BIXShbQ0gyXTUpQyhbQ0gzXSkoW0NIM10pW0NAXTQoW09IXSlbQ0BAXTM1W0NIM10=

>  <s_epik_cmdline>  (349) 
J2VwaWtfcHl0aG9uJywgJy1waHQnLCAnMi4wJywgJy1waCcsICc3LjAnLCAnLXRuJywgJzgnLCAnLW1hJywgJzIwMCcsICctaW1hZScsICc8aW5maWxlLm1hZT4nLCAnLW9tYWUnLCAnPG91dGZpbGUubWFlPic=

>  <r_lp_tautomer_probability>  (349) 
1

>  <r_epik_Ionization_Penalty>  (349) 
3.95405e-06

>  <r_epik_Ionization_Penalty_Charging>  (349) 
0

>  <r_epik_Ionization_Penalty_Neutral>  (349) 
3.95405e-06

>  <r_epik_State_Penalty>  (349) 
-0

>  <r_epik_Charging_Adjusted_Penalty>  (349) 
0

>  <i_epik_Tot_Q>  (349) 
0

>  <i_epik_Tot_abs_Q>  (349) 
0

>  <s_lp_Force_Field>  (349) 
OPLS3e

>  <r_lp_Energy>  (349) 
313.194

>  <b_lp_Chiralities_Consistent>  (349) 
1

>  <s_lp_Variant>  (349) 
80:0-1

>  <s_i_glide_gridfile>  (349) 
pfpi4k_grid

>  <i_i_glide_lignum>  (349) 
35

>  <i_i_glide_rotatable_bonds>  (349) 
4

>  <r_i_docking_score>  (349) 
-2.92251

>  <r_i_glide_ligand_efficiency>  (349) 
-0.112404

>  <r_i_glide_ligand_efficiency_sa>  (349) 
-0.332997

>  <r_i_glide_ligand_efficiency_ln>  (349) 
-0.686343

>  <r_i_glide_gscore>  (349) 
-2.92251

>  <r_i_glide_lipo>  (349) 
-0.550501

>  <r_i_glide_hbond>  (349) 
-0.0629154

>  <r_i_glide_metal>  (349) 
-0

>  <r_i_glide_rewards>  (349) 
-0.924029

>  <r_i_glide_evdw>  (349) 
-15.4503

>  <r_i_glide_ecoul>  (349) 
-4.08367

>  <r_i_glide_erotb>  (349) 
0

>  <r_i_glide_esite>  (349) 
0

>  <r_i_glide_emodel>  (349) 
-24.1043

>  <r_i_glide_energy>  (349) 
-19.534

>  <r_i_glide_einternal>  (349) 
0.850883

>  <r_i_glide_intrahb_reward>  (349) 
-0

>  <i_i_glide_confnum>  (349) 
2

>  <i_i_glide_posenum>  (349) 
30

>  <r_i_glide_eff_state_penalty>  (349) 
0

>  <ligand_id>  (349) 
80

>  <original_smiles>  (349) 
COC1=C2C(O)C3OC4CC5(C)CC(C3C1C)C(C)(C)C5(O)CC(O)C24

>  <smiles>  (349) 
[H]OC1([H])C2=C(OC([H])([H])[H])C([H])(C([H])([H])[H])C3([H])C1([H])OC1([H])C([H])([H])C4(C([H])([H])[H])C([H])([H])C3([H])C(C([H])([H])[H])(C([H])([H])[H])C4(O[H])C([H])([H])C([H])(O[H])C21[H]

$$$$
81:0:0
     RDKit          3D

 28 29  0  0  1  0  0  0  0  0999 V2000
    6.7894   -4.0877    0.9245 C   0  0  0  0  0  0  0  0  0  0  0  0
    5.8358   -3.7450   -0.1588 N   0  0  0  0  0  0  0  0  0  0  0  0
    6.1829   -2.8184   -1.0914 C   0  0  0  0  0  0  0  0  0  0  0  0
    7.3034   -2.2643   -1.1121 O   0  0  0  0  0  0  0  0  0  0  0  0
    5.1739   -2.3755   -2.1125 C   0  0  0  0  0  0  0  0  0  0  0  0
    4.6345   -3.2990   -3.0582 C   0  0  0  0  0  0  0  0  0  0  0  0
    3.7101   -2.9105   -3.9693 N   0  0  0  0  0  0  0  0  0  0  0  0
    3.3375   -1.6048   -3.9555 C   0  0  0  0  0  0  0  0  0  0  0  0
    3.9220   -0.6813   -3.0590 C   0  0  0  0  0  0  0  0  0  0  0  0
    4.8475   -1.0627   -2.1565 N   0  0  0  0  0  0  0  0  0  0  0  0
    4.4958   -4.3690   -0.0472 C   0  0  2  0  0  0  0  0  0  0  0  0
    3.7112   -3.8462    1.1547 C   0  0  0  0  0  0  0  0  0  0  0  0
    3.4792   -5.1058    1.9885 C   0  0  0  0  0  0  0  0  0  0  0  0
    4.4677   -6.0335    1.5551 O   0  0  0  0  0  0  0  0  0  0  0  0
    4.5743   -5.8827    0.1532 C   0  0  0  0  0  0  0  0  0  0  0  0
    7.7740   -3.6070    0.8494 H   0  0  0  0  0  0  0  0  0  0  0  0
    6.9922   -5.1562    0.9857 H   0  0  0  0  0  0  0  0  0  0  0  0
    6.3999   -3.7936    1.8957 H   0  0  0  0  0  0  0  0  0  0  0  0
    4.9176   -4.3292   -3.0738 H   0  0  0  0  0  0  0  0  0  0  0  0
    2.5929   -1.3009   -4.6735 H   0  0  0  0  0  0  0  0  0  0  0  0
    3.6381    0.3618   -3.1054 H   0  0  0  0  0  0  0  0  0  0  0  0
    3.8382   -4.2338   -0.9132 H   0  0  0  0  0  0  0  0  0  0  0  0
    4.2456   -3.0828    1.7164 H   0  0  0  0  0  0  0  0  0  0  0  0
    2.7643   -3.3857    0.8510 H   0  0  0  0  0  0  0  0  0  0  0  0
    3.5574   -4.9156    3.0587 H   0  0  0  0  0  0  0  0  0  0  0  0
    2.4935   -5.5311    1.7762 H   0  0  0  0  0  0  0  0  0  0  0  0
    3.7218   -6.4018   -0.3106 H   0  0  0  0  0  0  0  0  0  0  0  0
    5.4703   -6.3236   -0.2675 H   0  0  0  0  0  0  0  0  0  0  0  0
  1  2  1  0
  1 16  1  0
  1 17  1  0
  1 18  1  0
  2  3  1  0
  2 11  1  0
  3  4  2  0
  3  5  1  0
  5 10  1  0
  5  6  2  0
  6  7  1  0
  6 19  1  0
  7  8  2  0
  8  9  1  0
  8 20  1  0
  9 10  2  0
  9 21  1  0
 11 15  1  0
 11 12  1  0
 11 22  1  6
 12 13  1  0
 12 23  1  0
 12 24  1  0
 13 14  1  0
 13 25  1  0
 13 26  1  0
 14 15  1  0
 15 27  1  0
 15 28  1  0
M  END
>  <i_m_ct_stereo_status>  (350) 
1

>  <s_m_source_file>  (350) 
/var/tmp/pbs.5076255.sched01/tmp8hdfbsd6/1003312lgh9.sdf

>  <i_m_source_file_index>  (350) 
36

>  <i_lp_mmshare_version>  (350) 
48012

>  <i_f3d_flags>  (350) 
0

>  <s_epik_input>  (350) 
W0NIMl0xT1tDSDJdW0NIMl1bQ0BIXTFOKFtDSDNdKUMoPU8pYzJbY0hdbltjSF1bY0hdbjI=

>  <s_epik_cmdline>  (350) 
J2VwaWtfcHl0aG9uJywgJy1waHQnLCAnMi4wJywgJy1waCcsICc3LjAnLCAnLXRuJywgJzgnLCAnLW1hJywgJzIwMCcsICctaW1hZScsICc8aW5maWxlLm1hZT4nLCAnLW9tYWUnLCAnPG91dGZpbGUubWFlPic=

>  <r_lp_tautomer_probability>  (350) 
1

>  <r_epik_Ionization_Penalty>  (350) 
4.71036e-09

>  <r_epik_Ionization_Penalty_Charging>  (350) 
0

>  <r_epik_Ionization_Penalty_Neutral>  (350) 
4.71036e-09

>  <r_epik_State_Penalty>  (350) 
-0

>  <r_epik_Charging_Adjusted_Penalty>  (350) 
0

>  <i_epik_Tot_Q>  (350) 
0

>  <i_epik_Tot_abs_Q>  (350) 
0

>  <s_lp_Force_Field>  (350) 
OPLS3e

>  <r_lp_Energy>  (350) 
26.5144

>  <b_lp_Chiralities_Consistent>  (350) 
1

>  <s_lp_Variant>  (350) 
81:0-1

>  <s_i_glide_gridfile>  (350) 
pfpi4k_grid

>  <i_i_glide_lignum>  (350) 
36

>  <i_i_glide_rotatable_bonds>  (350) 
3

>  <r_i_docking_score>  (350) 
-3.63878

>  <r_i_glide_ligand_efficiency>  (350) 
-0.242586

>  <r_i_glide_ligand_efficiency_sa>  (350) 
-0.598267

>  <r_i_glide_ligand_efficiency_ln>  (350) 
-0.98132

>  <r_i_glide_gscore>  (350) 
-3.63878

>  <r_i_glide_lipo>  (350) 
-0.589577

>  <r_i_glide_hbond>  (350) 
-0.274895

>  <r_i_glide_metal>  (350) 
-0

>  <r_i_glide_rewards>  (350) 
-2.08264

>  <r_i_glide_evdw>  (350) 
-23.0153

>  <r_i_glide_ecoul>  (350) 
-4.62747

>  <r_i_glide_erotb>  (350) 
1.15445

>  <r_i_glide_esite>  (350) 
-0.00123003

>  <r_i_glide_emodel>  (350) 
-30.276

>  <r_i_glide_energy>  (350) 
-27.6428

>  <r_i_glide_einternal>  (350) 
7.22052

>  <r_i_glide_intrahb_reward>  (350) 
-0

>  <i_i_glide_confnum>  (350) 
5

>  <i_i_glide_posenum>  (350) 
36

>  <r_i_glide_eff_state_penalty>  (350) 
0

>  <ligand_id>  (350) 
81

>  <original_smiles>  (350) 
CN(C(=O)c1cnccn1)C1CCOC1

>  <smiles>  (350) 
[H]c1nc([H])c(C(=O)N(C([H])([H])[H])C2([H])C([H])([H])OC([H])([H])C2([H])[H])nc1[H]

$$$$
81:0:1
     RDKit          3D

 28 29  0  0  1  0  0  0  0  0999 V2000
    5.7492   -2.6625   -2.6973 C   0  0  0  0  0  0  0  0  0  0  0  0
    5.0880   -2.1323   -1.4862 N   0  0  0  0  0  0  0  0  0  0  0  0
    5.7956   -1.8543   -0.3639 C   0  0  0  0  0  0  0  0  0  0  0  0
    7.0316   -1.9147   -0.3307 O   0  0  0  0  0  0  0  0  0  0  0  0
    5.0686   -1.5236    0.9104 C   0  0  0  0  0  0  0  0  0  0  0  0
    4.1712   -0.4223    0.9760 C   0  0  0  0  0  0  0  0  0  0  0  0
    3.4906   -0.1291    2.1080 N   0  0  0  0  0  0  0  0  0  0  0  0
    3.7162   -0.9086    3.1924 C   0  0  0  0  0  0  0  0  0  0  0  0
    4.6405   -1.9721    3.1391 C   0  0  0  0  0  0  0  0  0  0  0  0
    5.3289   -2.2635    2.0132 N   0  0  0  0  0  0  0  0  0  0  0  0
    3.6185   -2.0170   -1.6151 C   0  0  2  0  0  0  0  0  0  0  0  0
    2.9773   -3.3931   -1.7939 C   0  0  0  0  0  0  0  0  0  0  0  0
    2.3024   -3.2874   -3.1651 C   0  0  0  0  0  0  0  0  0  0  0  0
    2.9805   -2.2337   -3.8405 O   0  0  0  0  0  0  0  0  0  0  0  0
    3.2216   -1.2206   -2.8751 C   0  0  0  0  0  0  0  0  0  0  0  0
    6.8376   -2.6891   -2.6666 H   0  0  0  0  0  0  0  0  0  0  0  0
    5.4458   -2.0870   -3.5655 H   0  0  0  0  0  0  0  0  0  0  0  0
    5.4200   -3.6797   -2.9072 H   0  0  0  0  0  0  0  0  0  0  0  0
    3.9857    0.1953    0.1154 H   0  0  0  0  0  0  0  0  0  0  0  0
    3.1512   -0.6873    4.0864 H   0  0  0  0  0  0  0  0  0  0  0  0
    4.8367   -2.5745    4.0193 H   0  0  0  0  0  0  0  0  0  0  0  0
    3.1366   -1.5303   -0.7641 H   0  0  0  0  0  0  0  0  0  0  0  0
    3.7152   -4.2008   -1.7581 H   0  0  0  0  0  0  0  0  0  0  0  0
    2.2532   -3.5859   -1.0054 H   0  0  0  0  0  0  0  0  0  0  0  0
    2.3418   -4.2199   -3.7302 H   0  0  0  0  0  0  0  0  0  0  0  0
    1.2566   -3.0042   -3.0396 H   0  0  0  0  0  0  0  0  0  0  0  0
    2.3143   -0.6496   -2.7071 H   0  0  0  0  0  0  0  0  0  0  0  0
    3.9826   -0.5074   -3.1999 H   0  0  0  0  0  0  0  0  0  0  0  0
  1  2  1  0
  1 16  1  0
  1 17  1  0
  1 18  1  0
  2  3  1  0
  2 11  1  0
  3  4  2  0
  3  5  1  0
  5 10  1  0
  5  6  2  0
  6  7  1  0
  6 19  1  0
  7  8  2  0
  8  9  1  0
  8 20  1  0
  9 10  2  0
  9 21  1  0
 11 15  1  0
 11 12  1  0
 11 22  1  1
 12 13  1  0
 12 23  1  0
 12 24  1  0
 13 14  1  0
 13 25  1  0
 13 26  1  0
 14 15  1  0
 15 27  1  0
 15 28  1  0
M  END
>  <i_m_ct_stereo_status>  (351) 
1

>  <s_m_source_file>  (351) 
/var/tmp/pbs.5076255.sched01/tmp8hdfbsd6/1003312lgh9.sdf

>  <i_m_source_file_index>  (351) 
36

>  <i_lp_mmshare_version>  (351) 
48012

>  <i_f3d_flags>  (351) 
0

>  <s_epik_input>  (351) 
W0NIMl0xT1tDSDJdW0NIMl1bQ0BIXTFOKFtDSDNdKUMoPU8pYzJbY0hdbltjSF1bY0hdbjI=

>  <s_epik_cmdline>  (351) 
J2VwaWtfcHl0aG9uJywgJy1waHQnLCAnMi4wJywgJy1waCcsICc3LjAnLCAnLXRuJywgJzgnLCAnLW1hJywgJzIwMCcsICctaW1hZScsICc8aW5maWxlLm1hZT4nLCAnLW9tYWUnLCAnPG91dGZpbGUubWFlPic=

>  <r_lp_tautomer_probability>  (351) 
1

>  <r_epik_Ionization_Penalty>  (351) 
4.71036e-09

>  <r_epik_Ionization_Penalty_Charging>  (351) 
0

>  <r_epik_Ionization_Penalty_Neutral>  (351) 
4.71036e-09

>  <r_epik_State_Penalty>  (351) 
-0

>  <r_epik_Charging_Adjusted_Penalty>  (351) 
0

>  <i_epik_Tot_Q>  (351) 
0

>  <i_epik_Tot_abs_Q>  (351) 
0

>  <s_lp_Force_Field>  (351) 
OPLS3e

>  <r_lp_Energy>  (351) 
26.5144

>  <b_lp_Chiralities_Consistent>  (351) 
1

>  <s_lp_Variant>  (351) 
81:0-1

>  <s_i_glide_gridfile>  (351) 
pfpi4k_grid

>  <i_i_glide_lignum>  (351) 
36

>  <i_i_glide_rotatable_bonds>  (351) 
3

>  <r_i_docking_score>  (351) 
-3.24647

>  <r_i_glide_ligand_efficiency>  (351) 
-0.216432

>  <r_i_glide_ligand_efficiency_sa>  (351) 
-0.533766

>  <r_i_glide_ligand_efficiency_ln>  (351) 
-0.875521

>  <r_i_glide_gscore>  (351) 
-3.24647

>  <r_i_glide_lipo>  (351) 
-0.627442

>  <r_i_glide_hbond>  (351) 
-0.15523

>  <r_i_glide_metal>  (351) 
-0

>  <r_i_glide_rewards>  (351) 
-1.99617

>  <r_i_glide_evdw>  (351) 
-20.534

>  <r_i_glide_ecoul>  (351) 
-3.62854

>  <r_i_glide_erotb>  (351) 
1.15445

>  <r_i_glide_esite>  (351) 
-0.0511057

>  <r_i_glide_emodel>  (351) 
-25.717

>  <r_i_glide_energy>  (351) 
-24.1625

>  <r_i_glide_einternal>  (351) 
7.36992

>  <r_i_glide_intrahb_reward>  (351) 
-0

>  <i_i_glide_confnum>  (351) 
5

>  <i_i_glide_posenum>  (351) 
2

>  <r_i_glide_eff_state_penalty>  (351) 
0

>  <ligand_id>  (351) 
81

>  <original_smiles>  (351) 
CN(C(=O)c1cnccn1)C1CCOC1

>  <smiles>  (351) 
[H]c1nc([H])c(C(=O)N(C([H])([H])[H])C2([H])C([H])([H])OC([H])([H])C2([H])[H])nc1[H]

$$$$
81:0:2
     RDKit          3D

 28 29  0  0  1  0  0  0  0  0999 V2000
    5.2794   -3.5052    0.2951 C   0  0  0  0  0  0  0  0  0  0  0  0
    3.9150   -4.0534    0.2180 N   0  0  0  0  0  0  0  0  0  0  0  0
    2.9676   -3.7319   -0.7169 C   0  0  0  0  0  0  0  0  0  0  0  0
    1.8569   -4.2550   -0.7571 O   0  0  0  0  0  0  0  0  0  0  0  0
    3.3113   -2.7351   -1.7883 C   0  0  0  0  0  0  0  0  0  0  0  0
    3.0195   -3.0119   -3.1431 C   0  0  0  0  0  0  0  0  0  0  0  0
    3.3774   -2.1697   -4.1389 N   0  0  0  0  0  0  0  0  0  0  0  0
    3.9375   -1.0050   -3.7684 C   0  0  0  0  0  0  0  0  0  0  0  0
    4.1896   -0.7116   -2.4185 C   0  0  0  0  0  0  0  0  0  0  0  0
    3.8598   -1.5592   -1.4286 N   0  0  0  0  0  0  0  0  0  0  0  0
    3.6603   -5.0324    1.2959 C   0  0  2  0  0  0  0  0  0  0  0  0
    3.3906   -6.4436    0.7773 C   0  0  0  0  0  0  0  0  0  0  0  0
    2.0024   -6.7804    1.3261 C   0  0  0  0  0  0  0  0  0  0  0  0
    1.4128   -5.5255    1.6192 O   0  0  0  0  0  0  0  0  0  0  0  0
    2.4309   -4.6853    2.1421 C   0  0  0  0  0  0  0  0  0  0  0  0
    5.6135   -2.8821   -0.5358 H   0  0  0  0  0  0  0  0  0  0  0  0
    6.0027   -4.3160    0.3921 H   0  0  0  0  0  0  0  0  0  0  0  0
    5.3623   -2.9088    1.2067 H   0  0  0  0  0  0  0  0  0  0  0  0
    2.5442   -3.9340   -3.4483 H   0  0  0  0  0  0  0  0  0  0  0  0
    4.2371   -0.3267   -4.5573 H   0  0  0  0  0  0  0  0  0  0  0  0
    4.7120    0.1753   -2.1199 H   0  0  0  0  0  0  0  0  0  0  0  0
    4.5138   -5.0678    1.9735 H   0  0  0  0  0  0  0  0  0  0  0  0
    3.4141   -6.4757   -0.3142 H   0  0  0  0  0  0  0  0  0  0  0  0
    4.1327   -7.1592    1.1271 H   0  0  0  0  0  0  0  0  0  0  0  0
    1.3943   -7.3356    0.6135 H   0  0  0  0  0  0  0  0  0  0  0  0
    2.0731   -7.3593    2.2492 H   0  0  0  0  0  0  0  0  0  0  0  0
    2.5921   -4.9381    3.1913 H   0  0  0  0  0  0  0  0  0  0  0  0
    2.1535   -3.6296    2.0924 H   0  0  0  0  0  0  0  0  0  0  0  0
  1  2  1  0
  1 16  1  0
  1 17  1  0
  1 18  1  0
  2  3  1  0
  2 11  1  0
  3  4  2  0
  3  5  1  0
  5 10  1  0
  5  6  2  0
  6  7  1  0
  6 19  1  0
  7  8  2  0
  8  9  1  0
  8 20  1  0
  9 10  2  0
  9 21  1  0
 11 15  1  0
 11 12  1  0
 11 22  1  1
 12 13  1  0
 12 23  1  0
 12 24  1  0
 13 14  1  0
 13 25  1  0
 13 26  1  0
 14 15  1  0
 15 27  1  0
 15 28  1  0
M  END
>  <i_m_ct_stereo_status>  (352) 
1

>  <s_m_source_file>  (352) 
/var/tmp/pbs.5076255.sched01/tmp8hdfbsd6/1003312lgh9.sdf

>  <i_m_source_file_index>  (352) 
36

>  <i_lp_mmshare_version>  (352) 
48012

>  <i_f3d_flags>  (352) 
0

>  <s_epik_input>  (352) 
W0NIMl0xT1tDSDJdW0NIMl1bQ0BIXTFOKFtDSDNdKUMoPU8pYzJbY0hdbltjSF1bY0hdbjI=

>  <s_epik_cmdline>  (352) 
J2VwaWtfcHl0aG9uJywgJy1waHQnLCAnMi4wJywgJy1waCcsICc3LjAnLCAnLXRuJywgJzgnLCAnLW1hJywgJzIwMCcsICctaW1hZScsICc8aW5maWxlLm1hZT4nLCAnLW9tYWUnLCAnPG91dGZpbGUubWFlPic=

>  <r_lp_tautomer_probability>  (352) 
1

>  <r_epik_Ionization_Penalty>  (352) 
4.71036e-09

>  <r_epik_Ionization_Penalty_Charging>  (352) 
0

>  <r_epik_Ionization_Penalty_Neutral>  (352) 
4.71036e-09

>  <r_epik_State_Penalty>  (352) 
-0

>  <r_epik_Charging_Adjusted_Penalty>  (352) 
0

>  <i_epik_Tot_Q>  (352) 
0

>  <i_epik_Tot_abs_Q>  (352) 
0

>  <s_lp_Force_Field>  (352) 
OPLS3e

>  <r_lp_Energy>  (352) 
26.5144

>  <b_lp_Chiralities_Consistent>  (352) 
1

>  <s_lp_Variant>  (352) 
81:0-1

>  <s_i_glide_gridfile>  (352) 
pfpi4k_grid

>  <i_i_glide_lignum>  (352) 
36

>  <i_i_glide_rotatable_bonds>  (352) 
3

>  <r_i_docking_score>  (352) 
-3.05257

>  <r_i_glide_ligand_efficiency>  (352) 
-0.203505

>  <r_i_glide_ligand_efficiency_sa>  (352) 
-0.501886

>  <r_i_glide_ligand_efficiency_ln>  (352) 
-0.823228

>  <r_i_glide_gscore>  (352) 
-3.05257

>  <r_i_glide_lipo>  (352) 
-0.391983

>  <r_i_glide_hbond>  (352) 
-0.310351

>  <r_i_glide_metal>  (352) 
-0

>  <r_i_glide_rewards>  (352) 
-1.9968

>  <r_i_glide_evdw>  (352) 
-18.4046

>  <r_i_glide_ecoul>  (352) 
-3.84618

>  <r_i_glide_erotb>  (352) 
1.15445

>  <r_i_glide_esite>  (352) 
-0.0107261

>  <r_i_glide_emodel>  (352) 
-26.2796

>  <r_i_glide_energy>  (352) 
-22.2508

>  <r_i_glide_einternal>  (352) 
1.78819

>  <r_i_glide_intrahb_reward>  (352) 
-0

>  <i_i_glide_confnum>  (352) 
4

>  <i_i_glide_posenum>  (352) 
29

>  <r_i_glide_eff_state_penalty>  (352) 
0

>  <ligand_id>  (352) 
81

>  <original_smiles>  (352) 
CN(C(=O)c1cnccn1)C1CCOC1

>  <smiles>  (352) 
[H]c1nc([H])c(C(=O)N(C([H])([H])[H])C2([H])C([H])([H])OC([H])([H])C2([H])[H])nc1[H]

$$$$
82:0:0
     RDKit          3D

 49 53  0  0  1  0  0  0  0  0999 V2000
    7.9265   -3.2924   -0.3575 C   0  0  0  0  0  0  0  0  0  0  0  0
    7.0989   -4.0116    0.7267 C   0  0  2  0  0  0  0  0  0  0  0  0
    7.7370   -5.3912    1.0097 C   0  0  0  0  0  0  0  0  0  0  0  0
    6.9612   -6.2124    2.0493 C   0  0  0  0  0  0  0  0  0  0  0  0
    5.4869   -6.3487    1.6437 C   0  0  1  0  0  0  0  0  0  0  0  0
    4.6838   -7.1887    2.6426 C   0  0  0  0  0  0  0  0  0  0  0  0
    3.2200   -7.2841    2.1726 C   0  0  1  0  0  0  0  0  0  0  0  0
    2.3369   -8.0411    3.1927 C   0  0  0  0  0  0  0  0  0  0  0  0
    0.9152   -8.0010    2.8896 N   0  0  0  0  0  0  0  0  0  0  0  0
    0.0358   -9.0590    2.7259 C   0  0  0  0  0  0  0  0  0  0  0  0
   -1.1627   -8.4513    2.4851 C   0  0  0  0  0  0  0  0  0  0  0  0
   -0.9819   -7.0719    2.5305 N   0  0  0  0  0  0  0  0  0  0  0  0
    0.2549   -6.8185    2.8175 N   0  0  0  0  0  0  0  0  0  0  0  0
    2.7189   -5.9602    2.0154 O   0  0  0  0  0  0  0  0  0  0  0  0
    3.3407   -5.1823    1.0417 C   0  0  1  0  0  0  0  0  0  0  0  0
    2.6604   -3.9634    0.9107 O   0  0  0  0  0  0  0  0  0  0  0  0
    3.1203   -2.9409    1.7932 C   0  0  2  0  0  0  0  0  0  0  0  0
    1.9242   -2.0618    2.1800 C   0  0  0  0  0  0  0  0  0  0  0  0
    4.1920   -2.0871    1.0778 C   0  0  0  0  0  0  0  0  0  0  0  0
    4.9076   -2.8320   -0.0576 C   0  0  0  0  0  0  0  0  0  0  0  0
    5.5976   -4.1664    0.3440 C   0  0  2  0  0  0  0  0  0  0  0  0
    4.8319   -4.9569    1.4523 C   0  0  2  0  0  0  0  0  0  0  0  0
    4.9296   -4.2212    2.6805 O   0  0  0  0  0  0  0  0  0  0  0  0
    3.6372   -3.4980    2.9910 O   0  0  0  0  0  0  0  0  0  0  0  0
    7.7434   -3.7369   -1.3346 H   0  0  0  0  0  0  0  0  0  0  0  0
    8.9982   -3.3636   -0.1655 H   0  0  0  0  0  0  0  0  0  0  0  0
    7.6869   -2.2335   -0.4277 H   0  0  0  0  0  0  0  0  0  0  0  0
    7.1562   -3.4272    1.6469 H   0  0  0  0  0  0  0  0  0  0  0  0
    7.7978   -5.9648    0.0846 H   0  0  0  0  0  0  0  0  0  0  0  0
    8.7617   -5.2627    1.3634 H   0  0  0  0  0  0  0  0  0  0  0  0
    7.4179   -7.1996    2.1460 H   0  0  0  0  0  0  0  0  0  0  0  0
    7.0413   -5.7429    3.0324 H   0  0  0  0  0  0  0  0  0  0  0  0
    5.4545   -6.8795    0.6901 H   0  0  0  0  0  0  0  0  0  0  0  0
    5.1148   -8.1878    2.7461 H   0  0  0  0  0  0  0  0  0  0  0  0
    4.7202   -6.7308    3.6316 H   0  0  0  0  0  0  0  0  0  0  0  0
    3.1784   -7.8028    1.2104 H   0  0  0  0  0  0  0  0  0  0  0  0
    2.6479   -9.0851    3.2302 H   0  0  0  0  0  0  0  0  0  0  0  0
    2.4823   -7.6310    4.1957 H   0  0  0  0  0  0  0  0  0  0  0  0
    0.3361  -10.0991    2.7783 H   0  0  0  0  0  0  0  0  0  0  0  0
   -2.1252   -8.8889    2.2842 H   0  0  0  0  0  0  0  0  0  0  0  0
    3.2629   -5.6941    0.0808 H   0  0  0  0  0  0  0  0  0  0  0  0
    1.1566   -2.6309    2.7050 H   0  0  0  0  0  0  0  0  0  0  0  0
    1.4657   -1.6155    1.2955 H   0  0  0  0  0  0  0  0  0  0  0  0
    2.2391   -1.2436    2.8297 H   0  0  0  0  0  0  0  0  0  0  0  0
    3.7218   -1.2175    0.6166 H   0  0  0  0  0  0  0  0  0  0  0  0
    4.9023   -1.6871    1.8034 H   0  0  0  0  0  0  0  0  0  0  0  0
    4.1621   -3.0620   -0.8259 H   0  0  0  0  0  0  0  0  0  0  0  0
    5.5855   -2.1245   -0.5326 H   0  0  0  0  0  0  0  0  0  0  0  0
    5.5741   -4.7904   -0.5504 H   0  0  0  0  0  0  0  0  0  0  0  0
  1  2  1  0
  1 25  1  0
  1 26  1  0
  1 27  1  0
  2 21  1  0
  2  3  1  0
  2 28  1  1
  3  4  1  0
  3 29  1  0
  3 30  1  0
  4  5  1  0
  4 31  1  0
  4 32  1  0
  5 22  1  0
  5  6  1  0
  5 33  1  6
  6  7  1  0
  6 34  1  0
  6 35  1  0
  7  8  1  0
  7 14  1  0
  7 36  1  6
  8  9  1  0
  8 37  1  0
  8 38  1  0
  9 13  1  0
  9 10  1  0
 10 11  2  0
 10 39  1  0
 11 12  1  0
 11 40  1  0
 12 13  2  0
 14 15  1  0
 15 22  1  0
 15 16  1  0
 15 41  1  6
 16 17  1  0
 17 24  1  0
 17 18  1  1
 17 19  1  0
 18 42  1  0
 18 43  1  0
 18 44  1  0
 19 20  1  0
 19 45  1  0
 19 46  1  0
 20 21  1  0
 20 47  1  0
 20 48  1  0
 21 22  1  0
 21 49  1  6
 22 23  1  1
 23 24  1  0
M  END
>  <i_m_ct_stereo_status>  (353) 
1

>  <s_m_source_file>  (353) 
/var/tmp/pbs.5076255.sched01/tmp8hdfbsd6/1003312lgh9.sdf

>  <i_m_source_file_index>  (353) 
37

>  <i_lp_mmshare_version>  (353) 
48012

>  <i_f3d_flags>  (353) 
0

>  <s_epik_input>  (353) 
W0NAQF0xMjNbQ0BIXTRbQ0gyXVtDSDJdW0NAQEhdKFtDSDNdKVtDQEBIXTJbQ0gyXVtDSDJdW0NAXShbQ0gzXSkoT08zKU9bQ0BASF0xT1tDQEBIXShbQ0gyXTQpW0NIMl1uNVtjSF1bY0hdbm41

>  <s_epik_cmdline>  (353) 
J2VwaWtfcHl0aG9uJywgJy1waHQnLCAnMi4wJywgJy1waCcsICc3LjAnLCAnLXRuJywgJzgnLCAnLW1hJywgJzIwMCcsICctaW1hZScsICc8aW5maWxlLm1hZT4nLCAnLW9tYWUnLCAnPG91dGZpbGUubWFlPic=

>  <r_lp_tautomer_probability>  (353) 
1

>  <r_epik_Ionization_Penalty>  (353) 
4.11703e-07

>  <r_epik_Ionization_Penalty_Charging>  (353) 
0

>  <r_epik_Ionization_Penalty_Neutral>  (353) 
4.11703e-07

>  <r_epik_State_Penalty>  (353) 
-0

>  <r_epik_Charging_Adjusted_Penalty>  (353) 
0

>  <i_epik_Tot_Q>  (353) 
0

>  <i_epik_Tot_abs_Q>  (353) 
0

>  <s_epik_Chemistry_Notes>  (353) 
This compound contains an acetal/aminal-like group ( X-CH(R)-Y where X, Y are N, S, or O) that may be acid/base labile, releasing an aldehyde.

>  <s_lp_Force_Field>  (353) 
OPLS3e

>  <r_lp_Energy>  (353) 
30.9009

>  <b_lp_Chiralities_Consistent>  (353) 
1

>  <s_lp_Variant>  (353) 
82:0-1

>  <s_i_glide_gridfile>  (353) 
pfpi4k_grid

>  <i_i_glide_lignum>  (353) 
37

>  <i_i_glide_rotatable_bonds>  (353) 
2

>  <r_i_docking_score>  (353) 
-3.22843

>  <r_i_glide_ligand_efficiency>  (353) 
-0.134518

>  <r_i_glide_ligand_efficiency_sa>  (353) 
-0.388017

>  <r_i_glide_ligand_efficiency_ln>  (353) 
-0.772712

>  <r_i_glide_gscore>  (353) 
-3.22843

>  <r_i_glide_lipo>  (353) 
-0.681516

>  <r_i_glide_hbond>  (353) 
0

>  <r_i_glide_metal>  (353) 
-0

>  <r_i_glide_rewards>  (353) 
-1.12229

>  <r_i_glide_evdw>  (353) 
-21.999

>  <r_i_glide_ecoul>  (353) 
-3.05281

>  <r_i_glide_erotb>  (353) 
0.335544

>  <r_i_glide_esite>  (353) 
-0.202302

>  <r_i_glide_emodel>  (353) 
-30.2355

>  <r_i_glide_energy>  (353) 
-25.0518

>  <r_i_glide_einternal>  (353) 
1.1191

>  <r_i_glide_intrahb_reward>  (353) 
-0

>  <i_i_glide_confnum>  (353) 
4

>  <i_i_glide_posenum>  (353) 
26

>  <r_i_glide_eff_state_penalty>  (353) 
0

>  <ligand_id>  (353) 
82

>  <original_smiles>  (353) 
CC1CCC2CC(Cn3ccnn3)OC3OC4(C)CCC1C23OO4

>  <smiles>  (353) 
[H]c1nnn(C([H])([H])C2([H])OC3([H])OC4(C([H])([H])[H])OOC35C([H])(C([H])([H])C([H])([H])C([H])(C([H])([H])[H])C5([H])C([H])([H])C4([H])[H])C2([H])[H])c1[H]

$$$$
82:0:1
     RDKit          3D

 49 53  0  0  1  0  0  0  0  0999 V2000
    4.1594   -9.7327    1.8159 C   0  0  0  0  0  0  0  0  0  0  0  0
    3.4261   -8.3856    1.6646 C   0  0  2  0  0  0  0  0  0  0  0  0
    4.4449   -7.3248    1.1881 C   0  0  0  0  0  0  0  0  0  0  0  0
    3.8405   -5.9213    1.0526 C   0  0  0  0  0  0  0  0  0  0  0  0
    3.1532   -5.4963    2.3602 C   0  0  1  0  0  0  0  0  0  0  0  0
    2.5600   -4.0895    2.2731 C   0  0  0  0  0  0  0  0  0  0  0  0
    1.9072   -3.7220    3.6142 C   0  0  1  0  0  0  0  0  0  0  0  0
    1.2199   -2.3421    3.5544 C   0  0  0  0  0  0  0  0  0  0  0  0
    0.7943   -1.8752    4.8501 N   0  0  0  0  0  0  0  0  0  0  0  0
    1.5352   -1.2136    5.8084 C   0  0  0  0  0  0  0  0  0  0  0  0
    0.6475   -0.9894    6.8026 C   0  0  0  0  0  0  0  0  0  0  0  0
   -0.5836   -1.5283    6.4298 N   0  0  0  0  0  0  0  0  0  0  0  0
   -0.4897   -2.0516    5.2519 N   0  0  0  0  0  0  0  0  0  0  0  0
    0.9265   -4.7051    3.9396 O   0  0  0  0  0  0  0  0  0  0  0  0
    1.4109   -6.0076    4.1106 C   0  0  1  0  0  0  0  0  0  0  0  0
    0.3685   -6.8546    4.5101 O   0  0  0  0  0  0  0  0  0  0  0  0
   -0.3287   -7.4824    3.4373 C   0  0  2  0  0  0  0  0  0  0  0  0
   -1.7899   -7.6399    3.8618 C   0  0  0  0  0  0  0  0  0  0  0  0
    0.2879   -8.8619    3.1369 C   0  0  0  0  0  0  0  0  0  0  0  0
    1.7480   -8.9763    3.5749 C   0  0  0  0  0  0  0  0  0  0  0  0
    2.7141   -7.9197    2.9705 C   0  0  2  0  0  0  0  0  0  0  0  0
    2.0601   -6.5105    2.7757 C   0  0  2  0  0  0  0  0  0  0  0  0
    1.0873   -6.5949    1.7239 O   0  0  0  0  0  0  0  0  0  0  0  0
   -0.3196   -6.6601    2.2762 O   0  0  0  0  0  0  0  0  0  0  0  0
    4.7851   -9.7362    2.7066 H   0  0  0  0  0  0  0  0  0  0  0  0
    4.8039   -9.9268    0.9593 H   0  0  0  0  0  0  0  0  0  0  0  0
    3.4797  -10.5799    1.8857 H   0  0  0  0  0  0  0  0  0  0  0  0
    2.6722   -8.4939    0.8832 H   0  0  0  0  0  0  0  0  0  0  0  0
    5.2811   -7.2845    1.8893 H   0  0  0  0  0  0  0  0  0  0  0  0
    4.8687   -7.6239    0.2283 H   0  0  0  0  0  0  0  0  0  0  0  0
    4.6303   -5.2144    0.7921 H   0  0  0  0  0  0  0  0  0  0  0  0
    3.1334   -5.9050    0.2218 H   0  0  0  0  0  0  0  0  0  0  0  0
    3.9199   -5.4717    3.1373 H   0  0  0  0  0  0  0  0  0  0  0  0
    3.3359   -3.3625    2.0263 H   0  0  0  0  0  0  0  0  0  0  0  0
    1.8202   -4.0401    1.4752 H   0  0  0  0  0  0  0  0  0  0  0  0
    2.6749   -3.7079    4.3934 H   0  0  0  0  0  0  0  0  0  0  0  0
    1.9073   -1.5973    3.1435 H   0  0  0  0  0  0  0  0  0  0  0  0
    0.3584   -2.3755    2.8834 H   0  0  0  0  0  0  0  0  0  0  0  0
    2.5872   -0.9741    5.6934 H   0  0  0  0  0  0  0  0  0  0  0  0
    0.7770   -0.4996    7.7575 H   0  0  0  0  0  0  0  0  0  0  0  0
    2.1367   -5.9914    4.9247 H   0  0  0  0  0  0  0  0  0  0  0  0
   -2.2506   -6.6782    4.0826 H   0  0  0  0  0  0  0  0  0  0  0  0
   -1.8574   -8.2598    4.7569 H   0  0  0  0  0  0  0  0  0  0  0  0
   -2.3673   -8.1324    3.0790 H   0  0  0  0  0  0  0  0  0  0  0  0
   -0.2471   -9.6391    3.6828 H   0  0  0  0  0  0  0  0  0  0  0  0
    0.1658   -9.1155    2.0824 H   0  0  0  0  0  0  0  0  0  0  0  0
    1.7911   -8.8884    4.6630 H   0  0  0  0  0  0  0  0  0  0  0  0
    2.0454  -10.0067    3.3939 H   0  0  0  0  0  0  0  0  0  0  0  0
    3.5078   -7.7940    3.7090 H   0  0  0  0  0  0  0  0  0  0  0  0
  1  2  1  0
  1 25  1  0
  1 26  1  0
  1 27  1  0
  2 21  1  0
  2  3  1  0
  2 28  1  6
  3  4  1  0
  3 29  1  0
  3 30  1  0
  4  5  1  0
  4 31  1  0
  4 32  1  0
  5 22  1  0
  5  6  1  0
  5 33  1  1
  6  7  1  0
  6 34  1  0
  6 35  1  0
  7  8  1  0
  7 14  1  0
  7 36  1  1
  8  9  1  0
  8 37  1  0
  8 38  1  0
  9 13  1  0
  9 10  1  0
 10 11  2  0
 10 39  1  0
 11 12  1  0
 11 40  1  0
 12 13  2  0
 14 15  1  0
 15 22  1  0
 15 16  1  0
 15 41  1  1
 16 17  1  0
 17 24  1  0
 17 18  1  1
 17 19  1  0
 18 42  1  0
 18 43  1  0
 18 44  1  0
 19 20  1  0
 19 45  1  0
 19 46  1  0
 20 21  1  0
 20 47  1  0
 20 48  1  0
 21 22  1  0
 21 49  1  1
 22 23  1  6
 23 24  1  0
M  END
>  <i_m_ct_stereo_status>  (354) 
1

>  <s_m_source_file>  (354) 
/var/tmp/pbs.5076255.sched01/tmp8hdfbsd6/1003312lgh9.sdf

>  <i_m_source_file_index>  (354) 
37

>  <i_lp_mmshare_version>  (354) 
48012

>  <i_f3d_flags>  (354) 
0

>  <s_epik_input>  (354) 
W0NAQF0xMjNbQ0BIXTRbQ0gyXVtDSDJdW0NAQEhdKFtDSDNdKVtDQEBIXTJbQ0gyXVtDSDJdW0NAXShbQ0gzXSkoT08zKU9bQ0BASF0xT1tDQEBIXShbQ0gyXTQpW0NIMl1uNVtjSF1bY0hdbm41

>  <s_epik_cmdline>  (354) 
J2VwaWtfcHl0aG9uJywgJy1waHQnLCAnMi4wJywgJy1waCcsICc3LjAnLCAnLXRuJywgJzgnLCAnLW1hJywgJzIwMCcsICctaW1hZScsICc8aW5maWxlLm1hZT4nLCAnLW9tYWUnLCAnPG91dGZpbGUubWFlPic=

>  <r_lp_tautomer_probability>  (354) 
1

>  <r_epik_Ionization_Penalty>  (354) 
4.11703e-07

>  <r_epik_Ionization_Penalty_Charging>  (354) 
0

>  <r_epik_Ionization_Penalty_Neutral>  (354) 
4.11703e-07

>  <r_epik_State_Penalty>  (354) 
-0

>  <r_epik_Charging_Adjusted_Penalty>  (354) 
0

>  <i_epik_Tot_Q>  (354) 
0

>  <i_epik_Tot_abs_Q>  (354) 
0

>  <s_epik_Chemistry_Notes>  (354) 
This compound contains an acetal/aminal-like group ( X-CH(R)-Y where X, Y are N, S, or O) that may be acid/base labile, releasing an aldehyde.

>  <s_lp_Force_Field>  (354) 
OPLS3e

>  <r_lp_Energy>  (354) 
30.9009

>  <b_lp_Chiralities_Consistent>  (354) 
1

>  <s_lp_Variant>  (354) 
82:0-1

>  <s_i_glide_gridfile>  (354) 
pfpi4k_grid

>  <i_i_glide_lignum>  (354) 
37

>  <i_i_glide_rotatable_bonds>  (354) 
2

>  <r_i_docking_score>  (354) 
-2.9082

>  <r_i_glide_ligand_efficiency>  (354) 
-0.121175

>  <r_i_glide_ligand_efficiency_sa>  (354) 
-0.349529

>  <r_i_glide_ligand_efficiency_ln>  (354) 
-0.696065

>  <r_i_glide_gscore>  (354) 
-2.9082

>  <r_i_glide_lipo>  (354) 
-0.20503

>  <r_i_glide_hbond>  (354) 
-0.16

>  <r_i_glide_metal>  (354) 
-0

>  <r_i_glide_rewards>  (354) 
-1.12229

>  <r_i_glide_evdw>  (354) 
-19.0002

>  <r_i_glide_ecoul>  (354) 
-4.45329

>  <r_i_glide_erotb>  (354) 
0.335544

>  <r_i_glide_esite>  (354) 
-0.138425

>  <r_i_glide_emodel>  (354) 
-28.5475

>  <r_i_glide_energy>  (354) 
-23.4535

>  <r_i_glide_einternal>  (354) 
0.391762

>  <r_i_glide_intrahb_reward>  (354) 
-0

>  <i_i_glide_confnum>  (354) 
5

>  <i_i_glide_posenum>  (354) 
19

>  <r_i_glide_eff_state_penalty>  (354) 
0

>  <ligand_id>  (354) 
82

>  <original_smiles>  (354) 
CC1CCC2CC(Cn3ccnn3)OC3OC4(C)CCC1C23OO4

>  <smiles>  (354) 
[H]c1nnn(C([H])([H])C2([H])OC3([H])OC4(C([H])([H])[H])OOC35C([H])(C([H])([H])C([H])([H])C([H])(C([H])([H])[H])C5([H])C([H])([H])C4([H])[H])C2([H])[H])c1[H]

$$$$
82:0:2
     RDKit          3D

 49 53  0  0  1  0  0  0  0  0999 V2000
    2.2396   -6.2973    4.4532 C   0  0  0  0  0  0  0  0  0  0  0  0
    2.5593   -5.7266    3.0563 C   0  0  2  0  0  0  0  0  0  0  0  0
    3.0862   -6.8721    2.1632 C   0  0  0  0  0  0  0  0  0  0  0  0
    3.4885   -6.4018    0.7602 C   0  0  0  0  0  0  0  0  0  0  0  0
    4.4932   -5.2433    0.8410 C   0  0  1  0  0  0  0  0  0  0  0  0
    4.9184   -4.7668   -0.5447 C   0  0  0  0  0  0  0  0  0  0  0  0
    5.9365   -3.6206   -0.4112 C   0  0  1  0  0  0  0  0  0  0  0  0
    6.3335   -3.0480   -1.7870 C   0  0  0  0  0  0  0  0  0  0  0  0
    5.2100   -2.4431   -2.4692 N   0  0  0  0  0  0  0  0  0  0  0  0
    4.5882   -1.2384   -2.2049 C   0  0  0  0  0  0  0  0  0  0  0  0
    3.6203   -1.1558   -3.1547 C   0  0  0  0  0  0  0  0  0  0  0  0
    3.6826   -2.2985   -3.9458 N   0  0  0  0  0  0  0  0  0  0  0  0
    4.6300   -3.0689   -3.5242 N   0  0  0  0  0  0  0  0  0  0  0  0
    5.3689   -2.5723    0.3785 O   0  0  0  0  0  0  0  0  0  0  0  0
    4.9980   -2.9204    1.6840 C   0  0  1  0  0  0  0  0  0  0  0  0
    4.5131   -1.7906    2.3602 O   0  0  0  0  0  0  0  0  0  0  0  0
    3.1063   -1.5906    2.2321 C   0  0  2  0  0  0  0  0  0  0  0  0
    2.8397   -0.0809    2.2300 C   0  0  0  0  0  0  0  0  0  0  0  0
    2.3747   -2.2525    3.4237 C   0  0  0  0  0  0  0  0  0  0  0  0
    3.1675   -3.3995    4.0603 C   0  0  0  0  0  0  0  0  0  0  0  0
    3.5773   -4.5473    3.0979 C   0  0  2  0  0  0  0  0  0  0  0  0
    3.9194   -4.0600    1.6525 C   0  0  2  0  0  0  0  0  0  0  0  0
    2.7029   -3.6172    1.0380 O   0  0  0  0  0  0  0  0  0  0  0  0
    2.6310   -2.1087    1.0020 O   0  0  0  0  0  0  0  0  0  0  0  0
    3.1593   -6.5001    5.0008 H   0  0  0  0  0  0  0  0  0  0  0  0
    1.6856   -7.2344    4.3893 H   0  0  0  0  0  0  0  0  0  0  0  0
    1.6362   -5.6206    5.0569 H   0  0  0  0  0  0  0  0  0  0  0  0
    1.6302   -5.3644    2.6139 H   0  0  0  0  0  0  0  0  0  0  0  0
    3.9523   -7.3363    2.6377 H   0  0  0  0  0  0  0  0  0  0  0  0
    2.3321   -7.6560    2.0735 H   0  0  0  0  0  0  0  0  0  0  0  0
    3.9295   -7.2347    0.2103 H   0  0  0  0  0  0  0  0  0  0  0  0
    2.6029   -6.1007    0.1977 H   0  0  0  0  0  0  0  0  0  0  0  0
    5.3865   -5.6155    1.3458 H   0  0  0  0  0  0  0  0  0  0  0  0
    5.3614   -5.5884   -1.1067 H   0  0  0  0  0  0  0  0  0  0  0  0
    4.0412   -4.4429   -1.1037 H   0  0  0  0  0  0  0  0  0  0  0  0
    6.8360   -3.9858    0.0858 H   0  0  0  0  0  0  0  0  0  0  0  0
    7.1153   -2.2929   -1.6762 H   0  0  0  0  0  0  0  0  0  0  0  0
    6.7535   -3.8326   -2.4213 H   0  0  0  0  0  0  0  0  0  0  0  0
    4.8545   -0.5956   -1.3756 H   0  0  0  0  0  0  0  0  0  0  0  0
    2.8762   -0.3955   -3.3186 H   0  0  0  0  0  0  0  0  0  0  0  0
    5.8977   -3.2433    2.2083 H   0  0  0  0  0  0  0  0  0  0  0  0
    3.3266    0.4122    1.3892 H   0  0  0  0  0  0  0  0  0  0  0  0
    3.2063    0.3822    3.1478 H   0  0  0  0  0  0  0  0  0  0  0  0
    1.7697    0.1218    2.1641 H   0  0  0  0  0  0  0  0  0  0  0  0
    2.2211   -1.5209    4.2173 H   0  0  0  0  0  0  0  0  0  0  0  0
    1.3754   -2.5738    3.1251 H   0  0  0  0  0  0  0  0  0  0  0  0
    4.0826   -2.9834    4.4904 H   0  0  0  0  0  0  0  0  0  0  0  0
    2.6003   -3.7444    4.9236 H   0  0  0  0  0  0  0  0  0  0  0  0
    4.4996   -4.9608    3.5072 H   0  0  0  0  0  0  0  0  0  0  0  0
  1  2  1  0
  1 25  1  0
  1 26  1  0
  1 27  1  0
  2 21  1  0
  2  3  1  0
  2 28  1  6
  3  4  1  0
  3 29  1  0
  3 30  1  0
  4  5  1  0
  4 31  1  0
  4 32  1  0
  5 22  1  0
  5  6  1  0
  5 33  1  1
  6  7  1  0
  6 34  1  0
  6 35  1  0
  7  8  1  0
  7 14  1  0
  7 36  1  1
  8  9  1  0
  8 37  1  0
  8 38  1  0
  9 13  1  0
  9 10  1  0
 10 11  2  0
 10 39  1  0
 11 12  1  0
 11 40  1  0
 12 13  2  0
 14 15  1  0
 15 22  1  0
 15 16  1  0
 15 41  1  1
 16 17  1  0
 17 24  1  0
 17 18  1  6
 17 19  1  0
 18 42  1  0
 18 43  1  0
 18 44  1  0
 19 20  1  0
 19 45  1  0
 19 46  1  0
 20 21  1  0
 20 47  1  0
 20 48  1  0
 21 22  1  0
 21 49  1  1
 22 23  1  6
 23 24  1  0
M  END
>  <i_m_ct_stereo_status>  (355) 
1

>  <s_m_source_file>  (355) 
/var/tmp/pbs.5076255.sched01/tmp8hdfbsd6/1003312lgh9.sdf

>  <i_m_source_file_index>  (355) 
37

>  <i_lp_mmshare_version>  (355) 
48012

>  <i_f3d_flags>  (355) 
0

>  <s_epik_input>  (355) 
W0NAQF0xMjNbQ0BIXTRbQ0gyXVtDSDJdW0NAQEhdKFtDSDNdKVtDQEBIXTJbQ0gyXVtDSDJdW0NAXShbQ0gzXSkoT08zKU9bQ0BASF0xT1tDQEBIXShbQ0gyXTQpW0NIMl1uNVtjSF1bY0hdbm41

>  <s_epik_cmdline>  (355) 
J2VwaWtfcHl0aG9uJywgJy1waHQnLCAnMi4wJywgJy1waCcsICc3LjAnLCAnLXRuJywgJzgnLCAnLW1hJywgJzIwMCcsICctaW1hZScsICc8aW5maWxlLm1hZT4nLCAnLW9tYWUnLCAnPG91dGZpbGUubWFlPic=

>  <r_lp_tautomer_probability>  (355) 
1

>  <r_epik_Ionization_Penalty>  (355) 
4.11703e-07

>  <r_epik_Ionization_Penalty_Charging>  (355) 
0

>  <r_epik_Ionization_Penalty_Neutral>  (355) 
4.11703e-07

>  <r_epik_State_Penalty>  (355) 
-0

>  <r_epik_Charging_Adjusted_Penalty>  (355) 
0

>  <i_epik_Tot_Q>  (355) 
0

>  <i_epik_Tot_abs_Q>  (355) 
0

>  <s_epik_Chemistry_Notes>  (355) 
This compound contains an acetal/aminal-like group ( X-CH(R)-Y where X, Y are N, S, or O) that may be acid/base labile, releasing an aldehyde.

>  <s_lp_Force_Field>  (355) 
OPLS3e

>  <r_lp_Energy>  (355) 
30.9009

>  <b_lp_Chiralities_Consistent>  (355) 
1

>  <s_lp_Variant>  (355) 
82:0-1

>  <s_i_glide_gridfile>  (355) 
pfpi4k_grid

>  <i_i_glide_lignum>  (355) 
37

>  <i_i_glide_rotatable_bonds>  (355) 
2

>  <r_i_docking_score>  (355) 
-2.69644

>  <r_i_glide_ligand_efficiency>  (355) 
-0.112352

>  <r_i_glide_ligand_efficiency_sa>  (355) 
-0.324079

>  <r_i_glide_ligand_efficiency_ln>  (355) 
-0.645382

>  <r_i_glide_gscore>  (355) 
-2.69644

>  <r_i_glide_lipo>  (355) 
-0.303055

>  <r_i_glide_hbond>  (355) 
0

>  <r_i_glide_metal>  (355) 
-0

>  <r_i_glide_rewards>  (355) 
-1.35044

>  <r_i_glide_evdw>  (355) 
-25.2091

>  <r_i_glide_ecoul>  (355) 
-0.738074

>  <r_i_glide_erotb>  (355) 
0.335544

>  <r_i_glide_esite>  (355) 
-0.00732366

>  <r_i_glide_emodel>  (355) 
-30.2241

>  <r_i_glide_energy>  (355) 
-25.9472

>  <r_i_glide_einternal>  (355) 
1.16526

>  <r_i_glide_intrahb_reward>  (355) 
-0

>  <i_i_glide_confnum>  (355) 
5

>  <i_i_glide_posenum>  (355) 
3

>  <r_i_glide_eff_state_penalty>  (355) 
0

>  <ligand_id>  (355) 
82

>  <original_smiles>  (355) 
CC1CCC2CC(Cn3ccnn3)OC3OC4(C)CCC1C23OO4

>  <smiles>  (355) 
[H]c1nnn(C([H])([H])C2([H])OC3([H])OC4(C([H])([H])[H])OOC35C([H])(C([H])([H])C([H])([H])C([H])(C([H])([H])[H])C5([H])C([H])([H])C4([H])[H])C2([H])[H])c1[H]

$$$$
83:0:0
     RDKit          3D

 53 57  0  0  1  0  0  0  0  0999 V2000
    2.7091   -1.2032    2.8514 C   0  0  0  0  0  0  0  0  0  0  0  0
    2.1137   -0.4829    4.0726 C   0  0  2  0  0  0  0  0  0  0  0  0
    0.5476   -0.7005    4.2523 C   0  0  1  0  0  0  0  0  0  0  0  0
   -0.5086   -0.6911    5.5238 C   0  0  2  0  0  0  0  0  0  0  0  0
   -1.3575   -0.0051    4.4933 C   0  0  0  0  0  0  0  0  0  0  0  0
   -0.0402    0.6447    3.9827 C   0  0  2  0  0  0  0  0  0  0  0  0
   -0.3294    0.9168    2.5125 C   0  0  0  0  0  0  0  0  0  0  0  0
   -1.3751    1.3767    2.0699 O   0  0  0  0  0  0  0  0  0  0  0  0
    1.1525    1.5033    4.7522 C   0  0  1  0  0  0  0  0  0  0  0  0
    1.5671    1.1327    6.0745 O   0  0  0  0  0  0  0  0  0  0  0  0
    2.4350    1.0815    4.0689 C   0  0  1  0  0  0  0  0  0  0  0  0
    3.7547    1.4734    4.8168 C   0  0  0  0  0  0  0  0  0  0  0  0
    3.7600    2.9715    5.2264 C   0  0  0  0  0  0  0  0  0  0  0  0
    2.3781    3.6045    5.6034 C   0  0  1  0  0  0  0  0  0  0  0  0
    2.5403    5.1471    5.5854 C   0  0  0  0  0  0  0  0  0  0  0  0
    1.1398    3.0274    4.7719 C   0  0  1  0  0  0  0  0  0  0  0  0
    1.4905    3.2646    3.2696 C   0  0  0  0  0  0  0  0  0  0  0  0
    2.4006    2.0504    2.8358 C   0  0  0  0  0  0  0  0  0  0  0  0
   -0.2366    3.4678    5.4619 C   0  0  1  0  0  0  0  0  0  0  0  0
   -1.4874    3.6346    4.5660 C   0  0  0  0  0  0  0  0  0  0  0  0
   -1.3782    4.7305    3.6778 O   0  0  0  0  0  0  0  0  0  0  0  0
   -0.5971    2.7348    6.8393 C   0  0  0  0  0  0  0  0  0  0  0  0
   -1.3446    1.3529    6.8963 C   0  0  0  0  0  0  0  0  0  0  0  0
   -2.5504    1.3314    7.1109 O   0  0  0  0  0  0  0  0  0  0  0  0
   -0.5816    0.1610    6.7362 O   0  0  0  0  0  0  0  0  0  0  0  0
    2.2789   -0.8491    1.9159 H   0  0  0  0  0  0  0  0  0  0  0  0
    2.5445   -2.2786    2.9083 H   0  0  0  0  0  0  0  0  0  0  0  0
    3.7864   -1.0436    2.8018 H   0  0  0  0  0  0  0  0  0  0  0  0
    2.6021   -0.9332    4.9371 H   0  0  0  0  0  0  0  0  0  0  0  0
    0.2170   -1.4825    3.5576 H   0  0  0  0  0  0  0  0  0  0  0  0
   -0.8756   -1.6944    5.7443 H   0  0  0  0  0  0  0  0  0  0  0  0
   -1.7906   -0.7394    3.8079 H   0  0  0  0  0  0  0  0  0  0  0  0
   -2.1866    0.6582    4.7230 H   0  0  0  0  0  0  0  0  0  0  0  0
    0.3965    0.5643    1.7885 H   0  0  0  0  0  0  0  0  0  0  0  0
    2.3592    1.6290    6.2705 H   0  0  0  0  0  0  0  0  0  0  0  0
    3.9399    0.8437    5.6882 H   0  0  0  0  0  0  0  0  0  0  0  0
    4.6081    1.2756    4.1723 H   0  0  0  0  0  0  0  0  0  0  0  0
    4.4530    3.1044    6.0559 H   0  0  0  0  0  0  0  0  0  0  0  0
    4.1934    3.5499    4.4089 H   0  0  0  0  0  0  0  0  0  0  0  0
    2.2127    3.3890    6.6615 H   0  0  0  0  0  0  0  0  0  0  0  0
    2.8025    5.5333    4.5996 H   0  0  0  0  0  0  0  0  0  0  0  0
    3.3509    5.4411    6.2543 H   0  0  0  0  0  0  0  0  0  0  0  0
    1.6559    5.6849    5.9238 H   0  0  0  0  0  0  0  0  0  0  0  0
    0.6049    3.3230    2.6501 H   0  0  0  0  0  0  0  0  0  0  0  0
    1.9996    4.2087    3.0854 H   0  0  0  0  0  0  0  0  0  0  0  0
    3.3952    2.4233    2.6087 H   0  0  0  0  0  0  0  0  0  0  0  0
    2.1108    1.5986    1.8902 H   0  0  0  0  0  0  0  0  0  0  0  0
   -0.0744    4.4890    5.7908 H   0  0  0  0  0  0  0  0  0  0  0  0
   -1.7427    2.7401    4.0216 H   0  0  0  0  0  0  0  0  0  0  0  0
   -2.3553    3.8258    5.1970 H   0  0  0  0  0  0  0  0  0  0  0  0
   -0.7558    4.5185    2.9873 H   0  0  0  0  0  0  0  0  0  0  0  0
    0.2828    2.6592    7.4732 H   0  0  0  0  0  0  0  0  0  0  0  0
   -1.2555    3.4152    7.3842 H   0  0  0  0  0  0  0  0  0  0  0  0
  1  2  1  0
  1 26  1  0
  1 27  1  0
  1 28  1  0
  2 11  1  0
  2  3  1  0
  2 29  1  1
  3  6  1  0
  3  4  1  0
  3 30  1  6
  4 25  1  0
  4  5  1  0
  4 31  1  1
  5  6  1  0
  5 32  1  0
  5 33  1  0
  6  7  1  6
  6  9  1  0
  7  8  2  0
  7 34  1  0
  9 16  1  0
  9 10  1  1
  9 11  1  0
 10 35  1  0
 11 18  1  6
 11 12  1  0
 12 13  1  0
 12 36  1  0
 12 37  1  0
 13 14  1  0
 13 38  1  0
 13 39  1  0
 14 15  1  0
 14 16  1  0
 14 40  1  1
 15 41  1  0
 15 42  1  0
 15 43  1  0
 16 17  1  6
 16 19  1  0
 17 18  1  0
 17 44  1  0
 17 45  1  0
 18 46  1  0
 18 47  1  0
 19 20  1  0
 19 22  1  0
 19 48  1  1
 20 21  1  0
 20 49  1  0
 20 50  1  0
 21 51  1  0
 22 23  1  0
 22 52  1  0
 22 53  1  0
 23 24  2  0
 23 25  1  0
M  END
>  <i_m_ct_stereo_status>  (356) 
1

>  <s_m_source_file>  (356) 
/var/tmp/pbs.5076255.sched01/tmp8hdfbsd6/1003312lgh9.sdf

>  <i_m_source_file_index>  (356) 
38

>  <i_lp_mmshare_version>  (356) 
48012

>  <i_f3d_flags>  (356) 
0

>  <s_epik_input>  (356) 
Tz1bQ0hdW0NAQF0xKFtDSDJdMilbQ0BASF0oW0NASF0zW0NIM10pW0NASF0yT0MoPU8pW0NIMl1bQ0BIXShbQ0gyXVtPSF0pW0NAQF0oW0NAQF0xKFtDQF0zNDUpW09IXSkoW0NIMl1bQ0gyXTUpW0NASF0oW0NIM10pW0NIMl1bQ0gyXTQ=

>  <s_epik_cmdline>  (356) 
J2VwaWtfcHl0aG9uJywgJy1waHQnLCAnMi4wJywgJy1waCcsICc3LjAnLCAnLXRuJywgJzgnLCAnLW1hJywgJzIwMCcsICctaW1hZScsICc8aW5maWxlLm1hZT4nLCAnLW9tYWUnLCAnPG91dGZpbGUubWFlPic=

>  <r_lp_tautomer_probability>  (356) 
1

>  <r_epik_Ionization_Penalty>  (356) 
3.60857e-07

>  <r_epik_Ionization_Penalty_Charging>  (356) 
0

>  <r_epik_Ionization_Penalty_Neutral>  (356) 
3.60857e-07

>  <r_epik_State_Penalty>  (356) 
-0

>  <r_epik_Charging_Adjusted_Penalty>  (356) 
0

>  <i_epik_Tot_Q>  (356) 
0

>  <i_epik_Tot_abs_Q>  (356) 
0

>  <s_epik_Chemistry_Notes>  (356) 
This compound has an ester and may undergo hydrolysis at high or low pH.

>  <s_lp_Force_Field>  (356) 
OPLS3e

>  <r_lp_Energy>  (356) 
191.904

>  <b_lp_Chiralities_Consistent>  (356) 
1

>  <s_lp_Variant>  (356) 
83:0-1

>  <s_i_glide_gridfile>  (356) 
pfpi4k_grid

>  <i_i_glide_lignum>  (356) 
38

>  <i_i_glide_rotatable_bonds>  (356) 
4

>  <r_i_docking_score>  (356) 
-3.3349

>  <r_i_glide_ligand_efficiency>  (356) 
-0.133396

>  <r_i_glide_ligand_efficiency_sa>  (356) 
-0.390053

>  <r_i_glide_ligand_efficiency_ln>  (356) 
-0.790472

>  <r_i_glide_gscore>  (356) 
-3.3349

>  <r_i_glide_lipo>  (356) 
0

>  <r_i_glide_hbond>  (356) 
-0.338652

>  <r_i_glide_metal>  (356) 
-0

>  <r_i_glide_rewards>  (356) 
-1.03341

>  <r_i_glide_evdw>  (356) 
-17.7999

>  <r_i_glide_ecoul>  (356) 
-7.524

>  <r_i_glide_erotb>  (356) 
0.156801

>  <r_i_glide_esite>  (356) 
-0.101046

>  <r_i_glide_emodel>  (356) 
-30.3077

>  <r_i_glide_energy>  (356) 
-25.3239

>  <r_i_glide_einternal>  (356) 
1.21899

>  <r_i_glide_intrahb_reward>  (356) 
-0

>  <i_i_glide_confnum>  (356) 
4

>  <i_i_glide_posenum>  (356) 
1

>  <r_i_glide_eff_state_penalty>  (356) 
0

>  <ligand_id>  (356) 
83

>  <original_smiles>  (356) 
CC1C2C3CC2(C=O)C2(O)C14CCC(C)C2(CC4)C(CO)CC(=O)O3

>  <smiles>  (356) 
[H]OC([H])([H])C1([H])C([H])([H])C(=O)OC2([H])C([H])([H])C3(C([H])=O)C2([H])C([H])(C([H])([H])[H])C24C([H])([H])C([H])([H])C([H])(C([H])([H])[H])C1(C([H])([H])C2([H])[H])C34O[H]

$$$$
83:0:1
     RDKit          3D

 53 57  0  0  1  0  0  0  0  0999 V2000
   -2.7639    2.9867    6.9655 C   0  0  0  0  0  0  0  0  0  0  0  0
   -1.2498    3.0210    6.7134 C   0  0  2  0  0  0  0  0  0  0  0  0
   -0.8220    3.9004    5.4582 C   0  0  1  0  0  0  0  0  0  0  0  0
    0.5309    4.7467    5.0148 C   0  0  2  0  0  0  0  0  0  0  0  0
    0.1441    4.1629    3.6850 C   0  0  0  0  0  0  0  0  0  0  0  0
   -0.3076    2.8978    4.4698 C   0  0  2  0  0  0  0  0  0  0  0  0
   -1.3790    2.2927    3.5790 C   0  0  0  0  0  0  0  0  0  0  0  0
   -1.1798    1.5577    2.6055 O   0  0  0  0  0  0  0  0  0  0  0  0
    0.4587    1.9510    5.6062 C   0  0  1  0  0  0  0  0  0  0  0  0
    1.3224    2.5414    6.5924 O   0  0  0  0  0  0  0  0  0  0  0  0
   -0.6268    1.5564    6.5857 C   0  0  1  0  0  0  0  0  0  0  0  0
   -0.1340    0.9437    7.9400 C   0  0  0  0  0  0  0  0  0  0  0  0
    0.9060   -0.1890    7.7210 C   0  0  0  0  0  0  0  0  0  0  0  0
    1.8479   -0.0511    6.4774 C   0  0  1  0  0  0  0  0  0  0  0  0
    2.5087   -1.4315    6.2166 C   0  0  0  0  0  0  0  0  0  0  0  0
    1.1743    0.6623    5.2052 C   0  0  1  0  0  0  0  0  0  0  0  0
   -0.0840   -0.2070    4.8734 C   0  0  0  0  0  0  0  0  0  0  0  0
   -1.2386    0.3452    5.7959 C   0  0  0  0  0  0  0  0  0  0  0  0
    2.3004    1.0872    4.1461 C   0  0  1  0  0  0  0  0  0  0  0  0
    1.8884    1.1414    2.6537 C   0  0  0  0  0  0  0  0  0  0  0  0
    3.0137    0.9317    1.8305 O   0  0  0  0  0  0  0  0  0  0  0  0
    3.2461    2.3174    4.5483 C   0  0  0  0  0  0  0  0  0  0  0  0
    2.8316    3.8136    4.2797 C   0  0  0  0  0  0  0  0  0  0  0  0
    3.2653    4.4025    3.2950 O   0  0  0  0  0  0  0  0  0  0  0  0
    1.9677    4.4320    5.2109 O   0  0  0  0  0  0  0  0  0  0  0  0
   -3.3072    2.5536    6.1277 H   0  0  0  0  0  0  0  0  0  0  0  0
   -3.1454    3.9923    7.1332 H   0  0  0  0  0  0  0  0  0  0  0  0
   -2.9982    2.4027    7.8561 H   0  0  0  0  0  0  0  0  0  0  0  0
   -0.8284    3.5043    7.5941 H   0  0  0  0  0  0  0  0  0  0  0  0
   -1.6956    4.4698    5.1213 H   0  0  0  0  0  0  0  0  0  0  0  0
    0.3836    5.8264    5.0450 H   0  0  0  0  0  0  0  0  0  0  0  0
   -0.6700    4.7316    3.2253 H   0  0  0  0  0  0  0  0  0  0  0  0
    0.8540    4.0483    2.8780 H   0  0  0  0  0  0  0  0  0  0  0  0
   -2.4039    2.5876    3.8179 H   0  0  0  0  0  0  0  0  0  0  0  0
    2.0569    2.9525    6.1409 H   0  0  0  0  0  0  0  0  0  0  0  0
    0.2944    1.7022    8.5940 H   0  0  0  0  0  0  0  0  0  0  0  0
   -0.9815    0.5648    8.5148 H   0  0  0  0  0  0  0  0  0  0  0  0
    1.5144   -0.2906    8.6261 H   0  0  0  0  0  0  0  0  0  0  0  0
    0.3611   -1.1260    7.6393 H   0  0  0  0  0  0  0  0  0  0  0  0
    2.6854    0.5620    6.7998 H   0  0  0  0  0  0  0  0  0  0  0  0
    1.7790   -2.2013    5.9655 H   0  0  0  0  0  0  0  0  0  0  0  0
    3.0182   -1.7766    7.1176 H   0  0  0  0  0  0  0  0  0  0  0  0
    3.2542   -1.4161    5.4215 H   0  0  0  0  0  0  0  0  0  0  0  0
   -0.3640   -0.1889    3.8334 H   0  0  0  0  0  0  0  0  0  0  0  0
    0.0736   -1.2595    5.1010 H   0  0  0  0  0  0  0  0  0  0  0  0
   -1.5652   -0.4403    6.4777 H   0  0  0  0  0  0  0  0  0  0  0  0
   -2.1500    0.5813    5.2539 H   0  0  0  0  0  0  0  0  0  0  0  0
    2.9783    0.2415    4.1484 H   0  0  0  0  0  0  0  0  0  0  0  0
    1.1683    0.3631    2.4011 H   0  0  0  0  0  0  0  0  0  0  0  0
    1.4392    2.0824    2.3694 H   0  0  0  0  0  0  0  0  0  0  0  0
    3.6157    1.6632    1.9502 H   0  0  0  0  0  0  0  0  0  0  0  0
    3.5501    2.2378    5.5873 H   0  0  0  0  0  0  0  0  0  0  0  0
    4.1826    2.1839    4.0036 H   0  0  0  0  0  0  0  0  0  0  0  0
  1  2  1  0
  1 26  1  0
  1 27  1  0
  1 28  1  0
  2 11  1  0
  2  3  1  0
  2 29  1  1
  3  6  1  0
  3  4  1  0
  3 30  1  6
  4 25  1  0
  4  5  1  0
  4 31  1  6
  5  6  1  0
  5 32  1  0
  5 33  1  0
  6  7  1  6
  6  9  1  0
  7  8  2  0
  7 34  1  0
  9 16  1  0
  9 10  1  1
  9 11  1  0
 10 35  1  0
 11 18  1  6
 11 12  1  0
 12 13  1  0
 12 36  1  0
 12 37  1  0
 13 14  1  0
 13 38  1  0
 13 39  1  0
 14 15  1  0
 14 16  1  0
 14 40  1  1
 15 41  1  0
 15 42  1  0
 15 43  1  0
 16 17  1  6
 16 19  1  0
 17 18  1  0
 17 44  1  0
 17 45  1  0
 18 46  1  0
 18 47  1  0
 19 20  1  0
 19 22  1  0
 19 48  1  6
 20 21  1  0
 20 49  1  0
 20 50  1  0
 21 51  1  0
 22 23  1  0
 22 52  1  0
 22 53  1  0
 23 24  2  0
 23 25  1  0
M  END
>  <i_m_ct_stereo_status>  (357) 
1

>  <s_m_source_file>  (357) 
/var/tmp/pbs.5076255.sched01/tmp8hdfbsd6/1003312lgh9.sdf

>  <i_m_source_file_index>  (357) 
38

>  <i_lp_mmshare_version>  (357) 
48012

>  <i_f3d_flags>  (357) 
0

>  <s_epik_input>  (357) 
Tz1bQ0hdW0NAQF0xKFtDSDJdMilbQ0BASF0oW0NASF0zW0NIM10pW0NASF0yT0MoPU8pW0NIMl1bQ0BIXShbQ0gyXVtPSF0pW0NAQF0oW0NAQF0xKFtDQF0zNDUpW09IXSkoW0NIMl1bQ0gyXTUpW0NASF0oW0NIM10pW0NIMl1bQ0gyXTQ=

>  <s_epik_cmdline>  (357) 
J2VwaWtfcHl0aG9uJywgJy1waHQnLCAnMi4wJywgJy1waCcsICc3LjAnLCAnLXRuJywgJzgnLCAnLW1hJywgJzIwMCcsICctaW1hZScsICc8aW5maWxlLm1hZT4nLCAnLW9tYWUnLCAnPG91dGZpbGUubWFlPic=

>  <r_lp_tautomer_probability>  (357) 
1

>  <r_epik_Ionization_Penalty>  (357) 
3.60857e-07

>  <r_epik_Ionization_Penalty_Charging>  (357) 
0

>  <r_epik_Ionization_Penalty_Neutral>  (357) 
3.60857e-07

>  <r_epik_State_Penalty>  (357) 
-0

>  <r_epik_Charging_Adjusted_Penalty>  (357) 
0

>  <i_epik_Tot_Q>  (357) 
0

>  <i_epik_Tot_abs_Q>  (357) 
0

>  <s_epik_Chemistry_Notes>  (357) 
This compound has an ester and may undergo hydrolysis at high or low pH.

>  <s_lp_Force_Field>  (357) 
OPLS3e

>  <r_lp_Energy>  (357) 
191.904

>  <b_lp_Chiralities_Consistent>  (357) 
1

>  <s_lp_Variant>  (357) 
83:0-1

>  <s_i_glide_gridfile>  (357) 
pfpi4k_grid

>  <i_i_glide_lignum>  (357) 
38

>  <i_i_glide_rotatable_bonds>  (357) 
4

>  <r_i_docking_score>  (357) 
-2.2242

>  <r_i_glide_ligand_efficiency>  (357) 
-0.0889681

>  <r_i_glide_ligand_efficiency_sa>  (357) 
-0.260144

>  <r_i_glide_ligand_efficiency_ln>  (357) 
-0.527203

>  <r_i_glide_gscore>  (357) 
-2.2242

>  <r_i_glide_lipo>  (357) 
-0.188455

>  <r_i_glide_hbond>  (357) 
-0.266701

>  <r_i_glide_metal>  (357) 
-0

>  <r_i_glide_rewards>  (357) 
-1.03341

>  <r_i_glide_evdw>  (357) 
-18.2832

>  <r_i_glide_ecoul>  (357) 
0.469265

>  <r_i_glide_erotb>  (357) 
0.156801

>  <r_i_glide_esite>  (357) 
-0.0486684

>  <r_i_glide_emodel>  (357) 
-20.6516

>  <r_i_glide_energy>  (357) 
-17.8139

>  <r_i_glide_einternal>  (357) 
1.22212

>  <r_i_glide_intrahb_reward>  (357) 
-0

>  <i_i_glide_confnum>  (357) 
4

>  <i_i_glide_posenum>  (357) 
13

>  <r_i_glide_eff_state_penalty>  (357) 
0

>  <ligand_id>  (357) 
83

>  <original_smiles>  (357) 
CC1C2C3CC2(C=O)C2(O)C14CCC(C)C2(CC4)C(CO)CC(=O)O3

>  <smiles>  (357) 
[H]OC([H])([H])C1([H])C([H])([H])C(=O)OC2([H])C([H])([H])C3(C([H])=O)C2([H])C([H])(C([H])([H])[H])C24C([H])([H])C([H])([H])C([H])(C([H])([H])[H])C1(C([H])([H])C2([H])[H])C34O[H]

$$$$
83:0:2
     RDKit          3D

 53 57  0  0  1  0  0  0  0  0999 V2000
   -3.0838    3.0972    3.4121 C   0  0  0  0  0  0  0  0  0  0  0  0
   -1.9429    3.5629    4.3355 C   0  0  2  0  0  0  0  0  0  0  0  0
   -0.5642    3.8077    3.5755 C   0  0  1  0  0  0  0  0  0  0  0  0
    0.7636    4.7583    3.8086 C   0  0  2  0  0  0  0  0  0  0  0  0
    1.4510    3.5059    3.3233 C   0  0  0  0  0  0  0  0  0  0  0  0
    0.3322    2.7180    4.0732 C   0  0  2  0  0  0  0  0  0  0  0  0
    0.2222    1.4195    3.2877 C   0  0  0  0  0  0  0  0  0  0  0  0
    0.9698    0.4505    3.4148 O   0  0  0  0  0  0  0  0  0  0  0  0
   -0.2195    2.7968    5.6468 C   0  0  1  0  0  0  0  0  0  0  0  0
   -0.3246    4.0712    6.3263 O   0  0  0  0  0  0  0  0  0  0  0  0
   -1.7093    2.5602    5.5578 C   0  0  1  0  0  0  0  0  0  0  0  0
   -2.5350    2.9120    6.8407 C   0  0  0  0  0  0  0  0  0  0  0  0
   -1.9082    2.2875    8.1152 C   0  0  0  0  0  0  0  0  0  0  0  0
   -0.3476    2.1421    8.1476 C   0  0  1  0  0  0  0  0  0  0  0  0
    0.0236    1.1573    9.2819 C   0  0  0  0  0  0  0  0  0  0  0  0
    0.3163    1.8482    6.7149 C   0  0  1  0  0  0  0  0  0  0  0  0
   -0.3624    0.5302    6.2012 C   0  0  0  0  0  0  0  0  0  0  0  0
   -1.7000    0.9932    5.4986 C   0  0  0  0  0  0  0  0  0  0  0  0
    1.9005    2.0828    6.7789 C   0  0  1  0  0  0  0  0  0  0  0  0
    2.7754    1.2552    5.8119 C   0  0  0  0  0  0  0  0  0  0  0  0
    4.1316    1.3141    6.2041 O   0  0  0  0  0  0  0  0  0  0  0  0
    2.3961    3.6014    6.8928 C   0  0  0  0  0  0  0  0  0  0  0  0
    2.6070    4.5153    5.6248 C   0  0  0  0  0  0  0  0  0  0  0  0
    3.7263    4.6671    5.1637 O   0  0  0  0  0  0  0  0  0  0  0  0
    1.4543    5.1355    5.0657 O   0  0  0  0  0  0  0  0  0  0  0  0
   -2.8430    2.1519    2.9337 H   0  0  0  0  0  0  0  0  0  0  0  0
   -3.2852    3.8243    2.6254 H   0  0  0  0  0  0  0  0  0  0  0  0
   -4.0067    2.9539    3.9750 H   0  0  0  0  0  0  0  0  0  0  0  0
   -2.2622    4.5273    4.7314 H   0  0  0  0  0  0  0  0  0  0  0  0
   -0.7675    3.7358    2.5046 H   0  0  0  0  0  0  0  0  0  0  0  0
    0.8203    5.5645    3.0760 H   0  0  0  0  0  0  0  0  0  0  0  0
    1.4266    3.4256    2.2346 H   0  0  0  0  0  0  0  0  0  0  0  0
    2.4924    3.2879    3.5344 H   0  0  0  0  0  0  0  0  0  0  0  0
   -0.5717    1.4220    2.5374 H   0  0  0  0  0  0  0  0  0  0  0  0
    0.5409    4.4523    6.3644 H   0  0  0  0  0  0  0  0  0  0  0  0
   -2.6329    3.9887    6.9841 H   0  0  0  0  0  0  0  0  0  0  0  0
   -3.5654    2.5732    6.7249 H   0  0  0  0  0  0  0  0  0  0  0  0
   -2.2356    2.8655    8.9819 H   0  0  0  0  0  0  0  0  0  0  0  0
   -2.3579    1.3092    8.2541 H   0  0  0  0  0  0  0  0  0  0  0  0
    0.0305    3.0999    8.5061 H   0  0  0  0  0  0  0  0  0  0  0  0
   -0.3740    0.1602    9.1122 H   0  0  0  0  0  0  0  0  0  0  0  0
   -0.4054    1.5035   10.2212 H   0  0  0  0  0  0  0  0  0  0  0  0
    1.0953    1.0645    9.4363 H   0  0  0  0  0  0  0  0  0  0  0  0
    0.2698   -0.0373    5.5264 H   0  0  0  0  0  0  0  0  0  0  0  0
   -0.6191   -0.1370    7.0295 H   0  0  0  0  0  0  0  0  0  0  0  0
   -2.5695    0.5935    6.0249 H   0  0  0  0  0  0  0  0  0  0  0  0
   -1.8229    0.5950    4.5000 H   0  0  0  0  0  0  0  0  0  0  0  0
    2.1949    1.6594    7.7353 H   0  0  0  0  0  0  0  0  0  0  0  0
    2.4791    0.2065    5.8113 H   0  0  0  0  0  0  0  0  0  0  0  0
    2.7263    1.5993    4.7881 H   0  0  0  0  0  0  0  0  0  0  0  0
    4.6451    0.8533    5.5608 H   0  0  0  0  0  0  0  0  0  0  0  0
    1.7847    4.1548    7.5956 H   0  0  0  0  0  0  0  0  0  0  0  0
    3.3800    3.5781    7.3677 H   0  0  0  0  0  0  0  0  0  0  0  0
  1  2  1  0
  1 26  1  0
  1 27  1  0
  1 28  1  0
  2 11  1  0
  2  3  1  0
  2 29  1  1
  3  6  1  0
  3  4  1  0
  3 30  1  6
  4 25  1  0
  4  5  1  0
  4 31  1  6
  5  6  1  0
  5 32  1  0
  5 33  1  0
  6  7  1  6
  6  9  1  0
  7  8  2  0
  7 34  1  0
  9 16  1  0
  9 10  1  1
  9 11  1  0
 10 35  1  0
 11 18  1  6
 11 12  1  0
 12 13  1  0
 12 36  1  0
 12 37  1  0
 13 14  1  0
 13 38  1  0
 13 39  1  0
 14 15  1  0
 14 16  1  0
 14 40  1  1
 15 41  1  0
 15 42  1  0
 15 43  1  0
 16 17  1  6
 16 19  1  0
 17 18  1  0
 17 44  1  0
 17 45  1  0
 18 46  1  0
 18 47  1  0
 19 20  1  0
 19 22  1  0
 19 48  1  1
 20 21  1  0
 20 49  1  0
 20 50  1  0
 21 51  1  0
 22 23  1  0
 22 52  1  0
 22 53  1  0
 23 24  2  0
 23 25  1  0
M  END
>  <i_m_ct_stereo_status>  (358) 
1

>  <s_m_source_file>  (358) 
/var/tmp/pbs.5076255.sched01/tmp8hdfbsd6/1003312lgh9.sdf

>  <i_m_source_file_index>  (358) 
38

>  <i_lp_mmshare_version>  (358) 
48012

>  <i_f3d_flags>  (358) 
0

>  <s_epik_input>  (358) 
Tz1bQ0hdW0NAQF0xKFtDSDJdMilbQ0BASF0oW0NASF0zW0NIM10pW0NASF0yT0MoPU8pW0NIMl1bQ0BIXShbQ0gyXVtPSF0pW0NAQF0oW0NAQF0xKFtDQF0zNDUpW09IXSkoW0NIMl1bQ0gyXTUpW0NASF0oW0NIM10pW0NIMl1bQ0gyXTQ=

>  <s_epik_cmdline>  (358) 
J2VwaWtfcHl0aG9uJywgJy1waHQnLCAnMi4wJywgJy1waCcsICc3LjAnLCAnLXRuJywgJzgnLCAnLW1hJywgJzIwMCcsICctaW1hZScsICc8aW5maWxlLm1hZT4nLCAnLW9tYWUnLCAnPG91dGZpbGUubWFlPic=

>  <r_lp_tautomer_probability>  (358) 
1

>  <r_epik_Ionization_Penalty>  (358) 
3.60857e-07

>  <r_epik_Ionization_Penalty_Charging>  (358) 
0

>  <r_epik_Ionization_Penalty_Neutral>  (358) 
3.60857e-07

>  <r_epik_State_Penalty>  (358) 
-0

>  <r_epik_Charging_Adjusted_Penalty>  (358) 
0

>  <i_epik_Tot_Q>  (358) 
0

>  <i_epik_Tot_abs_Q>  (358) 
0

>  <s_epik_Chemistry_Notes>  (358) 
This compound has an ester and may undergo hydrolysis at high or low pH.

>  <s_lp_Force_Field>  (358) 
OPLS3e

>  <r_lp_Energy>  (358) 
191.904

>  <b_lp_Chiralities_Consistent>  (358) 
1

>  <s_lp_Variant>  (358) 
83:0-1

>  <s_i_glide_gridfile>  (358) 
pfpi4k_grid

>  <i_i_glide_lignum>  (358) 
38

>  <i_i_glide_rotatable_bonds>  (358) 
4

>  <r_i_docking_score>  (358) 
-2.08452

>  <r_i_glide_ligand_efficiency>  (358) 
-0.0833808

>  <r_i_glide_ligand_efficiency_sa>  (358) 
-0.243807

>  <r_i_glide_ligand_efficiency_ln>  (358) 
-0.494094

>  <r_i_glide_gscore>  (358) 
-2.08452

>  <r_i_glide_lipo>  (358) 
-0.179873

>  <r_i_glide_hbond>  (358) 
0

>  <r_i_glide_metal>  (358) 
-0

>  <r_i_glide_rewards>  (358) 
-1.03341

>  <r_i_glide_evdw>  (358) 
-16.9225

>  <r_i_glide_ecoul>  (358) 
-0.990513

>  <r_i_glide_erotb>  (358) 
0.156801

>  <r_i_glide_esite>  (358) 
-0.0333369

>  <r_i_glide_emodel>  (358) 
-20.6689

>  <r_i_glide_energy>  (358) 
-17.913

>  <r_i_glide_einternal>  (358) 
1.04548

>  <r_i_glide_intrahb_reward>  (358) 
-0

>  <i_i_glide_confnum>  (358) 
1

>  <i_i_glide_posenum>  (358) 
33

>  <r_i_glide_eff_state_penalty>  (358) 
0

>  <ligand_id>  (358) 
83

>  <original_smiles>  (358) 
CC1C2C3CC2(C=O)C2(O)C14CCC(C)C2(CC4)C(CO)CC(=O)O3

>  <smiles>  (358) 
[H]OC([H])([H])C1([H])C([H])([H])C(=O)OC2([H])C([H])([H])C3(C([H])=O)C2([H])C([H])(C([H])([H])[H])C24C([H])([H])C([H])([H])C([H])(C([H])([H])[H])C1(C([H])([H])C2([H])[H])C34O[H]

$$$$
85:0:0
     RDKit          3D

 77 81  0  0  1  0  0  0  0  0999 V2000
    4.7807   -4.5158   -0.7236 C   0  0  0  0  0  0  0  0  0  0  0  0
    4.1732   -4.7995    0.6605 C   0  0  0  0  0  0  0  0  0  0  0  0
    3.1691   -5.9579    0.5081 C   0  0  0  0  0  0  0  0  0  0  0  0
    5.3117   -5.2063    1.6316 C   0  0  0  0  0  0  0  0  0  0  0  0
    5.4337   -4.2763    2.8483 C   0  0  0  0  0  0  0  0  0  0  0  0
    4.0996   -4.0925    3.6121 C   0  0  1  0  0  0  0  0  0  0  0  0
    3.7716   -5.4616    4.2641 C   0  0  0  0  0  0  0  0  0  0  0  0
    4.3297   -3.0584    4.7415 C   0  0  0  0  0  0  0  0  0  0  0  0
    3.0439   -2.5903    5.4729 C   0  0  0  0  0  0  0  0  0  0  0  0
    1.7921   -2.3030    4.5693 C   0  0  2  0  0  0  0  0  0  0  0  0
    0.8115   -3.5123    4.6759 C   0  0  0  0  0  0  0  0  0  0  0  0
    2.3400   -2.2552    3.1359 C   0  0  0  0  0  0  0  0  0  0  0  0
    2.4040   -1.1009    2.4423 C   0  0  0  0  0  0  0  0  0  0  0  0
    2.0134    0.2539    2.9677 C   0  0  0  0  0  0  0  0  0  0  0  0
    1.7017    0.3360    4.4917 C   0  0  1  0  0  0  0  0  0  0  0  0
    0.9643    1.6972    4.8342 C   0  0  1  0  0  0  0  0  0  0  0  0
    1.0786    2.0294    6.3458 C   0  0  0  0  0  0  0  0  0  0  0  0
    1.6465    2.8784    4.1495 C   0  0  0  0  0  0  0  0  0  0  0  0
    1.0043    3.9843    3.7241 C   0  0  0  0  0  0  0  0  0  0  0  0
   -0.4481    4.1540    3.8949 C   0  0  0  0  0  0  0  0  0  0  0  0
   -0.9826    5.2390    3.6848 O   0  0  0  0  0  0  0  0  0  0  0  0
   -1.3339    2.9693    4.3681 C   0  0  0  0  0  0  0  0  0  0  0  0
   -1.9043    3.2713    5.7754 C   0  0  0  0  0  0  0  0  0  0  0  0
   -2.5435    2.9013    3.3979 C   0  0  0  0  0  0  0  0  0  0  0  0
   -0.5127    1.6351    4.3044 C   0  0  2  0  0  0  0  0  0  0  0  0
   -1.2432    0.3706    4.7982 C   0  0  0  0  0  0  0  0  0  0  0  0
   -0.4615   -0.9239    4.4782 C   0  0  0  0  0  0  0  0  0  0  0  0
    0.9996   -0.9753    5.0234 C   0  0  1  0  0  0  0  0  0  0  0  0
    0.9057   -1.0163    6.5812 C   0  0  0  0  0  0  0  0  0  0  0  0
    2.9753   -3.5764    2.6300 C   0  0  1  0  0  0  0  0  0  0  0  0
    3.4556   -3.5187    1.1530 C   0  0  0  0  0  0  0  0  0  0  0  0
    5.2753   -5.4042   -1.1177 H   0  0  0  0  0  0  0  0  0  0  0  0
    5.5204   -3.7157   -0.6810 H   0  0  0  0  0  0  0  0  0  0  0  0
    4.0149   -4.2263   -1.4447 H   0  0  0  0  0  0  0  0  0  0  0  0
    2.7014   -6.2288    1.4517 H   0  0  0  0  0  0  0  0  0  0  0  0
    3.6703   -6.8524    0.1322 H   0  0  0  0  0  0  0  0  0  0  0  0
    2.3700   -5.7088   -0.1914 H   0  0  0  0  0  0  0  0  0  0  0  0
    5.1742   -6.2347    1.9691 H   0  0  0  0  0  0  0  0  0  0  0  0
    6.2696   -5.2215    1.1084 H   0  0  0  0  0  0  0  0  0  0  0  0
    6.2082   -4.6607    3.5137 H   0  0  0  0  0  0  0  0  0  0  0  0
    5.8001   -3.3062    2.5120 H   0  0  0  0  0  0  0  0  0  0  0  0
    3.1067   -5.3767    5.1191 H   0  0  0  0  0  0  0  0  0  0  0  0
    4.6737   -5.9392    4.6478 H   0  0  0  0  0  0  0  0  0  0  0  0
    3.3217   -6.1623    3.5650 H   0  0  0  0  0  0  0  0  0  0  0  0
    5.0381   -3.4511    5.4707 H   0  0  0  0  0  0  0  0  0  0  0  0
    4.8092   -2.1772    4.3116 H   0  0  0  0  0  0  0  0  0  0  0  0
    2.7831   -3.3097    6.2492 H   0  0  0  0  0  0  0  0  0  0  0  0
    3.3454   -1.6914    6.0047 H   0  0  0  0  0  0  0  0  0  0  0  0
    0.2655   -3.5507    5.6167 H   0  0  0  0  0  0  0  0  0  0  0  0
    1.2920   -4.4784    4.5928 H   0  0  0  0  0  0  0  0  0  0  0  0
    0.0797   -3.4823    3.8724 H   0  0  0  0  0  0  0  0  0  0  0  0
    2.8126   -1.0669    1.4473 H   0  0  0  0  0  0  0  0  0  0  0  0
    2.8557    0.9093    2.7455 H   0  0  0  0  0  0  0  0  0  0  0  0
    1.1952    0.5849    2.3339 H   0  0  0  0  0  0  0  0  0  0  0  0
    2.6776    0.3739    4.9777 H   0  0  0  0  0  0  0  0  0  0  0  0
    0.2873    1.5955    6.9493 H   0  0  0  0  0  0  0  0  0  0  0  0
    1.0368    3.1030    6.5360 H   0  0  0  0  0  0  0  0  0  0  0  0
    2.0357    1.7047    6.7498 H   0  0  0  0  0  0  0  0  0  0  0  0
    2.7208    2.8119    4.0224 H   0  0  0  0  0  0  0  0  0  0  0  0
    1.5339    4.7993    3.2469 H   0  0  0  0  0  0  0  0  0  0  0  0
   -2.5057    2.4453    6.1662 H   0  0  0  0  0  0  0  0  0  0  0  0
   -2.5678    4.1321    5.7405 H   0  0  0  0  0  0  0  0  0  0  0  0
   -1.1285    3.5007    6.5048 H   0  0  0  0  0  0  0  0  0  0  0  0
   -3.2737    2.1505    3.7031 H   0  0  0  0  0  0  0  0  0  0  0  0
   -2.2233    2.6465    2.3881 H   0  0  0  0  0  0  0  0  0  0  0  0
   -3.0845    3.8448    3.3192 H   0  0  0  0  0  0  0  0  0  0  0  0
   -0.4387    1.4754    3.2311 H   0  0  0  0  0  0  0  0  0  0  0  0
   -1.4723    0.4406    5.8591 H   0  0  0  0  0  0  0  0  0  0  0  0
   -2.2073    0.2953    4.3018 H   0  0  0  0  0  0  0  0  0  0  0  0
   -1.0603   -1.7593    4.8411 H   0  0  0  0  0  0  0  0  0  0  0  0
   -0.4200   -1.0213    3.3949 H   0  0  0  0  0  0  0  0  0  0  0  0
    0.0415   -0.5005    6.9823 H   0  0  0  0  0  0  0  0  0  0  0  0
    1.7847   -0.5819    7.0547 H   0  0  0  0  0  0  0  0  0  0  0  0
    0.8157   -2.0264    6.9738 H   0  0  0  0  0  0  0  0  0  0  0  0
    2.1697   -4.3080    2.6217 H   0  0  0  0  0  0  0  0  0  0  0  0
    4.1520   -2.6881    1.0260 H   0  0  0  0  0  0  0  0  0  0  0  0
    2.6116   -3.3035    0.4960 H   0  0  0  0  0  0  0  0  0  0  0  0
  1  2  1  0
  1 32  1  0
  1 33  1  0
  1 34  1  0
  2 31  1  0
  2  3  1  0
  2  4  1  0
  3 35  1  0
  3 36  1  0
  3 37  1  0
  4  5  1  0
  4 38  1  0
  4 39  1  0
  5  6  1  0
  5 40  1  0
  5 41  1  0
  6 30  1  0
  6  7  1  1
  6  8  1  0
  7 42  1  0
  7 43  1  0
  7 44  1  0
  8  9  1  0
  8 45  1  0
  8 46  1  0
  9 10  1  0
  9 47  1  0
  9 48  1  0
 10 28  1  0
 10 11  1  6
 10 12  1  0
 11 49  1  0
 11 50  1  0
 11 51  1  0
 12 13  2  0
 12 30  1  0
 13 14  1  0
 13 52  1  0
 14 15  1  0
 14 53  1  0
 14 54  1  0
 15 28  1  0
 15 16  1  0
 15 55  1  1
 16 25  1  0
 16 17  1  1
 16 18  1  0
 17 56  1  0
 17 57  1  0
 17 58  1  0
 18 19  2  0
 18 59  1  0
 19 20  1  0
 19 60  1  0
 20 21  2  0
 20 22  1  0
 22 23  1  0
 22 24  1  0
 22 25  1  0
 23 61  1  0
 23 62  1  0
 23 63  1  0
 24 64  1  0
 24 65  1  0
 24 66  1  0
 25 26  1  0
 25 67  1  6
 26 27  1  0
 26 68  1  0
 26 69  1  0
 27 28  1  0
 27 70  1  0
 27 71  1  0
 28 29  1  1
 29 72  1  0
 29 73  1  0
 29 74  1  0
 30 31  1  0
 30 75  1  6
 31 76  1  0
 31 77  1  0
M  END
>  <i_m_ct_stereo_status>  (359) 
1

>  <s_m_source_file>  (359) 
/var/tmp/pbs.5076255.sched01/tmp8hdfbsd6/1003312lgh9.sdf

>  <i_m_source_file_index>  (359) 
43

>  <i_lp_mmshare_version>  (359) 
48012

>  <i_f3d_flags>  (359) 
0

>  <s_epik_input>  (359) 
W0NIMl0xW0NIMl1DKFtDSDNdKShbQ0gzXSlbQ0gyXVtDQEBIXShbQ0BAXTEyW0NIM10pQz0zW0NAQF0oW0NIM10pKFtDSDJdW0NIMl0yKVtDQEBdNChbQ0gzXSlbQ0BASF0oW0NIMl1bQ0hdMylbQ0BdNShbQ0gzXSlbQ0BASF0oW0NIMl1bQ0gyXTQpQyhbQ0gzXSkoW0NIM10pQyg9TylbQ0hdPVtDSF01

>  <s_epik_cmdline>  (359) 
J2VwaWtfcHl0aG9uJywgJy1waHQnLCAnMi4wJywgJy1waCcsICc3LjAnLCAnLXRuJywgJzgnLCAnLW1hJywgJzIwMCcsICctaW1hZScsICc8aW5maWxlLm1hZT4nLCAnLW9tYWUnLCAnPG91dGZpbGUubWFlPic=

>  <r_lp_tautomer_probability>  (359) 
1

>  <r_epik_Ionization_Penalty>  (359) 
0

>  <r_epik_Ionization_Penalty_Charging>  (359) 
0

>  <r_epik_Ionization_Penalty_Neutral>  (359) 
0

>  <r_epik_State_Penalty>  (359) 
-0

>  <r_epik_Charging_Adjusted_Penalty>  (359) 
0

>  <i_epik_Tot_Q>  (359) 
0

>  <i_epik_Tot_abs_Q>  (359) 
0

>  <s_lp_Force_Field>  (359) 
OPLS3e

>  <r_lp_Energy>  (359) 
96.6376

>  <b_lp_Chiralities_Consistent>  (359) 
1

>  <s_lp_Variant>  (359) 
85:0-1

>  <s_i_glide_gridfile>  (359) 
pfpi4k_grid

>  <i_i_glide_lignum>  (359) 
43

>  <i_i_glide_rotatable_bonds>  (359) 
0

>  <r_i_docking_score>  (359) 
-2.72487

>  <r_i_glide_ligand_efficiency>  (359) 
-0.0878991

>  <r_i_glide_ligand_efficiency_sa>  (359) 
-0.276125

>  <r_i_glide_ligand_efficiency_ln>  (359) 
-0.614542

>  <r_i_glide_gscore>  (359) 
-2.72487

>  <r_i_glide_lipo>  (359) 
-0.126851

>  <r_i_glide_hbond>  (359) 
-0.130671

>  <r_i_glide_metal>  (359) 
-0

>  <r_i_glide_rewards>  (359) 
-0.527143

>  <r_i_glide_evdw>  (359) 
-26.4578

>  <r_i_glide_ecoul>  (359) 
-3.50685

>  <r_i_glide_erotb>  (359) 
0

>  <r_i_glide_esite>  (359) 
-0.0912908

>  <r_i_glide_emodel>  (359) 
-34.935

>  <r_i_glide_energy>  (359) 
-29.9646

>  <r_i_glide_einternal>  (359) 
0

>  <r_i_glide_intrahb_reward>  (359) 
-0

>  <i_i_glide_confnum>  (359) 
2

>  <i_i_glide_posenum>  (359) 
38

>  <r_i_glide_eff_state_penalty>  (359) 
0

>  <ligand_id>  (359) 
85

>  <original_smiles>  (359) 
CC1(C)CCC2(C)CCC3(C)C(=CCC4C5(C)C=CC(=O)C(C)(C)C5CCC43C)C2C1

>  <smiles>  (359) 
[H]C1=C([H])C2(C([H])([H])[H])C([H])(C([H])([H])C([H])([H])C3(C([H])([H])[H])C2([H])C([H])([H])C([H])=C2C4([H])C([H])([H])C(C([H])([H])[H])(C([H])([H])[H])C([H])([H])C([H])([H])C4(C([H])([H])[H])C([H])([H])C([H])([H])C23C([H])([H])[H])C(C([H])([H])[H])(C([H])([H])[H])C1=O

$$$$
85:0:1
     RDKit          3D

 77 81  0  0  1  0  0  0  0  0999 V2000
   -1.8022   -9.0046    2.8604 C   0  0  0  0  0  0  0  0  0  0  0  0
   -0.4580   -8.9255    3.6036 C   0  0  0  0  0  0  0  0  0  0  0  0
   -0.6664   -8.5397    5.1021 C   0  0  0  0  0  0  0  0  0  0  0  0
    0.2816  -10.2916    3.4920 C   0  0  0  0  0  0  0  0  0  0  0  0
    1.6296  -10.2100    2.7967 C   0  0  0  0  0  0  0  0  0  0  0  0
    2.5480   -9.1485    3.4129 C   0  0  1  0  0  0  0  0  0  0  0  0
    2.9295   -9.6858    4.8083 C   0  0  0  0  0  0  0  0  0  0  0  0
    3.8196   -9.0790    2.5411 C   0  0  0  0  0  0  0  0  0  0  0  0
    4.7692   -7.9116    2.8980 C   0  0  0  0  0  0  0  0  0  0  0  0
    4.0910   -6.5253    3.2007 C   0  0  2  0  0  0  0  0  0  0  0  0
    4.0576   -6.3010    4.7424 C   0  0  0  0  0  0  0  0  0  0  0  0
    2.6480   -6.6709    2.6929 C   0  0  0  0  0  0  0  0  0  0  0  0
    2.2137   -6.0284    1.6025 C   0  0  0  0  0  0  0  0  0  0  0  0
    3.0402   -5.1386    0.7357 C   0  0  0  0  0  0  0  0  0  0  0  0
    4.5699   -5.1678    1.0056 C   0  0  1  0  0  0  0  0  0  0  0  0
    5.2544   -3.9624    0.2893 C   0  0  1  0  0  0  0  0  0  0  0  0
    6.7911   -4.1665    0.1616 C   0  0  0  0  0  0  0  0  0  0  0  0
    4.7603   -3.9040   -1.1509 C   0  0  0  0  0  0  0  0  0  0  0  0
    4.6025   -2.7383   -1.8327 C   0  0  0  0  0  0  0  0  0  0  0  0
    4.9288   -1.4586   -1.2198 C   0  0  0  0  0  0  0  0  0  0  0  0
    4.9847   -0.4587   -1.9319 O   0  0  0  0  0  0  0  0  0  0  0  0
    5.2597   -1.3369    0.2992 C   0  0  0  0  0  0  0  0  0  0  0  0
    6.7515   -1.0482    0.4726 C   0  0  0  0  0  0  0  0  0  0  0  0
    4.5070   -0.1449    0.9603 C   0  0  0  0  0  0  0  0  0  0  0  0
    4.8406   -2.6368    1.0147 C   0  0  2  0  0  0  0  0  0  0  0  0
    5.1467   -2.7062    2.5241 C   0  0  0  0  0  0  0  0  0  0  0  0
    4.5196   -3.9359    3.1993 C   0  0  0  0  0  0  0  0  0  0  0  0
    4.8832   -5.3114    2.5395 C   0  0  1  0  0  0  0  0  0  0  0  0
    6.3881   -5.5885    2.7938 C   0  0  0  0  0  0  0  0  0  0  0  0
    1.8236   -7.7509    3.4230 C   0  0  1  0  0  0  0  0  0  0  0  0
    0.3558   -7.8110    2.9405 C   0  0  0  0  0  0  0  0  0  0  0  0
   -2.4218   -9.8125    3.2680 H   0  0  0  0  0  0  0  0  0  0  0  0
   -1.6566   -9.2051    1.7886 H   0  0  0  0  0  0  0  0  0  0  0  0
   -2.3615   -8.0741    2.9535 H   0  0  0  0  0  0  0  0  0  0  0  0
    0.2693   -8.4551    5.6462 H   0  0  0  0  0  0  0  0  0  0  0  0
   -1.2379   -9.2662    5.6673 H   0  0  0  0  0  0  0  0  0  0  0  0
   -1.2006   -7.5944    5.1713 H   0  0  0  0  0  0  0  0  0  0  0  0
    0.3488  -10.7416    4.4972 H   0  0  0  0  0  0  0  0  0  0  0  0
   -0.2490  -11.0404    2.8914 H   0  0  0  0  0  0  0  0  0  0  0  0
    2.1041  -11.1884    2.8146 H   0  0  0  0  0  0  0  0  0  0  0  0
    1.4687   -9.9702    1.7458 H   0  0  0  0  0  0  0  0  0  0  0  0
    3.8521   -9.2625    5.1991 H   0  0  0  0  0  0  0  0  0  0  0  0
    3.0883  -10.7673    4.7797 H   0  0  0  0  0  0  0  0  0  0  0  0
    2.1428   -9.5218    5.5408 H   0  0  0  0  0  0  0  0  0  0  0  0
    4.3759  -10.0188    2.6111 H   0  0  0  0  0  0  0  0  0  0  0  0
    3.5275   -8.9646    1.4987 H   0  0  0  0  0  0  0  0  0  0  0  0
    5.3908   -8.1872    3.7507 H   0  0  0  0  0  0  0  0  0  0  0  0
    5.4380   -7.8429    2.0442 H   0  0  0  0  0  0  0  0  0  0  0  0
    5.0326   -6.0608    5.1539 H   0  0  0  0  0  0  0  0  0  0  0  0
    3.7320   -7.1755    5.2927 H   0  0  0  0  0  0  0  0  0  0  0  0
    3.3735   -5.4973    5.0064 H   0  0  0  0  0  0  0  0  0  0  0  0
    1.2167   -6.1718    1.2171 H   0  0  0  0  0  0  0  0  0  0  0  0
    2.8619   -5.4771   -0.2848 H   0  0  0  0  0  0  0  0  0  0  0  0
    2.5939   -4.1511    0.8465 H   0  0  0  0  0  0  0  0  0  0  0  0
    4.9432   -6.0796    0.5228 H   0  0  0  0  0  0  0  0  0  0  0  0
    7.3831   -3.7914    0.9909 H   0  0  0  0  0  0  0  0  0  0  0  0
    7.1999   -3.6805   -0.7255 H   0  0  0  0  0  0  0  0  0  0  0  0
    7.0204   -5.2248    0.0493 H   0  0  0  0  0  0  0  0  0  0  0  0
    4.5822   -4.8552   -1.6392 H   0  0  0  0  0  0  0  0  0  0  0  0
    4.2643   -2.7028   -2.8536 H   0  0  0  0  0  0  0  0  0  0  0  0
    7.0396   -0.9906    1.5243 H   0  0  0  0  0  0  0  0  0  0  0  0
    6.9205   -0.0246    0.1261 H   0  0  0  0  0  0  0  0  0  0  0  0
    7.4743   -1.7008   -0.0357 H   0  0  0  0  0  0  0  0  0  0  0  0
    4.7478   -0.0429    2.0212 H   0  0  0  0  0  0  0  0  0  0  0  0
    3.4296   -0.3179    0.9076 H   0  0  0  0  0  0  0  0  0  0  0  0
    4.7041    0.8037    0.4766 H   0  0  0  0  0  0  0  0  0  0  0  0
    3.7612   -2.5518    0.9618 H   0  0  0  0  0  0  0  0  0  0  0  0
    6.2163   -2.6978    2.6817 H   0  0  0  0  0  0  0  0  0  0  0  0
    4.7757   -1.8246    3.0459 H   0  0  0  0  0  0  0  0  0  0  0  0
    4.8394   -3.9121    4.2397 H   0  0  0  0  0  0  0  0  0  0  0  0
    3.4278   -3.8063    3.1834 H   0  0  0  0  0  0  0  0  0  0  0  0
    6.9559   -4.6793    2.8021 H   0  0  0  0  0  0  0  0  0  0  0  0
    6.8200   -6.2512    2.0396 H   0  0  0  0  0  0  0  0  0  0  0  0
    6.5766   -6.0500    3.7579 H   0  0  0  0  0  0  0  0  0  0  0  0
    1.7784   -7.4166    4.4633 H   0  0  0  0  0  0  0  0  0  0  0  0
    0.3309   -7.9489    1.8638 H   0  0  0  0  0  0  0  0  0  0  0  0
   -0.1041   -6.8446    3.1523 H   0  0  0  0  0  0  0  0  0  0  0  0
  1  2  1  0
  1 32  1  0
  1 33  1  0
  1 34  1  0
  2 31  1  0
  2  3  1  0
  2  4  1  0
  3 35  1  0
  3 36  1  0
  3 37  1  0
  4  5  1  0
  4 38  1  0
  4 39  1  0
  5  6  1  0
  5 40  1  0
  5 41  1  0
  6 30  1  0
  6  7  1  1
  6  8  1  0
  7 42  1  0
  7 43  1  0
  7 44  1  0
  8  9  1  0
  8 45  1  0
  8 46  1  0
  9 10  1  0
  9 47  1  0
  9 48  1  0
 10 28  1  0
 10 11  1  1
 10 12  1  0
 11 49  1  0
 11 50  1  0
 11 51  1  0
 12 13  2  0
 12 30  1  0
 13 14  1  0
 13 52  1  0
 14 15  1  0
 14 53  1  0
 14 54  1  0
 15 28  1  0
 15 16  1  0
 15 55  1  6
 16 25  1  0
 16 17  1  6
 16 18  1  0
 17 56  1  0
 17 57  1  0
 17 58  1  0
 18 19  2  0
 18 59  1  0
 19 20  1  0
 19 60  1  0
 20 21  2  0
 20 22  1  0
 22 23  1  0
 22 24  1  0
 22 25  1  0
 23 61  1  0
 23 62  1  0
 23 63  1  0
 24 64  1  0
 24 65  1  0
 24 66  1  0
 25 26  1  0
 25 67  1  1
 26 27  1  0
 26 68  1  0
 26 69  1  0
 27 28  1  0
 27 70  1  0
 27 71  1  0
 28 29  1  6
 29 72  1  0
 29 73  1  0
 29 74  1  0
 30 31  1  0
 30 75  1  1
 31 76  1  0
 31 77  1  0
M  END
>  <i_m_ct_stereo_status>  (360) 
1

>  <s_m_source_file>  (360) 
/var/tmp/pbs.5076255.sched01/tmp8hdfbsd6/1003312lgh9.sdf

>  <i_m_source_file_index>  (360) 
43

>  <i_lp_mmshare_version>  (360) 
48012

>  <i_f3d_flags>  (360) 
0

>  <s_epik_input>  (360) 
W0NIMl0xW0NIMl1DKFtDSDNdKShbQ0gzXSlbQ0gyXVtDQEBIXShbQ0BAXTEyW0NIM10pQz0zW0NAQF0oW0NIM10pKFtDSDJdW0NIMl0yKVtDQEBdNChbQ0gzXSlbQ0BASF0oW0NIMl1bQ0hdMylbQ0BdNShbQ0gzXSlbQ0BASF0oW0NIMl1bQ0gyXTQpQyhbQ0gzXSkoW0NIM10pQyg9TylbQ0hdPVtDSF01

>  <s_epik_cmdline>  (360) 
J2VwaWtfcHl0aG9uJywgJy1waHQnLCAnMi4wJywgJy1waCcsICc3LjAnLCAnLXRuJywgJzgnLCAnLW1hJywgJzIwMCcsICctaW1hZScsICc8aW5maWxlLm1hZT4nLCAnLW9tYWUnLCAnPG91dGZpbGUubWFlPic=

>  <r_lp_tautomer_probability>  (360) 
1

>  <r_epik_Ionization_Penalty>  (360) 
0

>  <r_epik_Ionization_Penalty_Charging>  (360) 
0

>  <r_epik_Ionization_Penalty_Neutral>  (360) 
0

>  <r_epik_State_Penalty>  (360) 
-0

>  <r_epik_Charging_Adjusted_Penalty>  (360) 
0

>  <i_epik_Tot_Q>  (360) 
0

>  <i_epik_Tot_abs_Q>  (360) 
0

>  <s_lp_Force_Field>  (360) 
OPLS3e

>  <r_lp_Energy>  (360) 
96.6376

>  <b_lp_Chiralities_Consistent>  (360) 
1

>  <s_lp_Variant>  (360) 
85:0-1

>  <s_i_glide_gridfile>  (360) 
pfpi4k_grid

>  <i_i_glide_lignum>  (360) 
43

>  <i_i_glide_rotatable_bonds>  (360) 
0

>  <r_i_docking_score>  (360) 
-2.67012

>  <r_i_glide_ligand_efficiency>  (360) 
-0.086133

>  <r_i_glide_ligand_efficiency_sa>  (360) 
-0.270577

>  <r_i_glide_ligand_efficiency_ln>  (360) 
-0.602195

>  <r_i_glide_gscore>  (360) 
-2.67012

>  <r_i_glide_lipo>  (360) 
-0.594858

>  <r_i_glide_hbond>  (360) 
0

>  <r_i_glide_metal>  (360) 
-0

>  <r_i_glide_rewards>  (360) 
-0.527143

>  <r_i_glide_evdw>  (360) 
-29.1058

>  <r_i_glide_ecoul>  (360) 
-0.350857

>  <r_i_glide_erotb>  (360) 
0

>  <r_i_glide_esite>  (360) 
-0.0402037

>  <r_i_glide_emodel>  (360) 
-33.3435

>  <r_i_glide_energy>  (360) 
-29.4567

>  <r_i_glide_einternal>  (360) 
0

>  <r_i_glide_intrahb_reward>  (360) 
-0

>  <i_i_glide_confnum>  (360) 
1

>  <i_i_glide_posenum>  (360) 
21

>  <r_i_glide_eff_state_penalty>  (360) 
0

>  <ligand_id>  (360) 
85

>  <original_smiles>  (360) 
CC1(C)CCC2(C)CCC3(C)C(=CCC4C5(C)C=CC(=O)C(C)(C)C5CCC43C)C2C1

>  <smiles>  (360) 
[H]C1=C([H])C2(C([H])([H])[H])C([H])(C([H])([H])C([H])([H])C3(C([H])([H])[H])C2([H])C([H])([H])C([H])=C2C4([H])C([H])([H])C(C([H])([H])[H])(C([H])([H])[H])C([H])([H])C([H])([H])C4(C([H])([H])[H])C([H])([H])C([H])([H])C23C([H])([H])[H])C(C([H])([H])[H])(C([H])([H])[H])C1=O

$$$$
85:0:2
     RDKit          3D

 77 81  0  0  1  0  0  0  0  0999 V2000
    3.2735   -8.1549    4.7949 C   0  0  0  0  0  0  0  0  0  0  0  0
    4.0231   -7.1617    3.8824 C   0  0  0  0  0  0  0  0  0  0  0  0
    5.5109   -7.1552    4.3037 C   0  0  0  0  0  0  0  0  0  0  0  0
    3.8818   -7.6269    2.4076 C   0  0  0  0  0  0  0  0  0  0  0  0
    3.1974   -6.5871    1.5029 C   0  0  0  0  0  0  0  0  0  0  0  0
    3.8649   -5.1876    1.5660 C   0  0  1  0  0  0  0  0  0  0  0  0
    5.2736   -5.3291    0.9264 C   0  0  0  0  0  0  0  0  0  0  0  0
    3.0377   -4.2136    0.6898 C   0  0  0  0  0  0  0  0  0  0  0  0
    3.4300   -2.7166    0.8238 C   0  0  0  0  0  0  0  0  0  0  0  0
    3.7324   -2.1976    2.2773 C   0  0  2  0  0  0  0  0  0  0  0  0
    5.2801   -2.1000    2.4656 C   0  0  0  0  0  0  0  0  0  0  0  0
    3.1975   -3.2993    3.2072 C   0  0  0  0  0  0  0  0  0  0  0  0
    2.1062   -3.1113    3.9658 C   0  0  0  0  0  0  0  0  0  0  0  0
    1.2503   -1.8698    3.9817 C   0  0  0  0  0  0  0  0  0  0  0  0
    1.5595   -0.8117    2.8810 C   0  0  1  0  0  0  0  0  0  0  0  0
    0.8640    0.5743    3.2292 C   0  0  1  0  0  0  0  0  0  0  0  0
    0.7294    1.4539    1.9587 C   0  0  0  0  0  0  0  0  0  0  0  0
   -0.5740    0.3776    3.6983 C   0  0  0  0  0  0  0  0  0  0  0  0
   -1.2181    1.1730    4.5724 C   0  0  0  0  0  0  0  0  0  0  0  0
   -0.5685    2.3389    5.1887 C   0  0  0  0  0  0  0  0  0  0  0  0
   -1.2243    3.1553    5.8402 O   0  0  0  0  0  0  0  0  0  0  0  0
    0.9567    2.5549    5.0219 C   0  0  0  0  0  0  0  0  0  0  0  0
    1.1781    3.8389    4.1873 C   0  0  0  0  0  0  0  0  0  0  0  0
    1.5390    2.8079    6.4394 C   0  0  0  0  0  0  0  0  0  0  0  0
    1.6293    1.2712    4.4071 C   0  0  2  0  0  0  0  0  0  0  0  0
    3.1457    1.3597    4.1353 C   0  0  0  0  0  0  0  0  0  0  0  0
    3.7614   -0.0142    3.7738 C   0  0  0  0  0  0  0  0  0  0  0  0
    3.1034   -0.7395    2.5540 C   0  0  1  0  0  0  0  0  0  0  0  0
    3.3985    0.1203    1.2837 C   0  0  0  0  0  0  0  0  0  0  0  0
    3.8988   -4.6770    3.0602 C   0  0  1  0  0  0  0  0  0  0  0  0
    3.3972   -5.7530    4.0681 C   0  0  0  0  0  0  0  0  0  0  0  0
    3.6825   -9.1639    4.7123 H   0  0  0  0  0  0  0  0  0  0  0  0
    2.2163   -8.2103    4.5291 H   0  0  0  0  0  0  0  0  0  0  0  0
    3.3348   -7.8589    5.8430 H   0  0  0  0  0  0  0  0  0  0  0  0
    6.1066   -6.4791    3.6921 H   0  0  0  0  0  0  0  0  0  0  0  0
    5.9565   -8.1477    4.2107 H   0  0  0  0  0  0  0  0  0  0  0  0
    5.6277   -6.8376    5.3409 H   0  0  0  0  0  0  0  0  0  0  0  0
    4.8583   -7.8819    1.9924 H   0  0  0  0  0  0  0  0  0  0  0  0
    3.3115   -8.5556    2.3502 H   0  0  0  0  0  0  0  0  0  0  0  0
    3.1936   -6.9572    0.4801 H   0  0  0  0  0  0  0  0  0  0  0  0
    2.1439   -6.5091    1.7783 H   0  0  0  0  0  0  0  0  0  0  0  0
    5.6717   -4.3847    0.5634 H   0  0  0  0  0  0  0  0  0  0  0  0
    5.2471   -5.9842    0.0538 H   0  0  0  0  0  0  0  0  0  0  0  0
    6.0030   -5.7505    1.6151 H   0  0  0  0  0  0  0  0  0  0  0  0
    3.0826   -4.5132   -0.3589 H   0  0  0  0  0  0  0  0  0  0  0  0
    1.9910   -4.3083    0.9792 H   0  0  0  0  0  0  0  0  0  0  0  0
    4.2740   -2.5009    0.1686 H   0  0  0  0  0  0  0  0  0  0  0  0
    2.5913   -2.1754    0.3908 H   0  0  0  0  0  0  0  0  0  0  0  0
    5.7271   -1.2554    1.9461 H   0  0  0  0  0  0  0  0  0  0  0  0
    5.8192   -2.9662    2.1031 H   0  0  0  0  0  0  0  0  0  0  0  0
    5.5438   -2.0107    3.5187 H   0  0  0  0  0  0  0  0  0  0  0  0
    1.7236   -3.8979    4.5960 H   0  0  0  0  0  0  0  0  0  0  0  0
    0.2239   -2.2159    3.8597 H   0  0  0  0  0  0  0  0  0  0  0  0
    1.3266   -1.4738    4.9909 H   0  0  0  0  0  0  0  0  0  0  0  0
    1.0790   -1.1932    1.9784 H   0  0  0  0  0  0  0  0  0  0  0  0
    1.5914    2.0882    1.7716 H   0  0  0  0  0  0  0  0  0  0  0  0
   -0.1208    2.1346    2.0127 H   0  0  0  0  0  0  0  0  0  0  0  0
    0.5534    0.8523    1.0670 H   0  0  0  0  0  0  0  0  0  0  0  0
   -1.1155   -0.4542    3.2821 H   0  0  0  0  0  0  0  0  0  0  0  0
   -2.2460    0.9776    4.8308 H   0  0  0  0  0  0  0  0  0  0  0  0
    2.2365    4.0432    4.0230 H   0  0  0  0  0  0  0  0  0  0  0  0
    0.7601    4.7137    4.6893 H   0  0  0  0  0  0  0  0  0  0  0  0
    0.6951    3.7938    3.2131 H   0  0  0  0  0  0  0  0  0  0  0  0
    2.5976    3.0713    6.4132 H   0  0  0  0  0  0  0  0  0  0  0  0
    1.4329    1.9256    7.0757 H   0  0  0  0  0  0  0  0  0  0  0  0
    1.0338    3.6278    6.9541 H   0  0  0  0  0  0  0  0  0  0  0  0
    1.5737    0.5706    5.2372 H   0  0  0  0  0  0  0  0  0  0  0  0
    3.3550    2.1030    3.3677 H   0  0  0  0  0  0  0  0  0  0  0  0
    3.6584    1.7240    5.0239 H   0  0  0  0  0  0  0  0  0  0  0  0
    4.8240    0.1591    3.6059 H   0  0  0  0  0  0  0  0  0  0  0  0
    3.6942   -0.6580    4.6523 H   0  0  0  0  0  0  0  0  0  0  0  0
    3.4706    1.1818    1.4825 H   0  0  0  0  0  0  0  0  0  0  0  0
    2.6302   -0.0066    0.5221 H   0  0  0  0  0  0  0  0  0  0  0  0
    4.3455   -0.1227    0.8064 H   0  0  0  0  0  0  0  0  0  0  0  0
    4.9368   -4.5141    3.3383 H   0  0  0  0  0  0  0  0  0  0  0  0
    2.3158   -5.8618    3.9735 H   0  0  0  0  0  0  0  0  0  0  0  0
    3.5767   -5.4102    5.0873 H   0  0  0  0  0  0  0  0  0  0  0  0
  1  2  1  0
  1 32  1  0
  1 33  1  0
  1 34  1  0
  2 31  1  0
  2  3  1  0
  2  4  1  0
  3 35  1  0
  3 36  1  0
  3 37  1  0
  4  5  1  0
  4 38  1  0
  4 39  1  0
  5  6  1  0
  5 40  1  0
  5 41  1  0
  6 30  1  0
  6  7  1  6
  6  8  1  0
  7 42  1  0
  7 43  1  0
  7 44  1  0
  8  9  1  0
  8 45  1  0
  8 46  1  0
  9 10  1  0
  9 47  1  0
  9 48  1  0
 10 28  1  0
 10 11  1  6
 10 12  1  0
 11 49  1  0
 11 50  1  0
 11 51  1  0
 12 13  2  0
 12 30  1  0
 13 14  1  0
 13 52  1  0
 14 15  1  0
 14 53  1  0
 14 54  1  0
 15 28  1  0
 15 16  1  0
 15 55  1  6
 16 25  1  0
 16 17  1  6
 16 18  1  0
 17 56  1  0
 17 57  1  0
 17 58  1  0
 18 19  2  0
 18 59  1  0
 19 20  1  0
 19 60  1  0
 20 21  2  0
 20 22  1  0
 22 23  1  0
 22 24  1  0
 22 25  1  0
 23 61  1  0
 23 62  1  0
 23 63  1  0
 24 64  1  0
 24 65  1  0
 24 66  1  0
 25 26  1  0
 25 67  1  1
 26 27  1  0
 26 68  1  0
 26 69  1  0
 27 28  1  0
 27 70  1  0
 27 71  1  0
 28 29  1  6
 29 72  1  0
 29 73  1  0
 29 74  1  0
 30 31  1  0
 30 75  1  1
 31 76  1  0
 31 77  1  0
M  END
>  <i_m_ct_stereo_status>  (361) 
1

>  <s_m_source_file>  (361) 
/var/tmp/pbs.5076255.sched01/tmp8hdfbsd6/1003312lgh9.sdf

>  <i_m_source_file_index>  (361) 
43

>  <i_lp_mmshare_version>  (361) 
48012

>  <i_f3d_flags>  (361) 
0

>  <s_epik_input>  (361) 
W0NIMl0xW0NIMl1DKFtDSDNdKShbQ0gzXSlbQ0gyXVtDQEBIXShbQ0BAXTEyW0NIM10pQz0zW0NAQF0oW0NIM10pKFtDSDJdW0NIMl0yKVtDQEBdNChbQ0gzXSlbQ0BASF0oW0NIMl1bQ0hdMylbQ0BdNShbQ0gzXSlbQ0BASF0oW0NIMl1bQ0gyXTQpQyhbQ0gzXSkoW0NIM10pQyg9TylbQ0hdPVtDSF01

>  <s_epik_cmdline>  (361) 
J2VwaWtfcHl0aG9uJywgJy1waHQnLCAnMi4wJywgJy1waCcsICc3LjAnLCAnLXRuJywgJzgnLCAnLW1hJywgJzIwMCcsICctaW1hZScsICc8aW5maWxlLm1hZT4nLCAnLW9tYWUnLCAnPG91dGZpbGUubWFlPic=

>  <r_lp_tautomer_probability>  (361) 
1

>  <r_epik_Ionization_Penalty>  (361) 
0

>  <r_epik_Ionization_Penalty_Charging>  (361) 
0

>  <r_epik_Ionization_Penalty_Neutral>  (361) 
0

>  <r_epik_State_Penalty>  (361) 
-0

>  <r_epik_Charging_Adjusted_Penalty>  (361) 
0

>  <i_epik_Tot_Q>  (361) 
0

>  <i_epik_Tot_abs_Q>  (361) 
0

>  <s_lp_Force_Field>  (361) 
OPLS3e

>  <r_lp_Energy>  (361) 
96.6376

>  <b_lp_Chiralities_Consistent>  (361) 
1

>  <s_lp_Variant>  (361) 
85:0-1

>  <s_i_glide_gridfile>  (361) 
pfpi4k_grid

>  <i_i_glide_lignum>  (361) 
43

>  <i_i_glide_rotatable_bonds>  (361) 
0

>  <r_i_docking_score>  (361) 
-2.42637

>  <r_i_glide_ligand_efficiency>  (361) 
-0.0782701

>  <r_i_glide_ligand_efficiency_sa>  (361) 
-0.245876

>  <r_i_glide_ligand_efficiency_ln>  (361) 
-0.547222

>  <r_i_glide_gscore>  (361) 
-2.42637

>  <r_i_glide_lipo>  (361) 
-0.245922

>  <r_i_glide_hbond>  (361) 
0

>  <r_i_glide_metal>  (361) 
-0

>  <r_i_glide_rewards>  (361) 
-0.527143

>  <r_i_glide_evdw>  (361) 
-27.7588

>  <r_i_glide_ecoul>  (361) 
-1.7155

>  <r_i_glide_erotb>  (361) 
0

>  <r_i_glide_esite>  (361) 
-0.00804369

>  <r_i_glide_emodel>  (361) 
-33.8792

>  <r_i_glide_energy>  (361) 
-29.4743

>  <r_i_glide_einternal>  (361) 
0

>  <r_i_glide_intrahb_reward>  (361) 
-0

>  <i_i_glide_confnum>  (361) 
1

>  <i_i_glide_posenum>  (361) 
3

>  <r_i_glide_eff_state_penalty>  (361) 
0

>  <ligand_id>  (361) 
85

>  <original_smiles>  (361) 
CC1(C)CCC2(C)CCC3(C)C(=CCC4C5(C)C=CC(=O)C(C)(C)C5CCC43C)C2C1

>  <smiles>  (361) 
[H]C1=C([H])C2(C([H])([H])[H])C([H])(C([H])([H])C([H])([H])C3(C([H])([H])[H])C2([H])C([H])([H])C([H])=C2C4([H])C([H])([H])C(C([H])([H])[H])(C([H])([H])[H])C([H])([H])C([H])([H])C4(C([H])([H])[H])C([H])([H])C([H])([H])C23C([H])([H])[H])C(C([H])([H])[H])(C([H])([H])[H])C1=O

$$$$
86:0:0
     RDKit          3D

 18 19  0  0  1  0  0  0  0  0999 V2000
   -9.5579   -6.3432   -9.8803 C   0  0  0  0  0  0  0  0  0  0  0  0
   -8.6858   -6.5347   -8.7100 N   0  0  0  0  0  0  0  0  0  0  0  0
   -7.9537   -7.7037   -8.6093 C   0  0  0  0  0  0  0  0  0  0  0  0
   -7.9856   -8.5960   -9.4571 O   0  0  0  0  0  0  0  0  0  0  0  0
   -7.1601   -7.8592   -7.5174 N   0  0  0  0  0  0  0  0  0  0  0  0
   -7.0524   -6.8915   -6.5022 C   0  0  0  0  0  0  0  0  0  0  0  0
   -6.2463   -6.9552   -5.3371 C   0  0  0  0  0  0  0  0  0  0  0  0
   -6.4025   -5.8140   -4.5827 C   0  0  0  0  0  0  0  0  0  0  0  0
   -7.5314   -4.6747   -5.3092 S   0  0  0  0  0  0  0  0  0  0  0  0
   -7.7869   -5.7680   -6.6390 C   0  0  0  0  0  0  0  0  0  0  0  0
   -8.6652   -5.5199   -7.7879 C   0  0  0  0  0  0  0  0  0  0  0  0
   -9.3074   -4.4706   -7.8848 O   0  0  0  0  0  0  0  0  0  0  0  0
   -6.6198   -8.7057   -7.4254 H   0  0  0  0  0  0  0  0  0  0  0  0
   -9.5559   -7.1669  -10.5952 H   0  0  0  0  0  0  0  0  0  0  0  0
   -9.2490   -5.4589  -10.4374 H   0  0  0  0  0  0  0  0  0  0  0  0
  -10.5928   -6.2086   -9.5619 H   0  0  0  0  0  0  0  0  0  0  0  0
   -5.6176   -7.7999   -5.1002 H   0  0  0  0  0  0  0  0  0  0  0  0
   -5.9407   -5.5742   -3.6397 H   0  0  0  0  0  0  0  0  0  0  0  0
  1  2  1  0
  1 14  1  0
  1 15  1  0
  1 16  1  0
  2 11  1  0
  2  3  1  0
  3  4  2  0
  3  5  1  0
  5 13  1  0
  5  6  1  0
  6 10  2  0
  6  7  1  0
  7  8  2  0
  7 17  1  0
  8  9  1  0
  8 18  1  0
  9 10  1  0
 10 11  1  0
 11 12  2  0
M  END
>  <i_m_ct_stereo_status>  (362) 
1

>  <s_m_source_file>  (362) 
/var/tmp/pbs.5076255.sched01/tmp8hdfbsd6/1003312lgh9.sdf

>  <i_m_source_file_index>  (362) 
44

>  <i_lp_mmshare_version>  (362) 
48012

>  <i_f3d_flags>  (362) 
0

>  <s_epik_input>  (362) 
Tz1jKFtuSF0xKW4oW0NIM10pYyg9TyljKGMxMilzW2NIXVtjSF0y

>  <s_epik_cmdline>  (362) 
J2VwaWtfcHl0aG9uJywgJy1waHQnLCAnMi4wJywgJy1waCcsICc3LjAnLCAnLXRuJywgJzgnLCAnLW1hJywgJzIwMCcsICctaW1hZScsICc8aW5maWxlLm1hZT4nLCAnLW9tYWUnLCAnPG91dGZpbGUubWFlPic=

>  <r_epik_Ionization_Penalty>  (362) 
0.0135416

>  <r_epik_Ionization_Penalty_Charging>  (362) 
0.0135416

>  <r_epik_Ionization_Penalty_Neutral>  (362) 
0

>  <r_epik_State_Penalty>  (362) 
0.0105445

>  <r_epik_Charging_Adjusted_Penalty>  (362) 
0.0240861

>  <i_epik_Tot_Q>  (362) 
0

>  <i_epik_Tot_abs_Q>  (362) 
0

>  <s_lp_Force_Field>  (362) 
OPLS3e

>  <r_lp_Energy>  (362) 
14.3236

>  <b_lp_Chiralities_Consistent>  (362) 
1

>  <s_lp_Variant>  (362) 
86:0-1

>  <s_i_glide_gridfile>  (362) 
pfpi4k_grid

>  <i_i_glide_lignum>  (362) 
44

>  <i_i_glide_rotatable_bonds>  (362) 
0

>  <r_i_docking_score>  (362) 
-5.81411

>  <r_i_glide_ligand_efficiency>  (362) 
-0.484509

>  <r_i_glide_ligand_efficiency_sa>  (362) 
-1.10925

>  <r_i_glide_ligand_efficiency_ln>  (362) 
-1.66837

>  <r_i_glide_gscore>  (362) 
-5.81411

>  <r_i_glide_lipo>  (362) 
-1.6172

>  <r_i_glide_hbond>  (362) 
0

>  <r_i_glide_metal>  (362) 
-0

>  <r_i_glide_rewards>  (362) 
-2.93298

>  <r_i_glide_evdw>  (362) 
-22.7897

>  <r_i_glide_ecoul>  (362) 
-0.8297

>  <r_i_glide_erotb>  (362) 
0

>  <r_i_glide_esite>  (362) 
0

>  <r_i_glide_emodel>  (362) 
-34.1155

>  <r_i_glide_energy>  (362) 
-23.6194

>  <r_i_glide_einternal>  (362) 
0

>  <r_i_glide_intrahb_reward>  (362) 
-0

>  <i_i_glide_confnum>  (362) 
2

>  <i_i_glide_posenum>  (362) 
9

>  <r_i_glide_eff_state_penalty>  (362) 
0

>  <ligand_id>  (362) 
86

>  <original_smiles>  (362) 
Cn1c(=O)[nH]c2ccsc2c1=O

>  <smiles>  (362) 
[H]c1sc2c(=O)n(C([H])([H])[H])c(=O)n([H])c2c1[H]

$$$$
86:0:1
     RDKit          3D

 18 19  0  0  1  0  0  0  0  0999 V2000
   -2.5537    3.1501    6.0829 C   0  0  0  0  0  0  0  0  0  0  0  0
   -1.7440    2.5864    4.9919 N   0  0  0  0  0  0  0  0  0  0  0  0
   -1.5205    3.3398    3.8554 C   0  0  0  0  0  0  0  0  0  0  0  0
   -1.9664    4.4798    3.7005 O   0  0  0  0  0  0  0  0  0  0  0  0
   -0.7587    2.7848    2.8787 N   0  0  0  0  0  0  0  0  0  0  0  0
   -0.1864    1.5043    2.9828 C   0  0  0  0  0  0  0  0  0  0  0  0
    0.6359    0.8481    2.0348 C   0  0  0  0  0  0  0  0  0  0  0  0
    1.0074   -0.3965    2.4866 C   0  0  0  0  0  0  0  0  0  0  0  0
    0.3375   -0.7506    4.0796 S   0  0  0  0  0  0  0  0  0  0  0  0
   -0.4326    0.8065    4.1077 C   0  0  0  0  0  0  0  0  0  0  0  0
   -1.2577    1.3221    5.2001 C   0  0  0  0  0  0  0  0  0  0  0  0
   -1.4767    0.6430    6.2080 O   0  0  0  0  0  0  0  0  0  0  0  0
   -0.5429    3.3233    2.0423 H   0  0  0  0  0  0  0  0  0  0  0  0
   -2.9465    4.1453    5.8716 H   0  0  0  0  0  0  0  0  0  0  0  0
   -1.9791    3.2193    7.0107 H   0  0  0  0  0  0  0  0  0  0  0  0
   -3.4415    2.5490    6.2701 H   0  0  0  0  0  0  0  0  0  0  0  0
    0.8918    1.2906    1.0876 H   0  0  0  0  0  0  0  0  0  0  0  0
    1.6056   -1.1267    1.9556 H   0  0  0  0  0  0  0  0  0  0  0  0
  1  2  1  0
  1 14  1  0
  1 15  1  0
  1 16  1  0
  2 11  1  0
  2  3  1  0
  3  4  2  0
  3  5  1  0
  5 13  1  0
  5  6  1  0
  6 10  2  0
  6  7  1  0
  7  8  2  0
  7 17  1  0
  8  9  1  0
  8 18  1  0
  9 10  1  0
 10 11  1  0
 11 12  2  0
M  END
>  <i_m_ct_stereo_status>  (363) 
1

>  <s_m_source_file>  (363) 
/var/tmp/pbs.5076255.sched01/tmp8hdfbsd6/1003312lgh9.sdf

>  <i_m_source_file_index>  (363) 
44

>  <i_lp_mmshare_version>  (363) 
48012

>  <i_f3d_flags>  (363) 
0

>  <s_epik_input>  (363) 
Tz1jKFtuSF0xKW4oW0NIM10pYyg9TyljKGMxMilzW2NIXVtjSF0y

>  <s_epik_cmdline>  (363) 
J2VwaWtfcHl0aG9uJywgJy1waHQnLCAnMi4wJywgJy1waCcsICc3LjAnLCAnLXRuJywgJzgnLCAnLW1hJywgJzIwMCcsICctaW1hZScsICc8aW5maWxlLm1hZT4nLCAnLW9tYWUnLCAnPG91dGZpbGUubWFlPic=

>  <r_epik_Ionization_Penalty>  (363) 
0.0135416

>  <r_epik_Ionization_Penalty_Charging>  (363) 
0.0135416

>  <r_epik_Ionization_Penalty_Neutral>  (363) 
0

>  <r_epik_State_Penalty>  (363) 
0.0105445

>  <r_epik_Charging_Adjusted_Penalty>  (363) 
0.0240861

>  <i_epik_Tot_Q>  (363) 
0

>  <i_epik_Tot_abs_Q>  (363) 
0

>  <s_lp_Force_Field>  (363) 
OPLS3e

>  <r_lp_Energy>  (363) 
14.3236

>  <b_lp_Chiralities_Consistent>  (363) 
1

>  <s_lp_Variant>  (363) 
86:0-1

>  <s_i_glide_gridfile>  (363) 
pfpi4k_grid

>  <i_i_glide_lignum>  (363) 
44

>  <i_i_glide_rotatable_bonds>  (363) 
0

>  <r_i_docking_score>  (363) 
-4.68514

>  <r_i_glide_ligand_efficiency>  (363) 
-0.390429

>  <r_i_glide_ligand_efficiency_sa>  (363) 
-0.893858

>  <r_i_glide_ligand_efficiency_ln>  (363) 
-1.34441

>  <r_i_glide_gscore>  (363) 
-4.68514

>  <r_i_glide_lipo>  (363) 
-0.082968

>  <r_i_glide_hbond>  (363) 
-0.36167

>  <r_i_glide_metal>  (363) 
-0

>  <r_i_glide_rewards>  (363) 
-2.16681

>  <r_i_glide_evdw>  (363) 
-15.4881

>  <r_i_glide_ecoul>  (363) 
-7.65949

>  <r_i_glide_erotb>  (363) 
0

>  <r_i_glide_esite>  (363) 
-0.150363

>  <r_i_glide_emodel>  (363) 
-31.5987

>  <r_i_glide_energy>  (363) 
-23.1476

>  <r_i_glide_einternal>  (363) 
0

>  <r_i_glide_intrahb_reward>  (363) 
-0

>  <i_i_glide_confnum>  (363) 
1

>  <i_i_glide_posenum>  (363) 
1

>  <r_i_glide_eff_state_penalty>  (363) 
0

>  <ligand_id>  (363) 
86

>  <original_smiles>  (363) 
Cn1c(=O)[nH]c2ccsc2c1=O

>  <smiles>  (363) 
[H]c1sc2c(=O)n(C([H])([H])[H])c(=O)n([H])c2c1[H]

$$$$
86:0:2
     RDKit          3D

 18 19  0  0  1  0  0  0  0  0999 V2000
    5.9806   -3.5793    1.1740 C   0  0  0  0  0  0  0  0  0  0  0  0
    5.4247   -2.7538    0.0864 N   0  0  0  0  0  0  0  0  0  0  0  0
    5.3950   -1.3827    0.2303 C   0  0  0  0  0  0  0  0  0  0  0  0
    5.8164   -0.7991    1.2272 O   0  0  0  0  0  0  0  0  0  0  0  0
    4.8893   -0.6538   -0.7978 N   0  0  0  0  0  0  0  0  0  0  0  0
    4.3896   -1.2291   -1.9810 C   0  0  0  0  0  0  0  0  0  0  0  0
    3.8380   -0.5579   -3.1004 C   0  0  0  0  0  0  0  0  0  0  0  0
    3.4631   -1.4564   -4.0689 C   0  0  0  0  0  0  0  0  0  0  0  0
    3.7885   -3.1206   -3.5931 S   0  0  0  0  0  0  0  0  0  0  0  0
    4.4378   -2.5728   -2.0780 C   0  0  0  0  0  0  0  0  0  0  0  0
    4.9729   -3.4294   -1.0161 C   0  0  0  0  0  0  0  0  0  0  0  0
    5.0162   -4.6541   -1.1352 O   0  0  0  0  0  0  0  0  0  0  0  0
    4.8722    0.3568   -0.7227 H   0  0  0  0  0  0  0  0  0  0  0  0
    6.3332   -3.0143    2.0378 H   0  0  0  0  0  0  0  0  0  0  0  0
    6.8299   -4.1642    0.8118 H   0  0  0  0  0  0  0  0  0  0  0  0
    5.2219   -4.2736    1.5429 H   0  0  0  0  0  0  0  0  0  0  0  0
    3.7349    0.5146   -3.1423 H   0  0  0  0  0  0  0  0  0  0  0  0
    3.0008   -1.2367   -5.0181 H   0  0  0  0  0  0  0  0  0  0  0  0
  1  2  1  0
  1 14  1  0
  1 15  1  0
  1 16  1  0
  2 11  1  0
  2  3  1  0
  3  4  2  0
  3  5  1  0
  5 13  1  0
  5  6  1  0
  6 10  2  0
  6  7  1  0
  7  8  2  0
  7 17  1  0
  8  9  1  0
  8 18  1  0
  9 10  1  0
 10 11  1  0
 11 12  2  0
M  END
>  <i_m_ct_stereo_status>  (364) 
1

>  <s_m_source_file>  (364) 
/var/tmp/pbs.5076255.sched01/tmp8hdfbsd6/1003312lgh9.sdf

>  <i_m_source_file_index>  (364) 
44

>  <i_lp_mmshare_version>  (364) 
48012

>  <i_f3d_flags>  (364) 
0

>  <s_epik_input>  (364) 
Tz1jKFtuSF0xKW4oW0NIM10pYyg9TyljKGMxMilzW2NIXVtjSF0y

>  <s_epik_cmdline>  (364) 
J2VwaWtfcHl0aG9uJywgJy1waHQnLCAnMi4wJywgJy1waCcsICc3LjAnLCAnLXRuJywgJzgnLCAnLW1hJywgJzIwMCcsICctaW1hZScsICc8aW5maWxlLm1hZT4nLCAnLW9tYWUnLCAnPG91dGZpbGUubWFlPic=

>  <r_epik_Ionization_Penalty>  (364) 
0.0135416

>  <r_epik_Ionization_Penalty_Charging>  (364) 
0.0135416

>  <r_epik_Ionization_Penalty_Neutral>  (364) 
0

>  <r_epik_State_Penalty>  (364) 
0.0105445

>  <r_epik_Charging_Adjusted_Penalty>  (364) 
0.0240861

>  <i_epik_Tot_Q>  (364) 
0

>  <i_epik_Tot_abs_Q>  (364) 
0

>  <s_lp_Force_Field>  (364) 
OPLS3e

>  <r_lp_Energy>  (364) 
14.3236

>  <b_lp_Chiralities_Consistent>  (364) 
1

>  <s_lp_Variant>  (364) 
86:0-1

>  <s_i_glide_gridfile>  (364) 
pfpi4k_grid

>  <i_i_glide_lignum>  (364) 
44

>  <i_i_glide_rotatable_bonds>  (364) 
0

>  <r_i_docking_score>  (364) 
-4.53047

>  <r_i_glide_ligand_efficiency>  (364) 
-0.377539

>  <r_i_glide_ligand_efficiency_sa>  (364) 
-0.864349

>  <r_i_glide_ligand_efficiency_ln>  (364) 
-1.30003

>  <r_i_glide_gscore>  (364) 
-4.53047

>  <r_i_glide_lipo>  (364) 
-0.543061

>  <r_i_glide_hbond>  (364) 
-0.32

>  <r_i_glide_metal>  (364) 
-0

>  <r_i_glide_rewards>  (364) 
-2.26166

>  <r_i_glide_evdw>  (364) 
-22.0199

>  <r_i_glide_ecoul>  (364) 
-1.75233

>  <r_i_glide_erotb>  (364) 
0

>  <r_i_glide_esite>  (364) 
-0.0419042

>  <r_i_glide_emodel>  (364) 
-31.9492

>  <r_i_glide_energy>  (364) 
-23.7722

>  <r_i_glide_einternal>  (364) 
0

>  <r_i_glide_intrahb_reward>  (364) 
-0

>  <i_i_glide_confnum>  (364) 
1

>  <i_i_glide_posenum>  (364) 
30

>  <r_i_glide_eff_state_penalty>  (364) 
0

>  <ligand_id>  (364) 
86

>  <original_smiles>  (364) 
Cn1c(=O)[nH]c2ccsc2c1=O

>  <smiles>  (364) 
[H]c1sc2c(=O)n(C([H])([H])[H])c(=O)n([H])c2c1[H]

$$$$
86:1:0
     RDKit          3D

 17 18  0  0  1  0  0  0  0  0999 V2000
   -9.9010   -5.8784   -9.0900 C   0  0  0  0  0  0  0  0  0  0  0  0
   -9.1167   -5.6193   -7.8650 N   0  0  0  0  0  0  0  0  0  0  0  0
   -9.3286   -4.4689   -7.1244 C   0  0  0  0  0  0  0  0  0  0  0  0
  -10.1724   -3.6620   -7.5065 O   0  0  0  0  0  0  0  0  0  0  0  0
   -8.5956   -4.2309   -5.9907 N   0  0  0  0  0  0  0  0  0  0  0  0
   -7.6692   -5.1168   -5.5907 C   0  0  0  0  0  0  0  0  0  0  0  0
   -6.8403   -5.0137   -4.4450 C   0  0  0  0  0  0  0  0  0  0  0  0
   -6.0111   -6.0992   -4.3192 C   0  0  0  0  0  0  0  0  0  0  0  0
   -6.2176   -7.2671   -5.6069 S   0  0  0  0  0  0  0  0  0  0  0  0
   -7.4487   -6.2526   -6.3015 C   0  0  0  0  0  0  0  0  0  0  0  0
   -8.1924   -6.5713   -7.5223 C   0  0  0  0  0  0  0  0  0  0  0  0
   -7.9726   -7.6099   -8.1526 O   0  0  0  0  0  0  0  0  0  0  0  0
  -10.6320   -5.1103   -9.3399 H   0  0  0  0  0  0  0  0  0  0  0  0
  -10.4613   -6.8083   -8.9843 H   0  0  0  0  0  0  0  0  0  0  0  0
   -9.2346   -5.9715   -9.9490 H   0  0  0  0  0  0  0  0  0  0  0  0
   -6.8996   -4.1722   -3.7735 H   0  0  0  0  0  0  0  0  0  0  0  0
   -5.3098   -6.2765   -3.5238 H   0  0  0  0  0  0  0  0  0  0  0  0
  1  2  1  0
  1 13  1  0
  1 14  1  0
  1 15  1  0
  2 11  1  0
  2  3  1  0
  3  4  2  0
  3  5  1  0
  5  6  1  0
  6 10  2  0
  6  7  1  0
  7  8  2  0
  7 16  1  0
  8  9  1  0
  8 17  1  0
  9 10  1  0
 10 11  1  0
 11 12  2  0
M  CHG  1   5  -1
M  END
>  <i_m_ct_stereo_status>  (365) 
1

>  <s_m_source_file>  (365) 
/var/tmp/pbs.5076255.sched01/tmp8hdfbsd6/1003312lgh9.sdf

>  <i_m_source_file_index>  (365) 
45

>  <i_lp_mmshare_version>  (365) 
48012

>  <i_f3d_flags>  (365) 
0

>  <s_epik_input>  (365) 
Tz1jKFtuSF0xKW4oW0NIM10pYyg9TyljKGMxMilzW2NIXVtjSF0y

>  <s_epik_cmdline>  (365) 
J2VwaWtfcHl0aG9uJywgJy1waHQnLCAnMi4wJywgJy1waCcsICc3LjAnLCAnLXRuJywgJzgnLCAnLW1hJywgJzIwMCcsICctaW1hZScsICc8aW5maWxlLm1hZT4nLCAnLW9tYWUnLCAnPG91dGZpbGUubWFlPic=

>  <r_epik_Ionization_Penalty>  (365) 
2.2455

>  <r_epik_Ionization_Penalty_Charging>  (365) 
9.11988e-08

>  <r_epik_Ionization_Penalty_Neutral>  (365) 
2.2455

>  <r_epik_State_Penalty>  (365) 
2.39223

>  <r_epik_Charging_Adjusted_Penalty>  (365) 
2.39223

>  <i_epik_Tot_Q>  (365) 
-1

>  <i_epik_Tot_abs_Q>  (365) 
1

>  <s_lp_Force_Field>  (365) 
OPLS3e

>  <r_lp_Energy>  (365) 
16.4387

>  <b_lp_Chiralities_Consistent>  (365) 
1

>  <s_lp_Variant>  (365) 
86:0-2

>  <s_i_glide_gridfile>  (365) 
pfpi4k_grid

>  <i_i_glide_lignum>  (365) 
45

>  <i_i_glide_rotatable_bonds>  (365) 
0

>  <r_i_docking_score>  (365) 
-5.91468

>  <r_i_glide_ligand_efficiency>  (365) 
-0.49289

>  <r_i_glide_ligand_efficiency_sa>  (365) 
-1.12844

>  <r_i_glide_ligand_efficiency_ln>  (365) 
-1.69723

>  <r_i_glide_gscore>  (365) 
-5.91468

>  <r_i_glide_lipo>  (365) 
-1.70407

>  <r_i_glide_hbond>  (365) 
-0.0380595

>  <r_i_glide_metal>  (365) 
-0

>  <r_i_glide_rewards>  (365) 
-2.82919

>  <r_i_glide_evdw>  (365) 
-21.6614

>  <r_i_glide_ecoul>  (365) 
-1.73529

>  <r_i_glide_erotb>  (365) 
0

>  <r_i_glide_esite>  (365) 
0

>  <r_i_glide_emodel>  (365) 
-36.0124

>  <r_i_glide_energy>  (365) 
-23.3967

>  <r_i_glide_einternal>  (365) 
0

>  <r_i_glide_intrahb_reward>  (365) 
-0

>  <i_i_glide_confnum>  (365) 
1

>  <i_i_glide_posenum>  (365) 
5

>  <r_i_glide_eff_state_penalty>  (365) 
0

>  <ligand_id>  (365) 
86

>  <original_smiles>  (365) 
Cn1c(=O)[nH]c2ccsc2c1=O

>  <smiles>  (365) 
[H]c1sc2c(=O)n(C([H])([H])[H])c(=O)[n-]c2c1[H]

$$$$
86:1:1
     RDKit          3D

 17 18  0  0  1  0  0  0  0  0999 V2000
   -0.3005   -9.4784    3.2948 C   0  0  0  0  0  0  0  0  0  0  0  0
    0.4382   -8.4078    2.5950 N   0  0  0  0  0  0  0  0  0  0  0  0
   -0.2005   -7.2394    2.2143 C   0  0  0  0  0  0  0  0  0  0  0  0
   -1.3866   -7.0770    2.4948 O   0  0  0  0  0  0  0  0  0  0  0  0
    0.4840   -6.2571    1.5410 N   0  0  0  0  0  0  0  0  0  0  0  0
    1.7999   -6.4007    1.2947 C   0  0  0  0  0  0  0  0  0  0  0  0
    2.6604   -5.4756    0.6444 C   0  0  0  0  0  0  0  0  0  0  0  0
    3.9465   -5.9497    0.5313 C   0  0  0  0  0  0  0  0  0  0  0  0
    4.1360   -7.5401    1.2484 S   0  0  0  0  0  0  0  0  0  0  0  0
    2.4451   -7.5377    1.6770 C   0  0  0  0  0  0  0  0  0  0  0  0
    1.7652   -8.6436    2.3576 C   0  0  0  0  0  0  0  0  0  0  0  0
    2.3797   -9.6654    2.6766 O   0  0  0  0  0  0  0  0  0  0  0  0
   -1.3543   -9.2715    3.4757 H   0  0  0  0  0  0  0  0  0  0  0  0
    0.1446   -9.6753    4.2718 H   0  0  0  0  0  0  0  0  0  0  0  0
   -0.2619  -10.4013    2.7143 H   0  0  0  0  0  0  0  0  0  0  0  0
    2.2978   -4.5303    0.2856 H   0  0  0  0  0  0  0  0  0  0  0  0
    4.7842   -5.4591    0.0594 H   0  0  0  0  0  0  0  0  0  0  0  0
  1  2  1  0
  1 13  1  0
  1 14  1  0
  1 15  1  0
  2 11  1  0
  2  3  1  0
  3  4  2  0
  3  5  1  0
  5  6  1  0
  6 10  2  0
  6  7  1  0
  7  8  2  0
  7 16  1  0
  8  9  1  0
  8 17  1  0
  9 10  1  0
 10 11  1  0
 11 12  2  0
M  CHG  1   5  -1
M  END
>  <i_m_ct_stereo_status>  (366) 
1

>  <s_m_source_file>  (366) 
/var/tmp/pbs.5076255.sched01/tmp8hdfbsd6/1003312lgh9.sdf

>  <i_m_source_file_index>  (366) 
45

>  <i_lp_mmshare_version>  (366) 
48012

>  <i_f3d_flags>  (366) 
0

>  <s_epik_input>  (366) 
Tz1jKFtuSF0xKW4oW0NIM10pYyg9TyljKGMxMilzW2NIXVtjSF0y

>  <s_epik_cmdline>  (366) 
J2VwaWtfcHl0aG9uJywgJy1waHQnLCAnMi4wJywgJy1waCcsICc3LjAnLCAnLXRuJywgJzgnLCAnLW1hJywgJzIwMCcsICctaW1hZScsICc8aW5maWxlLm1hZT4nLCAnLW9tYWUnLCAnPG91dGZpbGUubWFlPic=

>  <r_epik_Ionization_Penalty>  (366) 
2.2455

>  <r_epik_Ionization_Penalty_Charging>  (366) 
9.11988e-08

>  <r_epik_Ionization_Penalty_Neutral>  (366) 
2.2455

>  <r_epik_State_Penalty>  (366) 
2.39223

>  <r_epik_Charging_Adjusted_Penalty>  (366) 
2.39223

>  <i_epik_Tot_Q>  (366) 
-1

>  <i_epik_Tot_abs_Q>  (366) 
1

>  <s_lp_Force_Field>  (366) 
OPLS3e

>  <r_lp_Energy>  (366) 
16.4387

>  <b_lp_Chiralities_Consistent>  (366) 
1

>  <s_lp_Variant>  (366) 
86:0-2

>  <s_i_glide_gridfile>  (366) 
pfpi4k_grid

>  <i_i_glide_lignum>  (366) 
45

>  <i_i_glide_rotatable_bonds>  (366) 
0

>  <r_i_docking_score>  (366) 
-4.39895

>  <r_i_glide_ligand_efficiency>  (366) 
-0.366579

>  <r_i_glide_ligand_efficiency_sa>  (366) 
-0.839257

>  <r_i_glide_ligand_efficiency_ln>  (366) 
-1.26229

>  <r_i_glide_gscore>  (366) 
-4.39895

>  <r_i_glide_lipo>  (366) 
-0.143988

>  <r_i_glide_hbond>  (366) 
-0.383868

>  <r_i_glide_metal>  (366) 
-0

>  <r_i_glide_rewards>  (366) 
-2.17369

>  <r_i_glide_evdw>  (366) 
-16.8226

>  <r_i_glide_ecoul>  (366) 
-4.91138

>  <r_i_glide_erotb>  (366) 
0

>  <r_i_glide_esite>  (366) 
-0.119571

>  <r_i_glide_emodel>  (366) 
-31.1125

>  <r_i_glide_energy>  (366) 
-21.734

>  <r_i_glide_einternal>  (366) 
0

>  <r_i_glide_intrahb_reward>  (366) 
-0

>  <i_i_glide_confnum>  (366) 
1

>  <i_i_glide_posenum>  (366) 
8

>  <r_i_glide_eff_state_penalty>  (366) 
0

>  <ligand_id>  (366) 
86

>  <original_smiles>  (366) 
Cn1c(=O)[nH]c2ccsc2c1=O

>  <smiles>  (366) 
[H]c1sc2c(=O)n(C([H])([H])[H])c(=O)[n-]c2c1[H]

$$$$
86:1:2
     RDKit          3D

 17 18  0  0  1  0  0  0  0  0999 V2000
   -2.6873    3.2097    6.4008 C   0  0  0  0  0  0  0  0  0  0  0  0
   -1.8517    2.1954    5.7378 N   0  0  0  0  0  0  0  0  0  0  0  0
   -1.4376    1.0763    6.4303 C   0  0  0  0  0  0  0  0  0  0  0  0
   -1.7579    0.9587    7.6124 O   0  0  0  0  0  0  0  0  0  0  0  0
   -0.7102    0.0968    5.8085 N   0  0  0  0  0  0  0  0  0  0  0  0
   -0.3329    0.2535    4.5228 C   0  0  0  0  0  0  0  0  0  0  0  0
    0.4725   -0.6309    3.7527 C   0  0  0  0  0  0  0  0  0  0  0  0
    0.6523   -0.1804    2.4635 C   0  0  0  0  0  0  0  0  0  0  0  0
   -0.1726    1.3421    2.1761 S   0  0  0  0  0  0  0  0  0  0  0  0
   -0.7289    1.3512    3.8243 C   0  0  0  0  0  0  0  0  0  0  0  0
   -1.5463    2.4178    4.4197 C   0  0  0  0  0  0  0  0  0  0  0  0
   -1.9086    3.4037    3.7692 O   0  0  0  0  0  0  0  0  0  0  0  0
   -2.9231    3.0147    7.4466 H   0  0  0  0  0  0  0  0  0  0  0  0
   -3.6375    3.3223    5.8771 H   0  0  0  0  0  0  0  0  0  0  0  0
   -2.1560    4.1533    6.3820 H   0  0  0  0  0  0  0  0  0  0  0  0
    0.8661   -1.5484    4.1642 H   0  0  0  0  0  0  0  0  0  0  0  0
    1.1896   -0.6476    1.6508 H   0  0  0  0  0  0  0  0  0  0  0  0
  1  2  1  0
  1 13  1  0
  1 14  1  0
  1 15  1  0
  2 11  1  0
  2  3  1  0
  3  4  2  0
  3  5  1  0
  5  6  1  0
  6 10  2  0
  6  7  1  0
  7  8  2  0
  7 16  1  0
  8  9  1  0
  8 17  1  0
  9 10  1  0
 10 11  1  0
 11 12  2  0
M  CHG  1   5  -1
M  END
>  <i_m_ct_stereo_status>  (367) 
1

>  <s_m_source_file>  (367) 
/var/tmp/pbs.5076255.sched01/tmp8hdfbsd6/1003312lgh9.sdf

>  <i_m_source_file_index>  (367) 
45

>  <i_lp_mmshare_version>  (367) 
48012

>  <i_f3d_flags>  (367) 
0

>  <s_epik_input>  (367) 
Tz1jKFtuSF0xKW4oW0NIM10pYyg9TyljKGMxMilzW2NIXVtjSF0y

>  <s_epik_cmdline>  (367) 
J2VwaWtfcHl0aG9uJywgJy1waHQnLCAnMi4wJywgJy1waCcsICc3LjAnLCAnLXRuJywgJzgnLCAnLW1hJywgJzIwMCcsICctaW1hZScsICc8aW5maWxlLm1hZT4nLCAnLW9tYWUnLCAnPG91dGZpbGUubWFlPic=

>  <r_epik_Ionization_Penalty>  (367) 
2.2455

>  <r_epik_Ionization_Penalty_Charging>  (367) 
9.11988e-08

>  <r_epik_Ionization_Penalty_Neutral>  (367) 
2.2455

>  <r_epik_State_Penalty>  (367) 
2.39223

>  <r_epik_Charging_Adjusted_Penalty>  (367) 
2.39223

>  <i_epik_Tot_Q>  (367) 
-1

>  <i_epik_Tot_abs_Q>  (367) 
1

>  <s_lp_Force_Field>  (367) 
OPLS3e

>  <r_lp_Energy>  (367) 
16.4387

>  <b_lp_Chiralities_Consistent>  (367) 
1

>  <s_lp_Variant>  (367) 
86:0-2

>  <s_i_glide_gridfile>  (367) 
pfpi4k_grid

>  <i_i_glide_lignum>  (367) 
45

>  <i_i_glide_rotatable_bonds>  (367) 
0

>  <r_i_docking_score>  (367) 
-3.82243

>  <r_i_glide_ligand_efficiency>  (367) 
-0.318536

>  <r_i_glide_ligand_efficiency_sa>  (367) 
-0.729265

>  <r_i_glide_ligand_efficiency_ln>  (367) 
-1.09685

>  <r_i_glide_gscore>  (367) 
-3.82243

>  <r_i_glide_lipo>  (367) 
-0.138117

>  <r_i_glide_hbond>  (367) 
-0.142513

>  <r_i_glide_metal>  (367) 
-0

>  <r_i_glide_rewards>  (367) 
-2.17369

>  <r_i_glide_evdw>  (367) 
-14.8137

>  <r_i_glide_ecoul>  (367) 
-3.85014

>  <r_i_glide_erotb>  (367) 
0

>  <r_i_glide_esite>  (367) 
-0.0499084

>  <r_i_glide_emodel>  (367) 
-26.8092

>  <r_i_glide_energy>  (367) 
-18.6639

>  <r_i_glide_einternal>  (367) 
0

>  <r_i_glide_intrahb_reward>  (367) 
-0

>  <i_i_glide_confnum>  (367) 
1

>  <i_i_glide_posenum>  (367) 
4

>  <r_i_glide_eff_state_penalty>  (367) 
0

>  <ligand_id>  (367) 
86

>  <original_smiles>  (367) 
Cn1c(=O)[nH]c2ccsc2c1=O

>  <smiles>  (367) 
[H]c1sc2c(=O)n(C([H])([H])[H])c(=O)[n-]c2c1[H]

$$$$
87:0:0
     RDKit          3D

 23 24  0  0  1  0  0  0  0  0999 V2000
   -1.9761   -9.2691    2.2491 C   0  0  0  0  0  0  0  0  0  0  0  0
   -1.5754   -8.1992    3.0603 O   0  0  0  0  0  0  0  0  0  0  0  0
   -0.6120   -7.4371    2.3904 N   0  0  0  0  0  0  0  0  0  0  0  0
    0.5903   -7.7924    2.5996 C   0  0  0  0  0  0  0  0  0  0  0  0
    0.9828   -8.9410    3.5267 C   0  0  0  0  0  0  0  0  0  0  0  0
    1.6575   -7.0342    1.9045 C   0  0  0  0  0  0  0  0  0  0  0  0
    2.9735   -7.3704    1.8366 C   0  0  0  0  0  0  0  0  0  0  0  0
    3.5783   -6.3588    1.1019 N   0  0  0  0  0  0  0  0  0  0  0  0
    4.8803   -6.3415    0.8282 N   0  0  0  0  0  0  0  0  0  0  0  0
    5.2073   -5.2375    0.1081 C   0  0  0  0  0  0  0  0  0  0  0  0
    4.4072   -4.2264   -0.3017 N   0  0  0  0  0  0  0  0  0  0  0  0
    3.0974   -4.3186    0.0120 C   0  0  0  0  0  0  0  0  0  0  0  0
    2.6015   -5.4283    0.7376 C   0  0  0  0  0  0  0  0  0  0  0  0
    1.4192   -5.8565    1.1750 N   0  0  0  0  0  0  0  0  0  0  0  0
   -2.7174   -9.8418    2.8221 H   0  0  0  0  0  0  0  0  0  0  0  0
   -1.1971   -9.9534    1.9959 H   0  0  0  0  0  0  0  0  0  0  0  0
   -2.4473   -8.9560    1.3031 H   0  0  0  0  0  0  0  0  0  0  0  0
    2.0569   -9.0360    3.6183 H   0  0  0  0  0  0  0  0  0  0  0  0
    0.6114   -9.8923    3.1636 H   0  0  0  0  0  0  0  0  0  0  0  0
    0.5799   -8.7605    4.5202 H   0  0  0  0  0  0  0  0  0  0  0  0
    3.5721   -8.1949    2.2070 H   0  0  0  0  0  0  0  0  0  0  0  0
    6.2481   -5.1585   -0.1647 H   0  0  0  0  0  0  0  0  0  0  0  0
    2.4426   -3.5438   -0.3193 H   0  0  0  0  0  0  0  0  0  0  0  0
  1  2  1  0
  1 15  1  0
  1 16  1  0
  1 17  1  0
  2  3  1  0
  3  4  2  3
  4  5  1  0
  4  6  1  0
  5 18  1  0
  5 19  1  0
  5 20  1  0
  6 14  1  0
  6  7  2  0
  7  8  1  0
  7 21  1  0
  8 13  1  0
  8  9  1  0
  9 10  2  0
 10 11  1  0
 10 22  1  0
 11 12  2  0
 12 13  1  0
 12 23  1  0
 13 14  2  0
M  END
>  <i_m_ct_stereo_status>  (368) 
1

>  <s_m_source_file>  (368) 
/var/tmp/pbs.5076255.sched01/tmp8hdfbsd6/1003312lgh9.sdf

>  <i_m_source_file_index>  (368) 
46

>  <i_lp_mmshare_version>  (368) 
48012

>  <i_f3d_flags>  (368) 
0

>  <s_epik_input>  (368) 
W0NIM11PL049QyhcW0NIM10pYyhbY0hdMSluYyhuMTIpW2NIXW5bY0hdbjI=

>  <s_epik_cmdline>  (368) 
J2VwaWtfcHl0aG9uJywgJy1waHQnLCAnMi4wJywgJy1waCcsICc3LjAnLCAnLXRuJywgJzgnLCAnLW1hJywgJzIwMCcsICctaW1hZScsICc8aW5maWxlLm1hZT4nLCAnLW9tYWUnLCAnPG91dGZpbGUubWFlPic=

>  <r_lp_tautomer_probability>  (368) 
1

>  <r_epik_Ionization_Penalty>  (368) 
2.36267e-05

>  <r_epik_Ionization_Penalty_Charging>  (368) 
2.36138e-05

>  <r_epik_Ionization_Penalty_Neutral>  (368) 
1.29594e-08

>  <r_epik_State_Penalty>  (368) 
-0

>  <r_epik_Charging_Adjusted_Penalty>  (368) 
2.36138e-05

>  <i_epik_Tot_Q>  (368) 
0

>  <i_epik_Tot_abs_Q>  (368) 
0

>  <s_epik_Chemistry_Notes>  (368) 
This compound has an imine and may undergo hydrolysis.

>  <s_lp_Force_Field>  (368) 
OPLS3e

>  <r_lp_Energy>  (368) 
13.9287

>  <b_lp_Chiralities_Consistent>  (368) 
1

>  <s_lp_Variant>  (368) 
87:0-1

>  <s_i_glide_gridfile>  (368) 
pfpi4k_grid

>  <i_i_glide_lignum>  (368) 
46

>  <i_i_glide_rotatable_bonds>  (368) 
2

>  <r_i_docking_score>  (368) 
-3.53413

>  <r_i_glide_ligand_efficiency>  (368) 
-0.252438

>  <r_i_glide_ligand_efficiency_sa>  (368) 
-0.608411

>  <r_i_glide_ligand_efficiency_ln>  (368) 
-0.971166

>  <r_i_glide_gscore>  (368) 
-3.53413

>  <r_i_glide_lipo>  (368) 
-0.294401

>  <r_i_glide_hbond>  (368) 
-0.146225

>  <r_i_glide_metal>  (368) 
-0

>  <r_i_glide_rewards>  (368) 
-2.24898

>  <r_i_glide_evdw>  (368) 
-18.0362

>  <r_i_glide_ecoul>  (368) 
-4.13003

>  <r_i_glide_erotb>  (368) 
0.880146

>  <r_i_glide_esite>  (368) 
-0.203357

>  <r_i_glide_emodel>  (368) 
-24.6523

>  <r_i_glide_energy>  (368) 
-22.1662

>  <r_i_glide_einternal>  (368) 
5.77079

>  <r_i_glide_intrahb_reward>  (368) 
-0

>  <i_i_glide_confnum>  (368) 
4

>  <i_i_glide_posenum>  (368) 
6

>  <r_i_glide_eff_state_penalty>  (368) 
0

>  <ligand_id>  (368) 
87

>  <original_smiles>  (368) 
CON=C(C)c1cn2ncncc2n1

>  <smiles>  (368) 
[H]c1nc([H])c2nc(C(=NOC([H])([H])[H])C([H])([H])[H])c([H])n2n1

$$$$
87:0:1
     RDKit          3D

 23 24  0  0  1  0  0  0  0  0999 V2000
   -1.9513   -4.4944    7.6214 C   0  0  0  0  0  0  0  0  0  0  0  0
   -0.9565   -4.0286    6.7268 O   0  0  0  0  0  0  0  0  0  0  0  0
   -1.3036   -2.7219    6.3756 N   0  0  0  0  0  0  0  0  0  0  0  0
   -0.5654   -2.2055    5.4820 C   0  0  0  0  0  0  0  0  0  0  0  0
    0.5860   -2.9698    4.8440 C   0  0  0  0  0  0  0  0  0  0  0  0
   -0.8264   -0.7927    5.0828 C   0  0  0  0  0  0  0  0  0  0  0  0
   -0.3988   -0.1869    3.9211 C   0  0  0  0  0  0  0  0  0  0  0  0
   -0.9148    1.0902    3.9571 N   0  0  0  0  0  0  0  0  0  0  0  0
   -0.7255    1.9743    2.9858 N   0  0  0  0  0  0  0  0  0  0  0  0
   -1.3165    3.1608    3.2706 C   0  0  0  0  0  0  0  0  0  0  0  0
   -2.0356    3.4976    4.3766 N   0  0  0  0  0  0  0  0  0  0  0  0
   -2.1869    2.5351    5.3145 C   0  0  0  0  0  0  0  0  0  0  0  0
   -1.6284    1.2451    5.1432 C   0  0  0  0  0  0  0  0  0  0  0  0
   -1.6110    0.1011    5.8251 N   0  0  0  0  0  0  0  0  0  0  0  0
   -1.7128   -5.5087    7.9242 H   0  0  0  0  0  0  0  0  0  0  0  0
   -2.9370   -4.5070    7.1555 H   0  0  0  0  0  0  0  0  0  0  0  0
   -2.0140   -3.8972    8.5314 H   0  0  0  0  0  0  0  0  0  0  0  0
    1.1138   -2.3750    4.1070 H   0  0  0  0  0  0  0  0  0  0  0  0
    0.2107   -3.8762    4.3693 H   0  0  0  0  0  0  0  0  0  0  0  0
    1.2913   -3.2476    5.6254 H   0  0  0  0  0  0  0  0  0  0  0  0
    0.1897   -0.4945    3.0623 H   0  0  0  0  0  0  0  0  0  0  0  0
   -1.1932    3.9209    2.5129 H   0  0  0  0  0  0  0  0  0  0  0  0
   -2.7760    2.7801    6.1744 H   0  0  0  0  0  0  0  0  0  0  0  0
  1  2  1  0
  1 15  1  0
  1 16  1  0
  1 17  1  0
  2  3  1  0
  3  4  2  3
  4  5  1  0
  4  6  1  0
  5 18  1  0
  5 19  1  0
  5 20  1  0
  6 14  1  0
  6  7  2  0
  7  8  1  0
  7 21  1  0
  8 13  1  0
  8  9  1  0
  9 10  2  0
 10 11  1  0
 10 22  1  0
 11 12  2  0
 12 13  1  0
 12 23  1  0
 13 14  2  0
M  END
>  <i_m_ct_stereo_status>  (369) 
1

>  <s_m_source_file>  (369) 
/var/tmp/pbs.5076255.sched01/tmp8hdfbsd6/1003312lgh9.sdf

>  <i_m_source_file_index>  (369) 
46

>  <i_lp_mmshare_version>  (369) 
48012

>  <i_f3d_flags>  (369) 
0

>  <s_epik_input>  (369) 
W0NIM11PL049QyhcW0NIM10pYyhbY0hdMSluYyhuMTIpW2NIXW5bY0hdbjI=

>  <s_epik_cmdline>  (369) 
J2VwaWtfcHl0aG9uJywgJy1waHQnLCAnMi4wJywgJy1waCcsICc3LjAnLCAnLXRuJywgJzgnLCAnLW1hJywgJzIwMCcsICctaW1hZScsICc8aW5maWxlLm1hZT4nLCAnLW9tYWUnLCAnPG91dGZpbGUubWFlPic=

>  <r_lp_tautomer_probability>  (369) 
1

>  <r_epik_Ionization_Penalty>  (369) 
2.36267e-05

>  <r_epik_Ionization_Penalty_Charging>  (369) 
2.36138e-05

>  <r_epik_Ionization_Penalty_Neutral>  (369) 
1.29594e-08

>  <r_epik_State_Penalty>  (369) 
-0

>  <r_epik_Charging_Adjusted_Penalty>  (369) 
2.36138e-05

>  <i_epik_Tot_Q>  (369) 
0

>  <i_epik_Tot_abs_Q>  (369) 
0

>  <s_epik_Chemistry_Notes>  (369) 
This compound has an imine and may undergo hydrolysis.

>  <s_lp_Force_Field>  (369) 
OPLS3e

>  <r_lp_Energy>  (369) 
13.9287

>  <b_lp_Chiralities_Consistent>  (369) 
1

>  <s_lp_Variant>  (369) 
87:0-1

>  <s_i_glide_gridfile>  (369) 
pfpi4k_grid

>  <i_i_glide_lignum>  (369) 
46

>  <i_i_glide_rotatable_bonds>  (369) 
2

>  <r_i_docking_score>  (369) 
-3.24797

>  <r_i_glide_ligand_efficiency>  (369) 
-0.231998

>  <r_i_glide_ligand_efficiency_sa>  (369) 
-0.559147

>  <r_i_glide_ligand_efficiency_ln>  (369) 
-0.89253

>  <r_i_glide_gscore>  (369) 
-3.24797

>  <r_i_glide_lipo>  (369) 
-0.0778057

>  <r_i_glide_hbond>  (369) 
-0.0409599

>  <r_i_glide_metal>  (369) 
-0

>  <r_i_glide_rewards>  (369) 
-2.10552

>  <r_i_glide_evdw>  (369) 
-17.0206

>  <r_i_glide_ecoul>  (369) 
-5.487

>  <r_i_glide_erotb>  (369) 
0.880146

>  <r_i_glide_esite>  (369) 
-0.229746

>  <r_i_glide_emodel>  (369) 
-27.5923

>  <r_i_glide_energy>  (369) 
-22.5076

>  <r_i_glide_einternal>  (369) 
0.65963

>  <r_i_glide_intrahb_reward>  (369) 
-0

>  <i_i_glide_confnum>  (369) 
2

>  <i_i_glide_posenum>  (369) 
10

>  <r_i_glide_eff_state_penalty>  (369) 
0

>  <ligand_id>  (369) 
87

>  <original_smiles>  (369) 
CON=C(C)c1cn2ncncc2n1

>  <smiles>  (369) 
[H]c1nc([H])c2nc(C(=NOC([H])([H])[H])C([H])([H])[H])c([H])n2n1

$$$$
87:0:2
     RDKit          3D

 23 24  0  0  1  0  0  0  0  0999 V2000
   -1.9632   -7.9174    3.3030 C   0  0  0  0  0  0  0  0  0  0  0  0
   -0.7497   -8.5049    2.8710 O   0  0  0  0  0  0  0  0  0  0  0  0
    0.0367   -7.4855    2.3222 N   0  0  0  0  0  0  0  0  0  0  0  0
    1.2192   -7.8585    2.0266 C   0  0  0  0  0  0  0  0  0  0  0  0
    1.7081   -9.2801    2.2692 C   0  0  0  0  0  0  0  0  0  0  0  0
    2.1326   -6.8830    1.3749 C   0  0  0  0  0  0  0  0  0  0  0  0
    3.5118   -6.9539    1.3133 C   0  0  0  0  0  0  0  0  0  0  0  0
    3.9006   -5.8027    0.6499 N   0  0  0  0  0  0  0  0  0  0  0  0
    5.1750   -5.4992    0.3916 N   0  0  0  0  0  0  0  0  0  0  0  0
    5.2787   -4.3159   -0.2653 C   0  0  0  0  0  0  0  0  0  0  0  0
    4.2879   -3.4697   -0.6432 N   0  0  0  0  0  0  0  0  0  0  0  0
    3.0265   -3.8483   -0.3409 C   0  0  0  0  0  0  0  0  0  0  0  0
    2.7602   -5.0658    0.3337 C   0  0  0  0  0  0  0  0  0  0  0  0
    1.6810   -5.7151    0.7510 N   0  0  0  0  0  0  0  0  0  0  0  0
   -2.5856   -8.6869    3.7494 H   0  0  0  0  0  0  0  0  0  0  0  0
   -2.5218   -7.4682    2.4803 H   0  0  0  0  0  0  0  0  0  0  0  0
   -1.7898   -7.1465    4.0541 H   0  0  0  0  0  0  0  0  0  0  0  0
    2.7313   -9.4261    1.9339 H   0  0  0  0  0  0  0  0  0  0  0  0
    1.0810   -9.9768    1.7125 H   0  0  0  0  0  0  0  0  0  0  0  0
    1.6447   -9.5259    3.3311 H   0  0  0  0  0  0  0  0  0  0  0  0
    4.2535   -7.6617    1.6591 H   0  0  0  0  0  0  0  0  0  0  0  0
    6.2797   -4.0038   -0.5196 H   0  0  0  0  0  0  0  0  0  0  0  0
    2.2243   -3.1915   -0.6495 H   0  0  0  0  0  0  0  0  0  0  0  0
  1  2  1  0
  1 15  1  0
  1 16  1  0
  1 17  1  0
  2  3  1  0
  3  4  2  3
  4  5  1  0
  4  6  1  0
  5 18  1  0
  5 19  1  0
  5 20  1  0
  6 14  1  0
  6  7  2  0
  7  8  1  0
  7 21  1  0
  8 13  1  0
  8  9  1  0
  9 10  2  0
 10 11  1  0
 10 22  1  0
 11 12  2  0
 12 13  1  0
 12 23  1  0
 13 14  2  0
M  END
>  <i_m_ct_stereo_status>  (370) 
1

>  <s_m_source_file>  (370) 
/var/tmp/pbs.5076255.sched01/tmp8hdfbsd6/1003312lgh9.sdf

>  <i_m_source_file_index>  (370) 
46

>  <i_lp_mmshare_version>  (370) 
48012

>  <i_f3d_flags>  (370) 
0

>  <s_epik_input>  (370) 
W0NIM11PL049QyhcW0NIM10pYyhbY0hdMSluYyhuMTIpW2NIXW5bY0hdbjI=

>  <s_epik_cmdline>  (370) 
J2VwaWtfcHl0aG9uJywgJy1waHQnLCAnMi4wJywgJy1waCcsICc3LjAnLCAnLXRuJywgJzgnLCAnLW1hJywgJzIwMCcsICctaW1hZScsICc8aW5maWxlLm1hZT4nLCAnLW9tYWUnLCAnPG91dGZpbGUubWFlPic=

>  <r_lp_tautomer_probability>  (370) 
1

>  <r_epik_Ionization_Penalty>  (370) 
2.36267e-05

>  <r_epik_Ionization_Penalty_Charging>  (370) 
2.36138e-05

>  <r_epik_Ionization_Penalty_Neutral>  (370) 
1.29594e-08

>  <r_epik_State_Penalty>  (370) 
-0

>  <r_epik_Charging_Adjusted_Penalty>  (370) 
2.36138e-05

>  <i_epik_Tot_Q>  (370) 
0

>  <i_epik_Tot_abs_Q>  (370) 
0

>  <s_epik_Chemistry_Notes>  (370) 
This compound has an imine and may undergo hydrolysis.

>  <s_lp_Force_Field>  (370) 
OPLS3e

>  <r_lp_Energy>  (370) 
13.9287

>  <b_lp_Chiralities_Consistent>  (370) 
1

>  <s_lp_Variant>  (370) 
87:0-1

>  <s_i_glide_gridfile>  (370) 
pfpi4k_grid

>  <i_i_glide_lignum>  (370) 
46

>  <i_i_glide_rotatable_bonds>  (370) 
2

>  <r_i_docking_score>  (370) 
-3.18135

>  <r_i_glide_ligand_efficiency>  (370) 
-0.227239

>  <r_i_glide_ligand_efficiency_sa>  (370) 
-0.547678

>  <r_i_glide_ligand_efficiency_ln>  (370) 
-0.874222

>  <r_i_glide_gscore>  (370) 
-3.18135

>  <r_i_glide_lipo>  (370) 
-0.135434

>  <r_i_glide_hbond>  (370) 
-0.126839

>  <r_i_glide_metal>  (370) 
-0

>  <r_i_glide_rewards>  (370) 
-2.25934

>  <r_i_glide_evdw>  (370) 
-18.9109

>  <r_i_glide_ecoul>  (370) 
-2.73822

>  <r_i_glide_erotb>  (370) 
0.880146

>  <r_i_glide_esite>  (370) 
-0.183603

>  <r_i_glide_emodel>  (370) 
-26.632

>  <r_i_glide_energy>  (370) 
-21.6491

>  <r_i_glide_einternal>  (370) 
0.674318

>  <r_i_glide_intrahb_reward>  (370) 
-0

>  <i_i_glide_confnum>  (370) 
2

>  <i_i_glide_posenum>  (370) 
35

>  <r_i_glide_eff_state_penalty>  (370) 
0

>  <ligand_id>  (370) 
87

>  <original_smiles>  (370) 
CON=C(C)c1cn2ncncc2n1

>  <smiles>  (370) 
[H]c1nc([H])c2nc(C(=NOC([H])([H])[H])C([H])([H])[H])c([H])n2n1

$$$$
87:1:0
     RDKit          3D

 23 24  0  0  1  0  0  0  0  0999 V2000
   -4.1976   -8.1792   -5.0550 C   0  0  0  0  0  0  0  0  0  0  0  0
   -5.2671   -7.3973   -5.5461 O   0  0  0  0  0  0  0  0  0  0  0  0
   -5.3911   -6.2427   -4.7615 N   0  0  0  0  0  0  0  0  0  0  0  0
   -6.4047   -5.5207   -5.0680 C   0  0  0  0  0  0  0  0  0  0  0  0
   -6.5303   -4.2448   -4.2550 C   0  0  0  0  0  0  0  0  0  0  0  0
   -7.4253   -5.8113   -6.1400 C   0  0  0  0  0  0  0  0  0  0  0  0
   -8.5843   -5.0856   -6.3465 C   0  0  0  0  0  0  0  0  0  0  0  0
   -9.2236   -5.6828   -7.4124 N   0  0  0  0  0  0  0  0  0  0  0  0
  -10.3976   -5.2698   -7.8914 N   0  0  0  0  0  0  0  0  0  0  0  0
  -10.8285   -6.0681   -8.8955 C   0  0  0  0  0  0  0  0  0  0  0  0
  -10.2063   -7.1435   -9.4454 N   0  0  0  0  0  0  0  0  0  0  0  0
   -9.0155   -7.4940   -8.9114 C   0  0  0  0  0  0  0  0  0  0  0  0
   -8.4551   -6.7674   -7.8331 C   0  0  0  0  0  0  0  0  0  0  0  0
   -7.3675   -6.8515   -7.0820 N   0  0  0  0  0  0  0  0  0  0  0  0
   -4.1009   -9.0906   -5.6416 H   0  0  0  0  0  0  0  0  0  0  0  0
   -4.3740   -8.4846   -4.0265 H   0  0  0  0  0  0  0  0  0  0  0  0
   -3.2514   -7.6490   -5.1230 H   0  0  0  0  0  0  0  0  0  0  0  0
   -7.3873   -3.6454   -4.5322 H   0  0  0  0  0  0  0  0  0  0  0  0
   -5.6460   -3.6266   -4.4051 H   0  0  0  0  0  0  0  0  0  0  0  0
   -6.6115   -4.4823   -3.1943 H   0  0  0  0  0  0  0  0  0  0  0  0
   -9.0447   -4.2356   -5.8699 H   0  0  0  0  0  0  0  0  0  0  0  0
  -11.7874   -5.8108   -9.3191 H   0  0  0  0  0  0  0  0  0  0  0  0
   -8.5166   -8.3553   -9.3166 H   0  0  0  0  0  0  0  0  0  0  0  0
  1  2  1  0
  1 15  1  0
  1 16  1  0
  1 17  1  0
  2  3  1  0
  3  4  2  3
  4  5  1  0
  4  6  1  0
  5 18  1  0
  5 19  1  0
  5 20  1  0
  6 14  1  0
  6  7  2  0
  7  8  1  0
  7 21  1  0
  8 13  1  0
  8  9  1  0
  9 10  2  0
 10 11  1  0
 10 22  1  0
 11 12  2  0
 12 13  1  0
 12 23  1  0
 13 14  2  0
M  END
>  <i_m_ct_stereo_status>  (371) 
1

>  <s_m_source_file>  (371) 
/var/tmp/pbs.5076255.sched01/tmp8hdfbsd6/1003312lgh9.sdf

>  <i_m_source_file_index>  (371) 
47

>  <i_lp_mmshare_version>  (371) 
48012

>  <i_f3d_flags>  (371) 
0

>  <s_epik_input>  (371) 
W0NIM11PL049QyhcW0NIM10pYyhbY0hdMSluYyhuMTIpW2NIXW5bY0hdbjI=

>  <s_epik_cmdline>  (371) 
J2VwaWtfcHl0aG9uJywgJy1waHQnLCAnMi4wJywgJy1waCcsICc3LjAnLCAnLXRuJywgJzgnLCAnLW1hJywgJzIwMCcsICctaW1hZScsICc8aW5maWxlLm1hZT4nLCAnLW9tYWUnLCAnPG91dGZpbGUubWFlPic=

>  <r_lp_tautomer_probability>  (371) 
1

>  <r_epik_Ionization_Penalty>  (371) 
2.36267e-05

>  <r_epik_Ionization_Penalty_Charging>  (371) 
2.36138e-05

>  <r_epik_Ionization_Penalty_Neutral>  (371) 
1.29594e-08

>  <r_epik_State_Penalty>  (371) 
-0

>  <r_epik_Charging_Adjusted_Penalty>  (371) 
2.36138e-05

>  <i_epik_Tot_Q>  (371) 
0

>  <i_epik_Tot_abs_Q>  (371) 
0

>  <s_epik_Chemistry_Notes>  (371) 
This compound has an imine and may undergo hydrolysis.

>  <s_lp_Force_Field>  (371) 
OPLS3e

>  <r_lp_Energy>  (371) 
17.5175

>  <b_lp_Chiralities_Consistent>  (371) 
1

>  <s_lp_Variant>  (371) 
87:0-2

>  <s_i_glide_gridfile>  (371) 
pfpi4k_grid

>  <i_i_glide_lignum>  (371) 
47

>  <i_i_glide_rotatable_bonds>  (371) 
2

>  <r_i_docking_score>  (371) 
-5.32892

>  <r_i_glide_ligand_efficiency>  (371) 
-0.380637

>  <r_i_glide_ligand_efficiency_sa>  (371) 
-0.91739

>  <r_i_glide_ligand_efficiency_ln>  (371) 
-1.46437

>  <r_i_glide_gscore>  (371) 
-5.32892

>  <r_i_glide_lipo>  (371) 
-0.937247

>  <r_i_glide_hbond>  (371) 
0

>  <r_i_glide_metal>  (371) 
-0

>  <r_i_glide_rewards>  (371) 
-3.02327

>  <r_i_glide_evdw>  (371) 
-26.4325

>  <r_i_glide_ecoul>  (371) 
-2.82837

>  <r_i_glide_erotb>  (371) 
0.440073

>  <r_i_glide_esite>  (371) 
-0.062596

>  <r_i_glide_emodel>  (371) 
-38.8721

>  <r_i_glide_energy>  (371) 
-29.2609

>  <r_i_glide_einternal>  (371) 
0.107861

>  <r_i_glide_intrahb_reward>  (371) 
-0

>  <i_i_glide_confnum>  (371) 
1

>  <i_i_glide_posenum>  (371) 
20

>  <r_i_glide_eff_state_penalty>  (371) 
0

>  <ligand_id>  (371) 
87

>  <original_smiles>  (371) 
CON=C(C)c1cn2ncncc2n1

>  <smiles>  (371) 
[H]c1nc([H])c2nc(C(=NOC([H])([H])[H])C([H])([H])[H])c([H])n2n1

$$$$
87:1:1
     RDKit          3D

 23 24  0  0  1  0  0  0  0  0999 V2000
   -4.0869   -8.2609   -5.1207 C   0  0  0  0  0  0  0  0  0  0  0  0
   -5.1766   -7.4902   -5.5872 O   0  0  0  0  0  0  0  0  0  0  0  0
   -5.3367   -6.4022   -4.7253 N   0  0  0  0  0  0  0  0  0  0  0  0
   -6.3603   -5.6820   -4.9606 C   0  0  0  0  0  0  0  0  0  0  0  0
   -6.5666   -4.5093   -4.0112 C   0  0  0  0  0  0  0  0  0  0  0  0
   -7.3937   -5.8243   -6.0426 C   0  0  0  0  0  0  0  0  0  0  0  0
   -7.3880   -6.7565   -7.0631 C   0  0  0  0  0  0  0  0  0  0  0  0
   -8.5075   -6.4917   -7.8192 N   0  0  0  0  0  0  0  0  0  0  0  0
   -8.8433   -7.1920   -8.9041 N   0  0  0  0  0  0  0  0  0  0  0  0
   -9.9894   -6.7272   -9.4601 C   0  0  0  0  0  0  0  0  0  0  0  0
  -10.7560   -5.6882   -9.0430 N   0  0  0  0  0  0  0  0  0  0  0  0
  -10.3569   -5.0550   -7.9185 C   0  0  0  0  0  0  0  0  0  0  0  0
   -9.1738   -5.4164   -7.2422 C   0  0  0  0  0  0  0  0  0  0  0  0
   -8.5152   -4.9957   -6.1719 N   0  0  0  0  0  0  0  0  0  0  0  0
   -3.9409   -9.1068   -5.7924 H   0  0  0  0  0  0  0  0  0  0  0  0
   -4.2664   -8.6534   -4.1163 H   0  0  0  0  0  0  0  0  0  0  0  0
   -3.1652   -7.6745   -5.1205 H   0  0  0  0  0  0  0  0  0  0  0  0
   -7.4349   -3.9070   -4.2630 H   0  0  0  0  0  0  0  0  0  0  0  0
   -5.7034   -3.8432   -4.0398 H   0  0  0  0  0  0  0  0  0  0  0  0
   -6.7026   -4.8624   -2.9870 H   0  0  0  0  0  0  0  0  0  0  0  0
   -6.7334   -7.5615   -7.3606 H   0  0  0  0  0  0  0  0  0  0  0  0
  -10.3442   -7.2490  -10.3373 H   0  0  0  0  0  0  0  0  0  0  0  0
  -10.9649   -4.2443   -7.5412 H   0  0  0  0  0  0  0  0  0  0  0  0
  1  2  1  0
  1 15  1  0
  1 16  1  0
  1 17  1  0
  2  3  1  0
  3  4  2  3
  4  5  1  0
  4  6  1  0
  5 18  1  0
  5 19  1  0
  5 20  1  0
  6 14  1  0
  6  7  2  0
  7  8  1  0
  7 21  1  0
  8 13  1  0
  8  9  1  0
  9 10  2  0
 10 11  1  0
 10 22  1  0
 11 12  2  0
 12 13  1  0
 12 23  1  0
 13 14  2  0
M  END
>  <i_m_ct_stereo_status>  (372) 
1

>  <s_m_source_file>  (372) 
/var/tmp/pbs.5076255.sched01/tmp8hdfbsd6/1003312lgh9.sdf

>  <i_m_source_file_index>  (372) 
47

>  <i_lp_mmshare_version>  (372) 
48012

>  <i_f3d_flags>  (372) 
0

>  <s_epik_input>  (372) 
W0NIM11PL049QyhcW0NIM10pYyhbY0hdMSluYyhuMTIpW2NIXW5bY0hdbjI=

>  <s_epik_cmdline>  (372) 
J2VwaWtfcHl0aG9uJywgJy1waHQnLCAnMi4wJywgJy1waCcsICc3LjAnLCAnLXRuJywgJzgnLCAnLW1hJywgJzIwMCcsICctaW1hZScsICc8aW5maWxlLm1hZT4nLCAnLW9tYWUnLCAnPG91dGZpbGUubWFlPic=

>  <r_lp_tautomer_probability>  (372) 
1

>  <r_epik_Ionization_Penalty>  (372) 
2.36267e-05

>  <r_epik_Ionization_Penalty_Charging>  (372) 
2.36138e-05

>  <r_epik_Ionization_Penalty_Neutral>  (372) 
1.29594e-08

>  <r_epik_State_Penalty>  (372) 
-0

>  <r_epik_Charging_Adjusted_Penalty>  (372) 
2.36138e-05

>  <i_epik_Tot_Q>  (372) 
0

>  <i_epik_Tot_abs_Q>  (372) 
0

>  <s_epik_Chemistry_Notes>  (372) 
This compound has an imine and may undergo hydrolysis.

>  <s_lp_Force_Field>  (372) 
OPLS3e

>  <r_lp_Energy>  (372) 
17.5175

>  <b_lp_Chiralities_Consistent>  (372) 
1

>  <s_lp_Variant>  (372) 
87:0-2

>  <s_i_glide_gridfile>  (372) 
pfpi4k_grid

>  <i_i_glide_lignum>  (372) 
47

>  <i_i_glide_rotatable_bonds>  (372) 
2

>  <r_i_docking_score>  (372) 
-5.02882

>  <r_i_glide_ligand_efficiency>  (372) 
-0.359202

>  <r_i_glide_ligand_efficiency_sa>  (372) 
-0.865727

>  <r_i_glide_ligand_efficiency_ln>  (372) 
-1.3819

>  <r_i_glide_gscore>  (372) 
-5.02882

>  <r_i_glide_lipo>  (372) 
-0.755277

>  <r_i_glide_hbond>  (372) 
-0.0185106

>  <r_i_glide_metal>  (372) 
-0

>  <r_i_glide_rewards>  (372) 
-3.08242

>  <r_i_glide_evdw>  (372) 
-26.4168

>  <r_i_glide_ecoul>  (372) 
-1.89844

>  <r_i_glide_erotb>  (372) 
0.440073

>  <r_i_glide_esite>  (372) 
-0.00708479

>  <r_i_glide_emodel>  (372) 
-37.4693

>  <r_i_glide_energy>  (372) 
-28.3153

>  <r_i_glide_einternal>  (372) 
0.119965

>  <r_i_glide_intrahb_reward>  (372) 
-0

>  <i_i_glide_confnum>  (372) 
2

>  <i_i_glide_posenum>  (372) 
16

>  <r_i_glide_eff_state_penalty>  (372) 
0

>  <ligand_id>  (372) 
87

>  <original_smiles>  (372) 
CON=C(C)c1cn2ncncc2n1

>  <smiles>  (372) 
[H]c1nc([H])c2nc(C(=NOC([H])([H])[H])C([H])([H])[H])c([H])n2n1

$$$$
87:1:2
     RDKit          3D

 23 24  0  0  1  0  0  0  0  0999 V2000
   -6.3498   -4.2746   -4.3152 C   0  0  0  0  0  0  0  0  0  0  0  0
   -6.3551   -5.3694   -5.2085 O   0  0  0  0  0  0  0  0  0  0  0  0
   -5.3965   -6.2886   -4.7809 N   0  0  0  0  0  0  0  0  0  0  0  0
   -5.3960   -7.3858   -5.4309 C   0  0  0  0  0  0  0  0  0  0  0  0
   -4.3354   -8.3907   -5.0025 C   0  0  0  0  0  0  0  0  0  0  0  0
   -6.2927   -7.8305   -6.5553 C   0  0  0  0  0  0  0  0  0  0  0  0
   -7.3720   -7.1348   -7.0730 C   0  0  0  0  0  0  0  0  0  0  0  0
   -7.8815   -7.9296   -8.0785 N   0  0  0  0  0  0  0  0  0  0  0  0
   -8.9346   -7.5879   -8.8241 N   0  0  0  0  0  0  0  0  0  0  0  0
   -9.2337   -8.5484   -9.7380 C   0  0  0  0  0  0  0  0  0  0  0  0
   -8.6053   -9.7356   -9.9392 N   0  0  0  0  0  0  0  0  0  0  0  0
   -7.5549  -10.0035   -9.1320 C   0  0  0  0  0  0  0  0  0  0  0  0
   -7.1198   -9.0921   -8.1441 C   0  0  0  0  0  0  0  0  0  0  0  0
   -6.1477   -9.0437   -7.2432 N   0  0  0  0  0  0  0  0  0  0  0  0
   -7.1055   -3.5554   -4.6306 H   0  0  0  0  0  0  0  0  0  0  0  0
   -5.3849   -3.7682   -4.3142 H   0  0  0  0  0  0  0  0  0  0  0  0
   -6.5889   -4.5925   -3.2970 H   0  0  0  0  0  0  0  0  0  0  0  0
   -4.3735   -9.3192   -5.5675 H   0  0  0  0  0  0  0  0  0  0  0  0
   -4.4679   -8.6535   -3.9519 H   0  0  0  0  0  0  0  0  0  0  0  0
   -3.3360   -7.9704   -5.1311 H   0  0  0  0  0  0  0  0  0  0  0  0
   -7.8389   -6.1841   -6.8621 H   0  0  0  0  0  0  0  0  0  0  0  0
  -10.0804   -8.3484  -10.3796 H   0  0  0  0  0  0  0  0  0  0  0  0
   -7.0284  -10.9340   -9.2823 H   0  0  0  0  0  0  0  0  0  0  0  0
  1  2  1  0
  1 15  1  0
  1 16  1  0
  1 17  1  0
  2  3  1  0
  3  4  2  3
  4  5  1  0
  4  6  1  0
  5 18  1  0
  5 19  1  0
  5 20  1  0
  6 14  1  0
  6  7  2  0
  7  8  1  0
  7 21  1  0
  8 13  1  0
  8  9  1  0
  9 10  2  0
 10 11  1  0
 10 22  1  0
 11 12  2  0
 12 13  1  0
 12 23  1  0
 13 14  2  0
M  END
>  <i_m_ct_stereo_status>  (373) 
1

>  <s_m_source_file>  (373) 
/var/tmp/pbs.5076255.sched01/tmp8hdfbsd6/1003312lgh9.sdf

>  <i_m_source_file_index>  (373) 
47

>  <i_lp_mmshare_version>  (373) 
48012

>  <i_f3d_flags>  (373) 
0

>  <s_epik_input>  (373) 
W0NIM11PL049QyhcW0NIM10pYyhbY0hdMSluYyhuMTIpW2NIXW5bY0hdbjI=

>  <s_epik_cmdline>  (373) 
J2VwaWtfcHl0aG9uJywgJy1waHQnLCAnMi4wJywgJy1waCcsICc3LjAnLCAnLXRuJywgJzgnLCAnLW1hJywgJzIwMCcsICctaW1hZScsICc8aW5maWxlLm1hZT4nLCAnLW9tYWUnLCAnPG91dGZpbGUubWFlPic=

>  <r_lp_tautomer_probability>  (373) 
1

>  <r_epik_Ionization_Penalty>  (373) 
2.36267e-05

>  <r_epik_Ionization_Penalty_Charging>  (373) 
2.36138e-05

>  <r_epik_Ionization_Penalty_Neutral>  (373) 
1.29594e-08

>  <r_epik_State_Penalty>  (373) 
-0

>  <r_epik_Charging_Adjusted_Penalty>  (373) 
2.36138e-05

>  <i_epik_Tot_Q>  (373) 
0

>  <i_epik_Tot_abs_Q>  (373) 
0

>  <s_epik_Chemistry_Notes>  (373) 
This compound has an imine and may undergo hydrolysis.

>  <s_lp_Force_Field>  (373) 
OPLS3e

>  <r_lp_Energy>  (373) 
17.5175

>  <b_lp_Chiralities_Consistent>  (373) 
1

>  <s_lp_Variant>  (373) 
87:0-2

>  <s_i_glide_gridfile>  (373) 
pfpi4k_grid

>  <i_i_glide_lignum>  (373) 
47

>  <i_i_glide_rotatable_bonds>  (373) 
2

>  <r_i_docking_score>  (373) 
-5.02154

>  <r_i_glide_ligand_efficiency>  (373) 
-0.358682

>  <r_i_glide_ligand_efficiency_sa>  (373) 
-0.864474

>  <r_i_glide_ligand_efficiency_ln>  (373) 
-1.3799

>  <r_i_glide_gscore>  (373) 
-5.02154

>  <r_i_glide_lipo>  (373) 
-0.85973

>  <r_i_glide_hbond>  (373) 
0

>  <r_i_glide_metal>  (373) 
-0

>  <r_i_glide_rewards>  (373) 
-3.06929

>  <r_i_glide_evdw>  (373) 
-24.921

>  <r_i_glide_ecoul>  (373) 
-1.91029

>  <r_i_glide_erotb>  (373) 
0.440073

>  <r_i_glide_esite>  (373) 
0

>  <r_i_glide_emodel>  (373) 
-35.9706

>  <r_i_glide_energy>  (373) 
-26.8312

>  <r_i_glide_einternal>  (373) 
0.163114

>  <r_i_glide_intrahb_reward>  (373) 
-0

>  <i_i_glide_confnum>  (373) 
2

>  <i_i_glide_posenum>  (373) 
34

>  <r_i_glide_eff_state_penalty>  (373) 
0

>  <ligand_id>  (373) 
87

>  <original_smiles>  (373) 
CON=C(C)c1cn2ncncc2n1

>  <smiles>  (373) 
[H]c1nc([H])c2nc(C(=NOC([H])([H])[H])C([H])([H])[H])c([H])n2n1

$$$$
88:0:0
     RDKit          3D

 89 96  0  0  1  0  0  0  0  0999 V2000
    4.2812   -3.7732   -0.1467 C   0  0  0  0  0  0  0  0  0  0  0  0
    4.5981   -3.4135    1.3146 C   0  0  2  0  0  0  0  0  0  0  0  0
    3.8939   -4.3378    2.4189 C   0  0  1  0  0  0  0  0  0  0  0  0
    2.4878   -4.7820    1.9384 C   0  0  0  0  0  0  0  0  0  0  0  0
    4.7303   -5.6164    2.8082 C   0  0  2  0  0  0  0  0  0  0  0  0
    6.2766   -5.5404    2.8350 C   0  0  2  0  0  0  0  0  0  0  0  0
    6.7119   -6.2571    1.5554 C   0  0  0  0  0  0  0  0  0  0  0  0
    5.9621   -7.5323    1.9273 C   0  0  2  0  0  0  0  0  0  0  0  0
    6.0429   -8.5511    0.9218 O   0  0  0  0  0  0  0  0  0  0  0  0
    4.5453   -6.9018    1.9724 C   0  0  1  0  0  0  0  0  0  0  0  0
    3.5475   -7.6779    2.5949 O   0  0  0  0  0  0  0  0  0  0  0  0
    3.0327   -8.7236    1.8097 C   0  0  0  0  0  0  0  0  0  0  0  0
    1.5898   -8.9089    2.1600 C   0  0  0  0  0  0  0  0  0  0  0  0
    1.1973  -10.0507    2.8730 C   0  0  0  0  0  0  0  0  0  0  0  0
   -0.1482  -10.2076    3.2224 C   0  0  0  0  0  0  0  0  0  0  0  0
   -1.1211   -9.2607    2.8473 C   0  0  0  0  0  0  0  0  0  0  0  0
   -0.7291   -8.1150    2.1369 C   0  0  0  0  0  0  0  0  0  0  0  0
    0.6290   -7.9275    1.8065 C   0  0  0  0  0  0  0  0  0  0  0  0
    6.6230   -7.8984    3.2987 C   0  0  1  0  0  0  0  0  0  0  0  0
    5.7237   -8.7759    4.1872 C   0  0  0  0  0  0  0  0  0  0  0  0
    7.9619   -8.6556    3.0536 C   0  0  0  0  0  0  0  0  0  0  0  0
    8.8679   -8.6566    4.2844 C   0  0  0  0  0  0  0  0  0  0  0  0
    9.4921   -9.6521    4.6209 O   0  0  0  0  0  0  0  0  0  0  0  0
    8.9488   -7.3618    5.0813 C   0  0  0  0  0  0  0  0  0  0  0  0
    8.3249   -6.2038    4.2881 C   0  0  0  0  0  0  0  0  0  0  0  0
    6.8479   -6.4853    3.9198 C   0  0  1  0  0  0  0  0  0  0  0  0
    3.6755   -3.3869    3.5926 C   0  0  2  0  0  0  0  0  0  0  0  0
    4.8428   -2.5066    3.9322 C   0  0  2  0  0  0  0  0  0  0  0  0
    4.0291   -1.9261    5.0490 C   0  0  1  0  0  0  0  0  0  0  0  0
    3.8539   -0.6914    4.0885 C   0  0  1  0  0  0  0  0  0  0  0  0
    4.1501    0.6927    4.6790 C   0  0  0  0  0  0  0  0  0  0  0  0
    4.8581   -1.3147    3.0276 C   0  0  1  0  0  0  0  0  0  0  0  0
    6.0941   -0.6341    2.9934 O   0  0  0  0  0  0  0  0  0  0  0  0
    4.4512   -1.8257    1.5625 C   0  0  0  0  0  0  0  0  0  0  0  0
    3.1311   -1.4408    1.3453 O   0  0  0  0  0  0  0  0  0  0  0  0
    3.0878   -0.7353    0.1442 C   0  0  0  0  0  0  0  0  0  0  0  0
    4.4651   -0.1513    0.0763 C   0  0  0  0  0  0  0  0  0  0  0  0
    5.2642   -1.1639    0.6355 O   0  0  0  0  0  0  0  0  0  0  0  0
    3.2840   -3.3328    5.0771 C   0  0  0  0  0  0  0  0  0  0  0  0
    1.7992   -3.2184    5.4364 C   0  0  0  0  0  0  0  0  0  0  0  0
    3.8936   -4.4022    5.9761 C   0  0  0  0  0  0  0  0  0  0  0  0
    3.2312   -3.6400   -0.3973 H   0  0  0  0  0  0  0  0  0  0  0  0
    4.5029   -4.8138   -0.3461 H   0  0  0  0  0  0  0  0  0  0  0  0
    4.8782   -3.1822   -0.8436 H   0  0  0  0  0  0  0  0  0  0  0  0
    5.6736   -3.5286    1.3754 H   0  0  0  0  0  0  0  0  0  0  0  0
    1.9571   -5.3207    2.7217 H   0  0  0  0  0  0  0  0  0  0  0  0
    2.5071   -5.4137    1.0536 H   0  0  0  0  0  0  0  0  0  0  0  0
    1.8787   -3.9211    1.6647 H   0  0  0  0  0  0  0  0  0  0  0  0
    4.4012   -5.8721    3.8091 H   0  0  0  0  0  0  0  0  0  0  0  0
    6.6100   -4.5253    2.8927 H   0  0  0  0  0  0  0  0  0  0  0  0
    6.3475   -5.7655    0.6500 H   0  0  0  0  0  0  0  0  0  0  0  0
    7.7951   -6.3632    1.4608 H   0  0  0  0  0  0  0  0  0  0  0  0
    5.5481   -9.2932    1.2247 H   0  0  0  0  0  0  0  0  0  0  0  0
    4.2747   -6.6465    0.9453 H   0  0  0  0  0  0  0  0  0  0  0  0
    3.0895   -8.5115    0.7525 H   0  0  0  0  0  0  0  0  0  0  0  0
    3.6094   -9.6339    1.9615 H   0  0  0  0  0  0  0  0  0  0  0  0
    1.9119  -10.8148    3.1514 H   0  0  0  0  0  0  0  0  0  0  0  0
   -0.4311  -11.0648    3.7942 H   0  0  0  0  0  0  0  0  0  0  0  0
   -2.1573   -9.4379    3.1060 H   0  0  0  0  0  0  0  0  0  0  0  0
   -1.4756   -7.3956    1.8348 H   0  0  0  0  0  0  0  0  0  0  0  0
    0.9289   -7.0687    1.2297 H   0  0  0  0  0  0  0  0  0  0  0  0
    6.2503   -9.1013    5.0798 H   0  0  0  0  0  0  0  0  0  0  0  0
    5.3966   -9.6680    3.6535 H   0  0  0  0  0  0  0  0  0  0  0  0
    4.8427   -8.2397    4.5347 H   0  0  0  0  0  0  0  0  0  0  0  0
    7.7555   -9.6872    2.7820 H   0  0  0  0  0  0  0  0  0  0  0  0
    8.5335   -8.2302    2.2279 H   0  0  0  0  0  0  0  0  0  0  0  0
    8.4269   -7.5020    6.0303 H   0  0  0  0  0  0  0  0  0  0  0  0
    9.9933   -7.1546    5.3252 H   0  0  0  0  0  0  0  0  0  0  0  0
    8.3863   -5.3115    4.9018 H   0  0  0  0  0  0  0  0  0  0  0  0
    8.9314   -6.0062    3.3994 H   0  0  0  0  0  0  0  0  0  0  0  0
    6.2733   -6.3779    4.8381 H   0  0  0  0  0  0  0  0  0  0  0  0
    2.8161   -2.8157    3.2595 H   0  0  0  0  0  0  0  0  0  0  0  0
    5.7705   -2.9717    4.2593 H   0  0  0  0  0  0  0  0  0  0  0  0
    4.6735   -1.7350    5.9025 H   0  0  0  0  0  0  0  0  0  0  0  0
    2.8453   -0.6965    3.6747 H   0  0  0  0  0  0  0  0  0  0  0  0
    5.1306    0.7479    5.1496 H   0  0  0  0  0  0  0  0  0  0  0  0
    3.4158    0.9545    5.4331 H   0  0  0  0  0  0  0  0  0  0  0  0
    4.1100    1.4650    3.9141 H   0  0  0  0  0  0  0  0  0  0  0  0
    6.6528   -1.1492    2.4376 H   0  0  0  0  0  0  0  0  0  0  0  0
    2.9851   -1.4209   -0.6887 H   0  0  0  0  0  0  0  0  0  0  0  0
    2.2943    0.0076    0.1586 H   0  0  0  0  0  0  0  0  0  0  0  0
    4.7466    0.0381   -0.9592 H   0  0  0  0  0  0  0  0  0  0  0  0
    4.5109    0.7607    0.6715 H   0  0  0  0  0  0  0  0  0  0  0  0
    1.6709   -3.0001    6.4974 H   0  0  0  0  0  0  0  0  0  0  0  0
    1.2368   -4.1239    5.1996 H   0  0  0  0  0  0  0  0  0  0  0  0
    1.3304   -2.3882    4.9066 H   0  0  0  0  0  0  0  0  0  0  0  0
    3.8300   -4.1355    7.0318 H   0  0  0  0  0  0  0  0  0  0  0  0
    4.9466   -4.5470    5.7393 H   0  0  0  0  0  0  0  0  0  0  0  0
    3.3938   -5.3619    5.8309 H   0  0  0  0  0  0  0  0  0  0  0  0
  1  2  1  0
  1 42  1  0
  1 43  1  0
  1 44  1  0
  2 34  1  0
  2  3  1  0
  2 45  1  6
  3  4  1  6
  3  5  1  0
  3 27  1  0
  4 46  1  0
  4 47  1  0
  4 48  1  0
  5 10  1  0
  5  6  1  0
  5 49  1  1
  6 26  1  0
  6  7  1  0
  6 50  1  1
  7  8  1  0
  7 51  1  0
  7 52  1  0
  8  9  1  6
  8 10  1  0
  8 19  1  0
  9 53  1  0
 10 11  1  0
 10 54  1  6
 11 12  1  0
 12 13  1  0
 12 55  1  0
 12 56  1  0
 13 18  1  0
 13 14  2  0
 14 15  1  0
 14 57  1  0
 15 16  2  0
 15 58  1  0
 16 17  1  0
 16 59  1  0
 17 18  2  0
 17 60  1  0
 18 61  1  0
 19 26  1  0
 19 20  1  1
 19 21  1  0
 20 62  1  0
 20 63  1  0
 20 64  1  0
 21 22  1  0
 21 65  1  0
 21 66  1  0
 22 23  2  0
 22 24  1  0
 24 25  1  0
 24 67  1  0
 24 68  1  0
 25 26  1  0
 25 69  1  0
 25 70  1  0
 26 71  1  1
 27 39  1  0
 27 28  1  0
 27 72  1  6
 28 32  1  0
 28 29  1  0
 28 73  1  1
 29 30  1  0
 29 39  1  0
 29 74  1  1
 30 31  1  0
 30 32  1  0
 30 75  1  6
 31 76  1  0
 31 77  1  0
 31 78  1  0
 32 33  1  6
 32 34  1  0
 33 79  1  0
 34 38  1  0
 34 35  1  0
 35 36  1  0
 36 37  1  0
 36 80  1  0
 36 81  1  0
 37 38  1  0
 37 82  1  0
 37 83  1  0
 39 40  1  0
 39 41  1  0
 40 84  1  0
 40 85  1  0
 40 86  1  0
 41 87  1  0
 41 88  1  0
 41 89  1  0
M  END
>  <i_m_ct_stereo_status>  (374) 
1

>  <s_m_source_file>  (374) 
/var/tmp/pbs.5076255.sched01/tmp8hdfbsd6/1003312lgh9.sdf

>  <i_m_source_file_index>  (374) 
48

>  <i_lp_mmshare_version>  (374) 
48012

>  <i_f3d_flags>  (374) 
0

>  <s_epik_input>  (374) 
TzFbQ0gyXVtDSDJdT0MxMltDQF0zKFtPSF0pW0NAQEhdNFtDQEhdKEMoW0NIM10pKFtDSDNdKVtDQEBIXTRbQ0BIXTNbQ0gzXSlbQ0BAXShbQ0gzXSkoW0NASF0yW0NIM10pW0NASF0oW0NASF0oW0NIMl01KVtDQEBIXShbQ0BAXTYoW0NIM10pW0NAXTU3W09IXSlbQ0gyXVtDSDJdQyg9TylbQ0gyXTYpW0NAQEhdN09bQ0gyXWM4W2NIXVtjSF1bY0hdW2NIXVtjSF04

>  <s_epik_cmdline>  (374) 
J2VwaWtfcHl0aG9uJywgJy1waHQnLCAnMi4wJywgJy1waCcsICc3LjAnLCAnLXRuJywgJzgnLCAnLW1hJywgJzIwMCcsICctaW1hZScsICc8aW5maWxlLm1hZT4nLCAnLW9tYWUnLCAnPG91dGZpbGUubWFlPic=

>  <r_lp_tautomer_probability>  (374) 
1

>  <r_epik_Ionization_Penalty>  (374) 
1.13306e-07

>  <r_epik_Ionization_Penalty_Charging>  (374) 
0

>  <r_epik_Ionization_Penalty_Neutral>  (374) 
1.13306e-07

>  <r_epik_State_Penalty>  (374) 
-0

>  <r_epik_Charging_Adjusted_Penalty>  (374) 
0

>  <i_epik_Tot_Q>  (374) 
0

>  <i_epik_Tot_abs_Q>  (374) 
0

>  <s_lp_Force_Field>  (374) 
OPLS3e

>  <r_lp_Energy>  (374) 
142.213

>  <b_lp_Chiralities_Consistent>  (374) 
1

>  <s_lp_Variant>  (374) 
88:0-1

>  <s_i_glide_gridfile>  (374) 
pfpi4k_grid

>  <i_i_glide_lignum>  (374) 
48

>  <i_i_glide_rotatable_bonds>  (374) 
6

>  <r_i_docking_score>  (374) 
-1.69002

>  <r_i_glide_ligand_efficiency>  (374) 
-0.0412199

>  <r_i_glide_ligand_efficiency_sa>  (374) 
-0.142135

>  <r_i_glide_ligand_efficiency_ln>  (374) 
-0.358543

>  <r_i_glide_gscore>  (374) 
-1.69002

>  <r_i_glide_lipo>  (374) 
-0.579024

>  <r_i_glide_hbond>  (374) 
0

>  <r_i_glide_metal>  (374) 
-0

>  <r_i_glide_rewards>  (374) 
-0.0232775

>  <r_i_glide_evdw>  (374) 
-18.7618

>  <r_i_glide_ecoul>  (374) 
-2.13479

>  <r_i_glide_erotb>  (374) 
0.176526

>  <r_i_glide_esite>  (374) 
-0.00593061

>  <r_i_glide_emodel>  (374) 
-19.5388

>  <r_i_glide_energy>  (374) 
-20.8966

>  <r_i_glide_einternal>  (374) 
4.27946

>  <r_i_glide_intrahb_reward>  (374) 
-0

>  <i_i_glide_confnum>  (374) 
4

>  <i_i_glide_posenum>  (374) 
23

>  <r_i_glide_eff_state_penalty>  (374) 
0

>  <ligand_id>  (374) 
88

>  <original_smiles>  (374) 
CC1C(C)(C2C3CC(O)(C2OCc2ccccc2)C2(C)CC(=O)CCC32)C2C3C(C(C)C3(O)C13OCCO3)C2(C)C

>  <smiles>  (374) 
[H]OC12C3(OC([H])([H])C([H])([H])O3)C([H])(C([H])([H])[H])C(C([H])([H])[H])(C3([H])C([H])(OC([H])([H])c4c([H])c([H])c([H])c([H])c4[H])C4(O[H])C([H])([H])C3([H])C3([H])C([H])([H])C([H])([H])C(=O)C([H])([H])C34C([H])([H])[H])C3([H])C1([H])C([H])(C2([H])C([H])([H])[H])C3(C([H])([H])[H])C([H])([H])[H]

$$$$
90:0:0
     RDKit          3D

 50 53  0  0  1  0  0  0  0  0999 V2000
    4.0328   -2.5950   -3.6074 C   0  0  0  0  0  0  0  0  0  0  0  0
    3.9079   -3.2369   -2.2645 N   0  0  2  0  0  0  0  0  0  0  0  0
    3.4782   -2.3167   -1.1753 C   0  0  2  0  0  0  0  0  0  0  0  0
    4.5949   -1.2907   -0.8561 C   0  0  0  0  0  0  0  0  0  0  0  0
    5.9246   -1.9869   -0.5076 C   0  0  0  0  0  0  0  0  0  0  0  0
    6.2924   -3.0739   -1.5375 C   0  0  0  0  0  0  0  0  0  0  0  0
    5.0974   -4.0184   -1.8316 C   0  0  1  0  0  0  0  0  0  0  0  0
    4.7355   -4.9228   -0.6179 C   0  0  0  0  0  0  0  0  0  0  0  0
    3.3232   -4.6488   -0.0472 C   0  0  1  0  0  0  0  0  0  0  0  0
    3.1784   -5.3166    1.2037 O   0  0  0  0  0  0  0  0  0  0  0  0
    2.0122   -5.9344    1.5506 C   0  0  0  0  0  0  0  0  0  0  0  0
    1.0356   -6.0560    0.8050 O   0  0  0  0  0  0  0  0  0  0  0  0
    2.0150   -6.4328    3.0170 C   0  0  1  0  0  0  0  0  0  0  0  0
    3.0922   -7.5338    3.1045 C   0  0  0  0  0  0  0  0  0  0  0  0
    2.3582   -5.2740    3.9460 C   0  0  0  0  0  0  0  0  0  0  0  0
    2.2527   -3.9186    3.7257 C   0  0  0  0  0  0  0  0  0  0  0  0
    2.6779   -3.1221    4.8302 C   0  0  0  0  0  0  0  0  0  0  0  0
    3.0784   -3.8695    5.8989 C   0  0  0  0  0  0  0  0  0  0  0  0
    2.9371   -5.5736    5.5715 S   0  0  0  0  0  0  0  0  0  0  0  0
    0.6640   -7.0044    3.3847 C   0  0  0  0  0  0  0  0  0  0  0  0
   -0.2402   -6.5355    4.3080 C   0  0  0  0  0  0  0  0  0  0  0  0
   -1.4041   -7.3010    4.4146 N   0  0  0  0  0  0  0  0  0  0  0  0
   -1.3761   -8.3788    3.6306 C   0  0  0  0  0  0  0  0  0  0  0  0
    0.0815   -8.4927    2.6378 S   0  0  0  0  0  0  0  0  0  0  0  0
    3.0411   -3.1296    0.0775 C   0  0  0  0  0  0  0  0  0  0  0  0
    4.8238   -1.8472   -3.6544 H   0  0  0  0  0  0  0  0  0  0  0  0
    3.1114   -2.0900   -3.9031 H   0  0  0  0  0  0  0  0  0  0  0  0
    4.2579   -3.3352   -4.3749 H   0  0  0  0  0  0  0  0  0  0  0  0
    2.6162   -1.7594   -1.5431 H   0  0  0  0  0  0  0  0  0  0  0  0
    4.7427   -0.6262   -1.7072 H   0  0  0  0  0  0  0  0  0  0  0  0
    4.2871   -0.6339   -0.0404 H   0  0  0  0  0  0  0  0  0  0  0  0
    6.7194   -1.2489   -0.4231 H   0  0  0  0  0  0  0  0  0  0  0  0
    5.8471   -2.4388    0.4795 H   0  0  0  0  0  0  0  0  0  0  0  0
    6.6303   -2.6090   -2.4633 H   0  0  0  0  0  0  0  0  0  0  0  0
    7.1541   -3.6406   -1.1843 H   0  0  0  0  0  0  0  0  0  0  0  0
    5.3754   -4.6586   -2.6663 H   0  0  0  0  0  0  0  0  0  0  0  0
    4.7987   -5.9715   -0.9108 H   0  0  0  0  0  0  0  0  0  0  0  0
    5.4769   -4.7980    0.1716 H   0  0  0  0  0  0  0  0  0  0  0  0
    2.5928   -5.0441   -0.7495 H   0  0  0  0  0  0  0  0  0  0  0  0
    3.0963   -8.0136    4.0820 H   0  0  0  0  0  0  0  0  0  0  0  0
    4.0917   -7.1368    2.9230 H   0  0  0  0  0  0  0  0  0  0  0  0
    2.9249   -8.3242    2.3702 H   0  0  0  0  0  0  0  0  0  0  0  0
    1.9091   -3.4459    2.8131 H   0  0  0  0  0  0  0  0  0  0  0  0
    2.6722   -2.0406    4.7953 H   0  0  0  0  0  0  0  0  0  0  0  0
    3.4438   -3.5231    6.8586 H   0  0  0  0  0  0  0  0  0  0  0  0
   -0.1439   -5.6454    4.9372 H   0  0  0  0  0  0  0  0  0  0  0  0
   -2.1999   -9.1018    3.6364 H   0  0  0  0  0  0  0  0  0  0  0  0
    3.5402   -2.7397    0.9656 H   0  0  0  0  0  0  0  0  0  0  0  0
    1.9764   -2.9708    0.2475 H   0  0  0  0  0  0  0  0  0  0  0  0
    3.1715   -3.9301   -2.3653 H   0  0  0  0  0  0  0  0  0  0  0  0
  1  2  1  0
  1 26  1  0
  1 27  1  0
  1 28  1  0
  2  7  1  0
  2  3  1  0
  2 50  1  6
  3 25  1  0
  3  4  1  0
  3 29  1  6
  4  5  1  0
  4 30  1  0
  4 31  1  0
  5  6  1  0
  5 32  1  0
  5 33  1  0
  6  7  1  0
  6 34  1  0
  6 35  1  0
  7  8  1  0
  7 36  1  6
  8  9  1  0
  8 37  1  0
  8 38  1  0
  9 10  1  0
  9 25  1  0
  9 39  1  6
 10 11  1  0
 11 12  2  0
 11 13  1  0
 13 14  1  6
 13 15  1  0
 13 20  1  0
 14 40  1  0
 14 41  1  0
 14 42  1  0
 15 19  1  0
 15 16  2  0
 16 17  1  0
 16 43  1  0
 17 18  2  0
 17 44  1  0
 18 19  1  0
 18 45  1  0
 20 24  1  0
 20 21  2  0
 21 22  1  0
 21 46  1  0
 22 23  2  0
 23 24  1  0
 23 47  1  0
 25 48  1  0
 25 49  1  0
M  CHG  1   2   1
M  END
>  <i_m_ct_stereo_status>  (375) 
1

>  <s_m_source_file>  (375) 
/var/tmp/pbs.5076255.sched01/tmp8hdfbsd6/1003312lgh9.sdf

>  <i_m_source_file_index>  (375) 
50

>  <i_lp_mmshare_version>  (375) 
48012

>  <i_f3d_flags>  (375) 
0

>  <s_epik_input>  (375) 
W0NIMl0xW0NIMl1bQ0gyXVtDQEhdKE4oW0NIM10pW0NIXTEyKVtDSDJdW0NASF0oW0NIMl0yKU9DKD1PKVtDQEBdKFtDSDNdKShjM1tjSF1bY0hdW2NIXXMzKWM0W2NIXW5bY0hdczQ=

>  <s_epik_cmdline>  (375) 
J2VwaWtfcHl0aG9uJywgJy1waHQnLCAnMi4wJywgJy1waCcsICc3LjAnLCAnLXRuJywgJzgnLCAnLW1hJywgJzIwMCcsICctaW1hZScsICc8aW5maWxlLm1hZT4nLCAnLW9tYWUnLCAnPG91dGZpbGUubWFlPic=

>  <r_epik_Ionization_Penalty>  (375) 
0.00242054

>  <r_epik_Ionization_Penalty_Charging>  (375) 
0.00241086

>  <r_epik_Ionization_Penalty_Neutral>  (375) 
9.68038e-06

>  <r_epik_State_Penalty>  (375) 
0.00166782

>  <r_epik_Charging_Adjusted_Penalty>  (375) 
0.00407868

>  <i_epik_Tot_Q>  (375) 
1

>  <i_epik_Tot_abs_Q>  (375) 
1

>  <s_epik_Chemistry_Notes>  (375) 
This compound has an ester and may undergo hydrolysis at high or low pH.

>  <s_lp_Force_Field>  (375) 
OPLS3e

>  <r_lp_Energy>  (375) 
41.4928

>  <b_lp_Chiralities_Consistent>  (375) 
1

>  <s_lp_Variant>  (375) 
90:0-1

>  <s_i_glide_gridfile>  (375) 
pfpi4k_grid

>  <i_i_glide_lignum>  (375) 
50

>  <i_i_glide_rotatable_bonds>  (375) 
5

>  <r_i_docking_score>  (375) 
-3.24947

>  <r_i_glide_ligand_efficiency>  (375) 
-0.129979

>  <r_i_glide_ligand_efficiency_sa>  (375) 
-0.38006

>  <r_i_glide_ligand_efficiency_ln>  (375) 
-0.770222

>  <r_i_glide_gscore>  (375) 
-3.24947

>  <r_i_glide_lipo>  (375) 
-0.285399

>  <r_i_glide_hbond>  (375) 
-0.16

>  <r_i_glide_metal>  (375) 
-0

>  <r_i_glide_rewards>  (375) 
-0.834914

>  <r_i_glide_evdw>  (375) 
-26.2043

>  <r_i_glide_ecoul>  (375) 
-8.50823

>  <r_i_glide_erotb>  (375) 
0.67944

>  <r_i_glide_esite>  (375) 
-0.0621456

>  <r_i_glide_emodel>  (375) 
-43.05

>  <r_i_glide_energy>  (375) 
-34.7126

>  <r_i_glide_einternal>  (375) 
0.36356

>  <r_i_glide_intrahb_reward>  (375) 
-0

>  <i_i_glide_confnum>  (375) 
2

>  <i_i_glide_posenum>  (375) 
2

>  <r_i_glide_eff_state_penalty>  (375) 
0

>  <ligand_id>  (375) 
90

>  <original_smiles>  (375) 
CN1C2CCCC1CC(OC(=O)C(C)(c1cccs1)c1cncs1)C2

>  <smiles>  (375) 
[H]c1nc([H])c(C(C(=O)OC2([H])C([H])([H])C3([H])C([H])([H])C([H])([H])C([H])([H])C([H])(C2([H])[H])[N+]3([H])C([H])([H])[H])(c2sc([H])c([H])c2[H])C([H])([H])[H])s1

$$$$
90:0:1
     RDKit          3D

 50 53  0  0  1  0  0  0  0  0999 V2000
    0.6664  -11.1296    3.0852 C   0  0  0  0  0  0  0  0  0  0  0  0
    1.2963   -9.7840    2.9057 N   0  0  2  0  0  0  0  0  0  0  0  0
    2.5764   -9.5742    3.6418 C   0  0  2  0  0  0  0  0  0  0  0  0
    2.3132   -9.5116    5.1644 C   0  0  0  0  0  0  0  0  0  0  0  0
    1.2763   -8.4300    5.5249 C   0  0  0  0  0  0  0  0  0  0  0  0
    0.0153   -8.5124    4.6389 C   0  0  0  0  0  0  0  0  0  0  0  0
    0.3700   -8.6344    3.1398 C   0  0  1  0  0  0  0  0  0  0  0  0
    0.9670   -7.3174    2.6092 C   0  0  0  0  0  0  0  0  0  0  0  0
    2.4296   -7.4563    2.1609 C   0  0  1  0  0  0  0  0  0  0  0  0
    3.0111   -6.1609    1.9916 O   0  0  0  0  0  0  0  0  0  0  0  0
    2.8057   -5.4867    0.8233 C   0  0  0  0  0  0  0  0  0  0  0  0
    1.8523   -5.7747    0.0812 O   0  0  0  0  0  0  0  0  0  0  0  0
    3.8490   -4.3576    0.5313 C   0  0  1  0  0  0  0  0  0  0  0  0
    3.4907   -3.2111    1.4960 C   0  0  0  0  0  0  0  0  0  0  0  0
    5.2684   -4.8673    0.8239 C   0  0  0  0  0  0  0  0  0  0  0  0
    5.7254   -6.1623    0.9398 C   0  0  0  0  0  0  0  0  0  0  0  0
    7.1117   -6.2578    1.2572 C   0  0  0  0  0  0  0  0  0  0  0  0
    7.7366   -5.0496    1.2886 C   0  0  0  0  0  0  0  0  0  0  0  0
    6.6071   -3.7522    1.0333 S   0  0  0  0  0  0  0  0  0  0  0  0
    3.7625   -3.8447   -0.9119 C   0  0  0  0  0  0  0  0  0  0  0  0
    4.8013   -3.5423   -1.7757 C   0  0  0  0  0  0  0  0  0  0  0  0
    4.4172   -3.0372   -3.0332 N   0  0  0  0  0  0  0  0  0  0  0  0
    3.0868   -2.9487   -3.1256 C   0  0  0  0  0  0  0  0  0  0  0  0
    2.2218   -3.4425   -1.6706 S   0  0  0  0  0  0  0  0  0  0  0  0
    3.2956   -8.2978    3.1256 C   0  0  0  0  0  0  0  0  0  0  0  0
    0.2866  -11.3193    4.0918 H   0  0  0  0  0  0  0  0  0  0  0  0
    1.3464  -11.9598    2.8733 H   0  0  0  0  0  0  0  0  0  0  0  0
   -0.1766  -11.1956    2.3953 H   0  0  0  0  0  0  0  0  0  0  0  0
    3.2325  -10.4201    3.4378 H   0  0  0  0  0  0  0  0  0  0  0  0
    1.9549  -10.4776    5.5157 H   0  0  0  0  0  0  0  0  0  0  0  0
    3.2393   -9.3437    5.7163 H   0  0  0  0  0  0  0  0  0  0  0  0
    0.9922   -8.5298    6.5729 H   0  0  0  0  0  0  0  0  0  0  0  0
    1.7339   -7.4447    5.4292 H   0  0  0  0  0  0  0  0  0  0  0  0
   -0.5862   -9.3688    4.9417 H   0  0  0  0  0  0  0  0  0  0  0  0
   -0.6226   -7.6439    4.8159 H   0  0  0  0  0  0  0  0  0  0  0  0
   -0.5461   -8.8144    2.5764 H   0  0  0  0  0  0  0  0  0  0  0  0
    0.3437   -6.9709    1.7864 H   0  0  0  0  0  0  0  0  0  0  0  0
    0.9261   -6.5336    3.3611 H   0  0  0  0  0  0  0  0  0  0  0  0
    2.4445   -7.9903    1.2090 H   0  0  0  0  0  0  0  0  0  0  0  0
    4.1132   -2.3326    1.3397 H   0  0  0  0  0  0  0  0  0  0  0  0
    3.6054   -3.5109    2.5393 H   0  0  0  0  0  0  0  0  0  0  0  0
    2.4595   -2.8777    1.3655 H   0  0  0  0  0  0  0  0  0  0  0  0
    5.1418   -7.0740    0.8564 H   0  0  0  0  0  0  0  0  0  0  0  0
    7.5667   -7.2190    1.4354 H   0  0  0  0  0  0  0  0  0  0  0  0
    8.7803   -4.8567    1.4779 H   0  0  0  0  0  0  0  0  0  0  0  0
    5.8769   -3.6409   -1.6115 H   0  0  0  0  0  0  0  0  0  0  0  0
    2.6053   -2.5997   -4.0288 H   0  0  0  0  0  0  0  0  0  0  0  0
    3.5998   -7.6636    3.9574 H   0  0  0  0  0  0  0  0  0  0  0  0
    4.2321   -8.5822    2.6356 H   0  0  0  0  0  0  0  0  0  0  0  0
    1.5426   -9.7361    1.9237 H   0  0  0  0  0  0  0  0  0  0  0  0
  1  2  1  0
  1 26  1  0
  1 27  1  0
  1 28  1  0
  2  7  1  0
  2  3  1  0
  2 50  1  6
  3 25  1  0
  3  4  1  0
  3 29  1  1
  4  5  1  0
  4 30  1  0
  4 31  1  0
  5  6  1  0
  5 32  1  0
  5 33  1  0
  6  7  1  0
  6 34  1  0
  6 35  1  0
  7  8  1  0
  7 36  1  6
  8  9  1  0
  8 37  1  0
  8 38  1  0
  9 10  1  0
  9 25  1  0
  9 39  1  6
 10 11  1  0
 11 12  2  0
 11 13  1  0
 13 14  1  1
 13 15  1  0
 13 20  1  0
 14 40  1  0
 14 41  1  0
 14 42  1  0
 15 19  1  0
 15 16  2  0
 16 17  1  0
 16 43  1  0
 17 18  2  0
 17 44  1  0
 18 19  1  0
 18 45  1  0
 20 24  1  0
 20 21  2  0
 21 22  1  0
 21 46  1  0
 22 23  2  0
 23 24  1  0
 23 47  1  0
 25 48  1  0
 25 49  1  0
M  CHG  1   2   1
M  END
>  <i_m_ct_stereo_status>  (376) 
1

>  <s_m_source_file>  (376) 
/var/tmp/pbs.5076255.sched01/tmp8hdfbsd6/1003312lgh9.sdf

>  <i_m_source_file_index>  (376) 
50

>  <i_lp_mmshare_version>  (376) 
48012

>  <i_f3d_flags>  (376) 
0

>  <s_epik_input>  (376) 
W0NIMl0xW0NIMl1bQ0gyXVtDQEhdKE4oW0NIM10pW0NIXTEyKVtDSDJdW0NASF0oW0NIMl0yKU9DKD1PKVtDQEBdKFtDSDNdKShjM1tjSF1bY0hdW2NIXXMzKWM0W2NIXW5bY0hdczQ=

>  <s_epik_cmdline>  (376) 
J2VwaWtfcHl0aG9uJywgJy1waHQnLCAnMi4wJywgJy1waCcsICc3LjAnLCAnLXRuJywgJzgnLCAnLW1hJywgJzIwMCcsICctaW1hZScsICc8aW5maWxlLm1hZT4nLCAnLW9tYWUnLCAnPG91dGZpbGUubWFlPic=

>  <r_epik_Ionization_Penalty>  (376) 
0.00242054

>  <r_epik_Ionization_Penalty_Charging>  (376) 
0.00241086

>  <r_epik_Ionization_Penalty_Neutral>  (376) 
9.68038e-06

>  <r_epik_State_Penalty>  (376) 
0.00166782

>  <r_epik_Charging_Adjusted_Penalty>  (376) 
0.00407868

>  <i_epik_Tot_Q>  (376) 
1

>  <i_epik_Tot_abs_Q>  (376) 
1

>  <s_epik_Chemistry_Notes>  (376) 
This compound has an ester and may undergo hydrolysis at high or low pH.

>  <s_lp_Force_Field>  (376) 
OPLS3e

>  <r_lp_Energy>  (376) 
41.4928

>  <b_lp_Chiralities_Consistent>  (376) 
1

>  <s_lp_Variant>  (376) 
90:0-1

>  <s_i_glide_gridfile>  (376) 
pfpi4k_grid

>  <i_i_glide_lignum>  (376) 
50

>  <i_i_glide_rotatable_bonds>  (376) 
5

>  <r_i_docking_score>  (376) 
-3.05899

>  <r_i_glide_ligand_efficiency>  (376) 
-0.12236

>  <r_i_glide_ligand_efficiency_sa>  (376) 
-0.357782

>  <r_i_glide_ligand_efficiency_ln>  (376) 
-0.725073

>  <r_i_glide_gscore>  (376) 
-3.05899

>  <r_i_glide_lipo>  (376) 
-0.758389

>  <r_i_glide_hbond>  (376) 
-0.0375054

>  <r_i_glide_metal>  (376) 
-0

>  <r_i_glide_rewards>  (376) 
-0.834914

>  <r_i_glide_evdw>  (376) 
-27.4869

>  <r_i_glide_ecoul>  (376) 
-4.71768

>  <r_i_glide_erotb>  (376) 
0.67944

>  <r_i_glide_esite>  (376) 
-0.0256271

>  <r_i_glide_emodel>  (376) 
-37.121

>  <r_i_glide_energy>  (376) 
-32.2046

>  <r_i_glide_einternal>  (376) 
2.90502

>  <r_i_glide_intrahb_reward>  (376) 
-0

>  <i_i_glide_confnum>  (376) 
1

>  <i_i_glide_posenum>  (376) 
22

>  <r_i_glide_eff_state_penalty>  (376) 
0

>  <ligand_id>  (376) 
90

>  <original_smiles>  (376) 
CN1C2CCCC1CC(OC(=O)C(C)(c1cccs1)c1cncs1)C2

>  <smiles>  (376) 
[H]c1nc([H])c(C(C(=O)OC2([H])C([H])([H])C3([H])C([H])([H])C([H])([H])C([H])([H])C([H])(C2([H])[H])[N+]3([H])C([H])([H])[H])(c2sc([H])c([H])c2[H])C([H])([H])[H])s1

$$$$
90:0:2
     RDKit          3D

 50 53  0  0  1  0  0  0  0  0999 V2000
   -1.6070   -9.7595    2.2450 C   0  0  0  0  0  0  0  0  0  0  0  0
   -0.3862   -8.9292    2.2546 N   0  0  2  0  0  0  0  0  0  0  0  0
    0.8541   -9.6203    2.7038 C   0  0  2  0  0  0  0  0  0  0  0  0
    0.7713   -9.9480    4.2127 C   0  0  0  0  0  0  0  0  0  0  0  0
    0.4816   -8.6921    5.0577 C   0  0  0  0  0  0  0  0  0  0  0  0
   -0.6915   -7.8674    4.4883 C   0  0  0  0  0  0  0  0  0  0  0  0
   -0.5562   -7.6370    2.9632 C   0  0  1  0  0  0  0  0  0  0  0  0
    0.6081   -6.6856    2.6291 C   0  0  0  0  0  0  0  0  0  0  0  0
    1.7288   -7.3496    1.8196 C   0  0  1  0  0  0  0  0  0  0  0  0
    2.8323   -6.4609    1.8729 O   0  0  0  0  0  0  0  0  0  0  0  0
    3.0149   -5.5174    0.9249 C   0  0  0  0  0  0  0  0  0  0  0  0
    2.1571   -5.2695    0.0761 O   0  0  0  0  0  0  0  0  0  0  0  0
    4.3695   -4.7470    1.0533 C   0  0  1  0  0  0  0  0  0  0  0  0
    4.2109   -3.8339    2.2916 C   0  0  0  0  0  0  0  0  0  0  0  0
    5.5250   -5.7448    1.3023 C   0  0  0  0  0  0  0  0  0  0  0  0
    5.5363   -7.1243    1.2442 C   0  0  0  0  0  0  0  0  0  0  0  0
    6.7940   -7.7222    1.5502 C   0  0  0  0  0  0  0  0  0  0  0  0
    7.7759   -6.8089    1.7882 C   0  0  0  0  0  0  0  0  0  0  0  0
    7.1321   -5.1896    1.7517 S   0  0  0  0  0  0  0  0  0  0  0  0
    4.6497   -3.8658   -0.1708 C   0  0  0  0  0  0  0  0  0  0  0  0
    5.8115   -3.7497   -0.9002 C   0  0  0  0  0  0  0  0  0  0  0  0
    5.8003   -2.8210   -1.9461 N   0  0  0  0  0  0  0  0  0  0  0  0
    4.6195   -2.2302   -2.0397 C   0  0  0  0  0  0  0  0  0  0  0  0
    3.4734   -2.6995   -0.7831 S   0  0  0  0  0  0  0  0  0  0  0  0
    2.1006   -8.7566    2.3521 C   0  0  0  0  0  0  0  0  0  0  0  0
   -1.8966  -10.0460    3.2478 H   0  0  0  0  0  0  0  0  0  0  0  0
   -1.4136  -10.6621    1.6773 H   0  0  0  0  0  0  0  0  0  0  0  0
   -2.4499   -9.2418    1.7888 H   0  0  0  0  0  0  0  0  0  0  0  0
    0.9376  -10.5588    2.1553 H   0  0  0  0  0  0  0  0  0  0  0  0
   -0.0130  -10.6842    4.3823 H   0  0  0  0  0  0  0  0  0  0  0  0
    1.6852  -10.4346    4.5581 H   0  0  0  0  0  0  0  0  0  0  0  0
    0.2631   -8.9855    6.0852 H   0  0  0  0  0  0  0  0  0  0  0  0
    1.3784   -8.0746    5.1023 H   0  0  0  0  0  0  0  0  0  0  0  0
   -1.6264   -8.3857    4.7010 H   0  0  0  0  0  0  0  0  0  0  0  0
   -0.7685   -6.9148    5.0154 H   0  0  0  0  0  0  0  0  0  0  0  0
   -1.4705   -7.1671    2.6015 H   0  0  0  0  0  0  0  0  0  0  0  0
    0.2385   -5.8287    2.0710 H   0  0  0  0  0  0  0  0  0  0  0  0
    1.0442   -6.2798    3.5408 H   0  0  0  0  0  0  0  0  0  0  0  0
    1.3854   -7.4922    0.7920 H   0  0  0  0  0  0  0  0  0  0  0  0
    5.0788   -3.1936    2.4346 H   0  0  0  0  0  0  0  0  0  0  0  0
    4.0783   -4.4106    3.2053 H   0  0  0  0  0  0  0  0  0  0  0  0
    3.3476   -3.1742    2.1977 H   0  0  0  0  0  0  0  0  0  0  0  0
    4.7077   -7.7695    0.9906 H   0  0  0  0  0  0  0  0  0  0  0  0
    6.9144   -8.7951    1.5408 H   0  0  0  0  0  0  0  0  0  0  0  0
    8.8282   -7.0026    1.9841 H   0  0  0  0  0  0  0  0  0  0  0  0
    6.7477   -4.2637   -0.7412 H   0  0  0  0  0  0  0  0  0  0  0  0
    4.4249   -1.4999   -2.8242 H   0  0  0  0  0  0  0  0  0  0  0  0
    2.7434   -8.6501    3.2244 H   0  0  0  0  0  0  0  0  0  0  0  0
    2.7131   -9.2853    1.6169 H   0  0  0  0  0  0  0  0  0  0  0  0
   -0.2096   -8.7445    1.2718 H   0  0  0  0  0  0  0  0  0  0  0  0
  1  2  1  0
  1 26  1  0
  1 27  1  0
  1 28  1  0
  2  7  1  0
  2  3  1  0
  2 50  1  6
  3 25  1  0
  3  4  1  0
  3 29  1  6
  4  5  1  0
  4 30  1  0
  4 31  1  0
  5  6  1  0
  5 32  1  0
  5 33  1  0
  6  7  1  0
  6 34  1  0
  6 35  1  0
  7  8  1  0
  7 36  1  6
  8  9  1  0
  8 37  1  0
  8 38  1  0
  9 10  1  0
  9 25  1  0
  9 39  1  6
 10 11  1  0
 11 12  2  0
 11 13  1  0
 13 14  1  1
 13 15  1  0
 13 20  1  0
 14 40  1  0
 14 41  1  0
 14 42  1  0
 15 19  1  0
 15 16  2  0
 16 17  1  0
 16 43  1  0
 17 18  2  0
 17 44  1  0
 18 19  1  0
 18 45  1  0
 20 24  1  0
 20 21  2  0
 21 22  1  0
 21 46  1  0
 22 23  2  0
 23 24  1  0
 23 47  1  0
 25 48  1  0
 25 49  1  0
M  CHG  1   2   1
M  END
>  <i_m_ct_stereo_status>  (377) 
1

>  <s_m_source_file>  (377) 
/var/tmp/pbs.5076255.sched01/tmp8hdfbsd6/1003312lgh9.sdf

>  <i_m_source_file_index>  (377) 
50

>  <i_lp_mmshare_version>  (377) 
48012

>  <i_f3d_flags>  (377) 
0

>  <s_epik_input>  (377) 
W0NIMl0xW0NIMl1bQ0gyXVtDQEhdKE4oW0NIM10pW0NIXTEyKVtDSDJdW0NASF0oW0NIMl0yKU9DKD1PKVtDQEBdKFtDSDNdKShjM1tjSF1bY0hdW2NIXXMzKWM0W2NIXW5bY0hdczQ=

>  <s_epik_cmdline>  (377) 
J2VwaWtfcHl0aG9uJywgJy1waHQnLCAnMi4wJywgJy1waCcsICc3LjAnLCAnLXRuJywgJzgnLCAnLW1hJywgJzIwMCcsICctaW1hZScsICc8aW5maWxlLm1hZT4nLCAnLW9tYWUnLCAnPG91dGZpbGUubWFlPic=

>  <r_epik_Ionization_Penalty>  (377) 
0.00242054

>  <r_epik_Ionization_Penalty_Charging>  (377) 
0.00241086

>  <r_epik_Ionization_Penalty_Neutral>  (377) 
9.68038e-06

>  <r_epik_State_Penalty>  (377) 
0.00166782

>  <r_epik_Charging_Adjusted_Penalty>  (377) 
0.00407868

>  <i_epik_Tot_Q>  (377) 
1

>  <i_epik_Tot_abs_Q>  (377) 
1

>  <s_epik_Chemistry_Notes>  (377) 
This compound has an ester and may undergo hydrolysis at high or low pH.

>  <s_lp_Force_Field>  (377) 
OPLS3e

>  <r_lp_Energy>  (377) 
41.4928

>  <b_lp_Chiralities_Consistent>  (377) 
1

>  <s_lp_Variant>  (377) 
90:0-1

>  <s_i_glide_gridfile>  (377) 
pfpi4k_grid

>  <i_i_glide_lignum>  (377) 
50

>  <i_i_glide_rotatable_bonds>  (377) 
5

>  <r_i_docking_score>  (377) 
-2.88996

>  <r_i_glide_ligand_efficiency>  (377) 
-0.115598

>  <r_i_glide_ligand_efficiency_sa>  (377) 
-0.338011

>  <r_i_glide_ligand_efficiency_ln>  (377) 
-0.685006

>  <r_i_glide_gscore>  (377) 
-2.88996

>  <r_i_glide_lipo>  (377) 
-0.69324

>  <r_i_glide_hbond>  (377) 
-0.00940476

>  <r_i_glide_metal>  (377) 
-0

>  <r_i_glide_rewards>  (377) 
-0.834914

>  <r_i_glide_evdw>  (377) 
-28.2776

>  <r_i_glide_ecoul>  (377) 
-3.95055

>  <r_i_glide_erotb>  (377) 
0.67944

>  <r_i_glide_esite>  (377) 
-0.0253772

>  <r_i_glide_emodel>  (377) 
-37.3207

>  <r_i_glide_energy>  (377) 
-32.2281

>  <r_i_glide_einternal>  (377) 
2.15574

>  <r_i_glide_intrahb_reward>  (377) 
-0

>  <i_i_glide_confnum>  (377) 
1

>  <i_i_glide_posenum>  (377) 
31

>  <r_i_glide_eff_state_penalty>  (377) 
0

>  <ligand_id>  (377) 
90

>  <original_smiles>  (377) 
CN1C2CCCC1CC(OC(=O)C(C)(c1cccs1)c1cncs1)C2

>  <smiles>  (377) 
[H]c1nc([H])c(C(C(=O)OC2([H])C([H])([H])C3([H])C([H])([H])C([H])([H])C([H])([H])C([H])(C2([H])[H])[N+]3([H])C([H])([H])[H])(c2sc([H])c([H])c2[H])C([H])([H])[H])s1

$$$$
90:1:0
     RDKit          3D

 50 53  0  0  1  0  0  0  0  0999 V2000
    0.7199  -12.1377    4.7360 C   0  0  0  0  0  0  0  0  0  0  0  0
    1.5819  -11.0319    5.1954 N   0  0  1  0  0  0  0  0  0  0  0  0
    2.9207  -10.9860    4.5601 C   0  0  2  0  0  0  0  0  0  0  0  0
    3.8644  -10.1413    5.4524 C   0  0  0  0  0  0  0  0  0  0  0  0
    3.3100   -8.7443    5.8035 C   0  0  0  0  0  0  0  0  0  0  0  0
    1.7770   -8.7295    6.0488 C   0  0  0  0  0  0  0  0  0  0  0  0
    0.9586   -9.6881    5.1452 C   0  0  1  0  0  0  0  0  0  0  0  0
    0.7235   -9.2261    3.6727 C   0  0  0  0  0  0  0  0  0  0  0  0
    1.9496   -9.3256    2.7354 C   0  0  1  0  0  0  0  0  0  0  0  0
    2.7851   -8.1788    2.8542 O   0  0  0  0  0  0  0  0  0  0  0  0
    2.6369   -7.0272    2.1619 C   0  0  0  0  0  0  0  0  0  0  0  0
    1.6382   -6.7075    1.5087 O   0  0  0  0  0  0  0  0  0  0  0  0
    3.8898   -6.1116    2.3000 C   0  0  1  0  0  0  0  0  0  0  0  0
    3.9732   -5.5454    3.7559 C   0  0  0  0  0  0  0  0  0  0  0  0
    5.1528   -6.9138    1.9777 C   0  0  0  0  0  0  0  0  0  0  0  0
    5.2787   -8.1640    1.4073 C   0  0  0  0  0  0  0  0  0  0  0  0
    6.6192   -8.6147    1.2989 C   0  0  0  0  0  0  0  0  0  0  0  0
    7.5255   -7.7018    1.7362 C   0  0  0  0  0  0  0  0  0  0  0  0
    6.7424   -6.2649    2.3369 S   0  0  0  0  0  0  0  0  0  0  0  0
    3.7688   -4.9419    1.3393 C   0  0  0  0  0  0  0  0  0  0  0  0
    4.3325   -4.8045    0.0983 C   0  0  0  0  0  0  0  0  0  0  0  0
    4.0539   -3.5820   -0.5233 N   0  0  0  0  0  0  0  0  0  0  0  0
    3.2539   -2.8244    0.2182 C   0  0  0  0  0  0  0  0  0  0  0  0
    2.8080   -3.5308    1.7472 S   0  0  0  0  0  0  0  0  0  0  0  0
    2.8127  -10.5814    3.0557 C   0  0  0  0  0  0  0  0  0  0  0  0
    0.4130  -12.0774    3.6871 H   0  0  0  0  0  0  0  0  0  0  0  0
   -0.1508  -12.1943    5.3710 H   0  0  0  0  0  0  0  0  0  0  0  0
    1.2361  -13.0750    4.8685 H   0  0  0  0  0  0  0  0  0  0  0  0
    3.3308  -11.9962    4.5706 H   0  0  0  0  0  0  0  0  0  0  0  0
    4.0536  -10.6969    6.3817 H   0  0  0  0  0  0  0  0  0  0  0  0
    4.8365  -10.0352    4.9632 H   0  0  0  0  0  0  0  0  0  0  0  0
    3.8352   -8.3291    6.6751 H   0  0  0  0  0  0  0  0  0  0  0  0
    3.5418   -8.1076    4.9576 H   0  0  0  0  0  0  0  0  0  0  0  0
    1.5900   -9.0144    7.0922 H   0  0  0  0  0  0  0  0  0  0  0  0
    1.3893   -7.7146    5.9467 H   0  0  0  0  0  0  0  0  0  0  0  0
   -0.0276   -9.7798    5.6079 H   0  0  0  0  0  0  0  0  0  0  0  0
   -0.0398   -9.8763    3.2466 H   0  0  0  0  0  0  0  0  0  0  0  0
    0.2615   -8.2367    3.6408 H   0  0  0  0  0  0  0  0  0  0  0  0
    1.5992   -9.4153    1.7042 H   0  0  0  0  0  0  0  0  0  0  0  0
    4.7457   -4.7774    3.8363 H   0  0  0  0  0  0  0  0  0  0  0  0
    4.2378   -6.2889    4.5030 H   0  0  0  0  0  0  0  0  0  0  0  0
    3.0324   -5.0853    4.0785 H   0  0  0  0  0  0  0  0  0  0  0  0
    4.4673   -8.7959    1.0750 H   0  0  0  0  0  0  0  0  0  0  0  0
    6.8495   -9.5838    0.8782 H   0  0  0  0  0  0  0  0  0  0  0  0
    8.6102   -7.7837    1.7351 H   0  0  0  0  0  0  0  0  0  0  0  0
    4.9650   -5.5211   -0.4062 H   0  0  0  0  0  0  0  0  0  0  0  0
    2.9181   -1.8576   -0.1180 H   0  0  0  0  0  0  0  0  0  0  0  0
    3.8085  -10.4860    2.6180 H   0  0  0  0  0  0  0  0  0  0  0  0
    2.3686  -11.4205    2.5178 H   0  0  0  0  0  0  0  0  0  0  0  0
    1.7435  -11.2510    6.1819 H   0  0  0  0  0  0  0  0  0  0  0  0
  1  2  1  0
  1 26  1  0
  1 27  1  0
  1 28  1  0
  2  7  1  0
  2  3  1  0
  2 50  1  1
  3 25  1  0
  3  4  1  0
  3 29  1  6
  4  5  1  0
  4 30  1  0
  4 31  1  0
  5  6  1  0
  5 32  1  0
  5 33  1  0
  6  7  1  0
  6 34  1  0
  6 35  1  0
  7  8  1  0
  7 36  1  1
  8  9  1  0
  8 37  1  0
  8 38  1  0
  9 10  1  0
  9 25  1  0
  9 39  1  6
 10 11  1  0
 11 12  2  0
 11 13  1  0
 13 14  1  1
 13 15  1  0
 13 20  1  0
 14 40  1  0
 14 41  1  0
 14 42  1  0
 15 19  1  0
 15 16  2  0
 16 17  1  0
 16 43  1  0
 17 18  2  0
 17 44  1  0
 18 19  1  0
 18 45  1  0
 20 24  1  0
 20 21  2  0
 21 22  1  0
 21 46  1  0
 22 23  2  0
 23 24  1  0
 23 47  1  0
 25 48  1  0
 25 49  1  0
M  CHG  1   2   1
M  END
>  <i_m_ct_stereo_status>  (378) 
1

>  <s_m_source_file>  (378) 
/var/tmp/pbs.5076255.sched01/tmpk5ywl0l3/150lwq6_0yz.sdf

>  <i_m_source_file_index>  (378) 
1

>  <i_lp_mmshare_version>  (378) 
48012

>  <i_f3d_flags>  (378) 
0

>  <s_epik_input>  (378) 
W0NIMl0xW0NIMl1bQ0gyXVtDQEhdKE4oW0NIM10pW0NIXTEyKVtDSDJdW0NASF0oW0NIMl0yKU9DKD1PKVtDQEBdKFtDSDNdKShjM1tjSF1bY0hdW2NIXXMzKWM0W2NIXW5bY0hdczQ=

>  <s_epik_cmdline>  (378) 
J2VwaWtfcHl0aG9uJywgJy1waHQnLCAnMi4wJywgJy1waCcsICc3LjAnLCAnLXRuJywgJzgnLCAnLW1hJywgJzIwMCcsICctaW1hZScsICc8aW5maWxlLm1hZT4nLCAnLW9tYWUnLCAnPG91dGZpbGUubWFlPic=

>  <r_epik_Ionization_Penalty>  (378) 
0.00242054

>  <r_epik_Ionization_Penalty_Charging>  (378) 
0.00241086

>  <r_epik_Ionization_Penalty_Neutral>  (378) 
9.68038e-06

>  <r_epik_State_Penalty>  (378) 
0.00166782

>  <r_epik_Charging_Adjusted_Penalty>  (378) 
0.00407868

>  <i_epik_Tot_Q>  (378) 
1

>  <i_epik_Tot_abs_Q>  (378) 
1

>  <s_epik_Chemistry_Notes>  (378) 
This compound has an ester and may undergo hydrolysis at high or low pH.

>  <s_lp_Force_Field>  (378) 
OPLS3e

>  <r_lp_Energy>  (378) 
40.8696

>  <b_lp_Chiralities_Consistent>  (378) 
1

>  <s_lp_Variant>  (378) 
90:0-2

>  <s_i_glide_gridfile>  (378) 
pfpi4k_grid

>  <i_i_glide_lignum>  (378) 
1

>  <i_i_glide_rotatable_bonds>  (378) 
5

>  <r_i_docking_score>  (378) 
-2.93049

>  <r_i_glide_ligand_efficiency>  (378) 
-0.11722

>  <r_i_glide_ligand_efficiency_sa>  (378) 
-0.342752

>  <r_i_glide_ligand_efficiency_ln>  (378) 
-0.694614

>  <r_i_glide_gscore>  (378) 
-2.93049

>  <r_i_glide_lipo>  (378) 
-0.315831

>  <r_i_glide_hbond>  (378) 
-0.18585

>  <r_i_glide_metal>  (378) 
-0

>  <r_i_glide_rewards>  (378) 
-0.834914

>  <r_i_glide_evdw>  (378) 
-22.7233

>  <r_i_glide_ecoul>  (378) 
-6.99326

>  <r_i_glide_erotb>  (378) 
0.67944

>  <r_i_glide_esite>  (378) 
-0.08818

>  <r_i_glide_emodel>  (378) 
-36.4669

>  <r_i_glide_energy>  (378) 
-29.7166

>  <r_i_glide_einternal>  (378) 
2.18704

>  <r_i_glide_intrahb_reward>  (378) 
-0

>  <i_i_glide_confnum>  (378) 
2

>  <i_i_glide_posenum>  (378) 
38

>  <r_i_glide_eff_state_penalty>  (378) 
0

>  <ligand_id>  (378) 
90

>  <original_smiles>  (378) 
CN1C2CCCC1CC(OC(=O)C(C)(c1cccs1)c1cncs1)C2

>  <smiles>  (378) 
[H]c1nc([H])c(C(C(=O)OC2([H])C([H])([H])C3([H])C([H])([H])C([H])([H])C([H])([H])C([H])(C2([H])[H])[N+]3([H])C([H])([H])[H])(c2sc([H])c([H])c2[H])C([H])([H])[H])s1

$$$$
90:1:1
     RDKit          3D

 50 53  0  0  1  0  0  0  0  0999 V2000
    0.5752  -11.6892    4.5907 C   0  0  0  0  0  0  0  0  0  0  0  0
    1.8771  -10.9982    4.5083 N   0  0  1  0  0  0  0  0  0  0  0  0
    2.4354  -10.8601    3.1429 C   0  0  2  0  0  0  0  0  0  0  0  0
    3.9554  -10.6125    3.2818 C   0  0  0  0  0  0  0  0  0  0  0  0
    4.3344   -9.4217    4.2109 C   0  0  0  0  0  0  0  0  0  0  0  0
    3.4246   -9.3356    5.4591 C   0  0  0  0  0  0  0  0  0  0  0  0
    1.9345   -9.6954    5.2083 C   0  0  1  0  0  0  0  0  0  0  0  0
    1.0692   -8.6227    4.4805 C   0  0  0  0  0  0  0  0  0  0  0  0
    1.3608   -8.4510    2.9706 C   0  0  1  0  0  0  0  0  0  0  0  0
    2.4454   -7.5477    2.8321 O   0  0  0  0  0  0  0  0  0  0  0  0
    2.5660   -6.6213    1.8548 C   0  0  0  0  0  0  0  0  0  0  0  0
    1.6869   -6.3539    1.0317 O   0  0  0  0  0  0  0  0  0  0  0  0
    3.9524   -5.8924    1.8958 C   0  0  1  0  0  0  0  0  0  0  0  0
    4.0621   -5.2191    3.2908 C   0  0  0  0  0  0  0  0  0  0  0  0
    5.1067   -6.8808    1.7152 C   0  0  0  0  0  0  0  0  0  0  0  0
    5.0796   -8.1846    1.2686 C   0  0  0  0  0  0  0  0  0  0  0  0
    6.3542   -8.8270    1.2791 C   0  0  0  0  0  0  0  0  0  0  0  0
    7.3707   -7.9951    1.6530 C   0  0  0  0  0  0  0  0  0  0  0  0
    6.7650   -6.4158    2.0659 S   0  0  0  0  0  0  0  0  0  0  0  0
    4.0162   -4.8307    0.8162 C   0  0  0  0  0  0  0  0  0  0  0  0
    4.8165   -4.8145   -0.3074 C   0  0  0  0  0  0  0  0  0  0  0  0
    4.6652   -3.6823   -1.1142 N   0  0  0  0  0  0  0  0  0  0  0  0
    3.7317   -2.8681   -0.6308 C   0  0  0  0  0  0  0  0  0  0  0  0
    3.0129   -3.3927    0.8760 S   0  0  0  0  0  0  0  0  0  0  0  0
    1.6433   -9.8181    2.2915 C   0  0  0  0  0  0  0  0  0  0  0  0
   -0.1877  -11.1196    4.0649 H   0  0  0  0  0  0  0  0  0  0  0  0
    0.2550  -11.8192    5.6270 H   0  0  0  0  0  0  0  0  0  0  0  0
    0.6186  -12.6682    4.1229 H   0  0  0  0  0  0  0  0  0  0  0  0
    2.3391  -11.8255    2.6450 H   0  0  0  0  0  0  0  0  0  0  0  0
    4.4076  -11.5186    3.6940 H   0  0  0  0  0  0  0  0  0  0  0  0
    4.3905  -10.5241    2.2891 H   0  0  0  0  0  0  0  0  0  0  0  0
    5.3841   -9.5190    4.5163 H   0  0  0  0  0  0  0  0  0  0  0  0
    4.3062   -8.4720    3.7053 H   0  0  0  0  0  0  0  0  0  0  0  0
    3.8164  -10.0297    6.2059 H   0  0  0  0  0  0  0  0  0  0  0  0
    3.4942   -8.3441    5.9077 H   0  0  0  0  0  0  0  0  0  0  0  0
    1.4916   -9.8427    6.1927 H   0  0  0  0  0  0  0  0  0  0  0  0
    0.0197   -8.9070    4.5792 H   0  0  0  0  0  0  0  0  0  0  0  0
    1.1457   -7.6625    4.9915 H   0  0  0  0  0  0  0  0  0  0  0  0
    0.4725   -8.0096    2.5057 H   0  0  0  0  0  0  0  0  0  0  0  0
    4.9538   -4.5969    3.3651 H   0  0  0  0  0  0  0  0  0  0  0  0
    4.1112   -5.9436    4.1042 H   0  0  0  0  0  0  0  0  0  0  0  0
    3.2102   -4.5702    3.5010 H   0  0  0  0  0  0  0  0  0  0  0  0
    4.1911   -8.7118    0.9635 H   0  0  0  0  0  0  0  0  0  0  0  0
    6.4695   -9.8616    0.9922 H   0  0  0  0  0  0  0  0  0  0  0  0
    8.4320   -8.2122    1.7060 H   0  0  0  0  0  0  0  0  0  0  0  0
    5.5361   -5.5571   -0.6045 H   0  0  0  0  0  0  0  0  0  0  0  0
    3.4652   -1.9546   -1.1354 H   0  0  0  0  0  0  0  0  0  0  0  0
    2.1067   -9.6845    1.3127 H   0  0  0  0  0  0  0  0  0  0  0  0
    0.6736  -10.2618    2.0642 H   0  0  0  0  0  0  0  0  0  0  0  0
    2.5106  -11.6056    5.0089 H   0  0  0  0  0  0  0  0  0  0  0  0
  1  2  1  0
  1 26  1  0
  1 27  1  0
  1 28  1  0
  2  7  1  0
  2  3  1  0
  2 50  1  1
  3 25  1  0
  3  4  1  0
  3 29  1  6
  4  5  1  0
  4 30  1  0
  4 31  1  0
  5  6  1  0
  5 32  1  0
  5 33  1  0
  6  7  1  0
  6 34  1  0
  6 35  1  0
  7  8  1  0
  7 36  1  1
  8  9  1  0
  8 37  1  0
  8 38  1  0
  9 10  1  0
  9 25  1  0
  9 39  1  6
 10 11  1  0
 11 12  2  0
 11 13  1  0
 13 14  1  1
 13 15  1  0
 13 20  1  0
 14 40  1  0
 14 41  1  0
 14 42  1  0
 15 19  1  0
 15 16  2  0
 16 17  1  0
 16 43  1  0
 17 18  2  0
 17 44  1  0
 18 19  1  0
 18 45  1  0
 20 24  1  0
 20 21  2  0
 21 22  1  0
 21 46  1  0
 22 23  2  0
 23 24  1  0
 23 47  1  0
 25 48  1  0
 25 49  1  0
M  CHG  1   2   1
M  END
>  <i_m_ct_stereo_status>  (379) 
1

>  <s_m_source_file>  (379) 
/var/tmp/pbs.5076255.sched01/tmpk5ywl0l3/150lwq6_0yz.sdf

>  <i_m_source_file_index>  (379) 
1

>  <i_lp_mmshare_version>  (379) 
48012

>  <i_f3d_flags>  (379) 
0

>  <s_epik_input>  (379) 
W0NIMl0xW0NIMl1bQ0gyXVtDQEhdKE4oW0NIM10pW0NIXTEyKVtDSDJdW0NASF0oW0NIMl0yKU9DKD1PKVtDQEBdKFtDSDNdKShjM1tjSF1bY0hdW2NIXXMzKWM0W2NIXW5bY0hdczQ=

>  <s_epik_cmdline>  (379) 
J2VwaWtfcHl0aG9uJywgJy1waHQnLCAnMi4wJywgJy1waCcsICc3LjAnLCAnLXRuJywgJzgnLCAnLW1hJywgJzIwMCcsICctaW1hZScsICc8aW5maWxlLm1hZT4nLCAnLW9tYWUnLCAnPG91dGZpbGUubWFlPic=

>  <r_epik_Ionization_Penalty>  (379) 
0.00242054

>  <r_epik_Ionization_Penalty_Charging>  (379) 
0.00241086

>  <r_epik_Ionization_Penalty_Neutral>  (379) 
9.68038e-06

>  <r_epik_State_Penalty>  (379) 
0.00166782

>  <r_epik_Charging_Adjusted_Penalty>  (379) 
0.00407868

>  <i_epik_Tot_Q>  (379) 
1

>  <i_epik_Tot_abs_Q>  (379) 
1

>  <s_epik_Chemistry_Notes>  (379) 
This compound has an ester and may undergo hydrolysis at high or low pH.

>  <s_lp_Force_Field>  (379) 
OPLS3e

>  <r_lp_Energy>  (379) 
40.8696

>  <b_lp_Chiralities_Consistent>  (379) 
1

>  <s_lp_Variant>  (379) 
90:0-2

>  <s_i_glide_gridfile>  (379) 
pfpi4k_grid

>  <i_i_glide_lignum>  (379) 
1

>  <i_i_glide_rotatable_bonds>  (379) 
5

>  <r_i_docking_score>  (379) 
-2.80585

>  <r_i_glide_ligand_efficiency>  (379) 
-0.112234

>  <r_i_glide_ligand_efficiency_sa>  (379) 
-0.328174

>  <r_i_glide_ligand_efficiency_ln>  (379) 
-0.66507

>  <r_i_glide_gscore>  (379) 
-2.80585

>  <r_i_glide_lipo>  (379) 
-0.463991

>  <r_i_glide_hbond>  (379) 
0

>  <r_i_glide_metal>  (379) 
-0

>  <r_i_glide_rewards>  (379) 
-0.834914

>  <r_i_glide_evdw>  (379) 
-25.9323

>  <r_i_glide_ecoul>  (379) 
-5.71481

>  <r_i_glide_erotb>  (379) 
0.67944

>  <r_i_glide_esite>  (379) 
-0.0325498

>  <r_i_glide_emodel>  (379) 
-39.0305

>  <r_i_glide_energy>  (379) 
-31.6471

>  <r_i_glide_einternal>  (379) 
0.596622

>  <r_i_glide_intrahb_reward>  (379) 
-0

>  <i_i_glide_confnum>  (379) 
2

>  <i_i_glide_posenum>  (379) 
14

>  <r_i_glide_eff_state_penalty>  (379) 
0

>  <ligand_id>  (379) 
90

>  <original_smiles>  (379) 
CN1C2CCCC1CC(OC(=O)C(C)(c1cccs1)c1cncs1)C2

>  <smiles>  (379) 
[H]c1nc([H])c(C(C(=O)OC2([H])C([H])([H])C3([H])C([H])([H])C([H])([H])C([H])([H])C([H])(C2([H])[H])[N+]3([H])C([H])([H])[H])(c2sc([H])c([H])c2[H])C([H])([H])[H])s1

$$$$
90:1:2
     RDKit          3D

 50 53  0  0  1  0  0  0  0  0999 V2000
    5.3871   -1.8742   -1.4536 C   0  0  0  0  0  0  0  0  0  0  0  0
    5.2184   -2.3338   -0.0531 N   0  0  1  0  0  0  0  0  0  0  0  0
    3.8882   -2.0815    0.5534 C   0  0  2  0  0  0  0  0  0  0  0  0
    4.0500   -2.0966    2.0936 C   0  0  0  0  0  0  0  0  0  0  0  0
    4.7257   -3.3840    2.6746 C   0  0  0  0  0  0  0  0  0  0  0  0
    5.8730   -3.8951    1.7571 C   0  0  0  0  0  0  0  0  0  0  0  0
    5.6306   -3.7351    0.2282 C   0  0  1  0  0  0  0  0  0  0  0  0
    4.6646   -4.7482   -0.4468 C   0  0  0  0  0  0  0  0  0  0  0  0
    3.1827   -4.5263   -0.0994 C   0  0  1  0  0  0  0  0  0  0  0  0
    2.9468   -5.2028    1.1150 O   0  0  0  0  0  0  0  0  0  0  0  0
    1.8125   -5.8892    1.3584 C   0  0  0  0  0  0  0  0  0  0  0  0
    0.9593   -6.0845    0.5087 O   0  0  0  0  0  0  0  0  0  0  0  0
    1.6791   -6.3552    2.8620 C   0  0  1  0  0  0  0  0  0  0  0  0
    2.8859   -7.2786    3.1268 C   0  0  0  0  0  0  0  0  0  0  0  0
    1.7317   -5.1471    3.8016 C   0  0  0  0  0  0  0  0  0  0  0  0
    1.4819   -3.8161    3.5334 C   0  0  0  0  0  0  0  0  0  0  0  0
    1.6656   -2.9449    4.6469 C   0  0  0  0  0  0  0  0  0  0  0  0
    2.0019   -3.6031    5.8007 C   0  0  0  0  0  0  0  0  0  0  0  0
    2.2037   -5.3064    5.4916 S   0  0  0  0  0  0  0  0  0  0  0  0
    0.3874   -7.1412    3.0861 C   0  0  0  0  0  0  0  0  0  0  0  0
   -0.2246   -8.0093    2.2062 C   0  0  0  0  0  0  0  0  0  0  0  0
   -1.4138   -8.6000    2.6825 N   0  0  0  0  0  0  0  0  0  0  0  0
   -1.6300   -8.2599    3.9560 C   0  0  0  0  0  0  0  0  0  0  0  0
   -0.4718   -7.1285    4.6057 S   0  0  0  0  0  0  0  0  0  0  0  0
    2.8080   -3.0210   -0.0468 C   0  0  0  0  0  0  0  0  0  0  0  0
    4.7410   -2.4096   -2.1542 H   0  0  0  0  0  0  0  0  0  0  0  0
    6.4172   -2.0205   -1.7908 H   0  0  0  0  0  0  0  0  0  0  0  0
    5.1634   -0.8071   -1.5593 H   0  0  0  0  0  0  0  0  0  0  0  0
    3.5934   -1.0626    0.2950 H   0  0  0  0  0  0  0  0  0  0  0  0
    4.6564   -1.2348    2.3808 H   0  0  0  0  0  0  0  0  0  0  0  0
    3.0789   -1.9041    2.5437 H   0  0  0  0  0  0  0  0  0  0  0  0
    5.1266   -3.1573    3.6771 H   0  0  0  0  0  0  0  0  0  0  0  0
    4.0342   -4.1864    2.8458 H   0  0  0  0  0  0  0  0  0  0  0  0
    6.7713   -3.3335    2.0086 H   0  0  0  0  0  0  0  0  0  0  0  0
    6.0986   -4.9383    1.9902 H   0  0  0  0  0  0  0  0  0  0  0  0
    6.6017   -3.8853   -0.2406 H   0  0  0  0  0  0  0  0  0  0  0  0
    4.7630   -4.6617   -1.5264 H   0  0  0  0  0  0  0  0  0  0  0  0
    4.9539   -5.7787   -0.2211 H   0  0  0  0  0  0  0  0  0  0  0  0
    2.5668   -4.9637   -0.8989 H   0  0  0  0  0  0  0  0  0  0  0  0
    2.8473   -7.7185    4.1258 H   0  0  0  0  0  0  0  0  0  0  0  0
    3.8314   -6.7442    3.0512 H   0  0  0  0  0  0  0  0  0  0  0  0
    2.9183   -8.1062    2.4196 H   0  0  0  0  0  0  0  0  0  0  0  0
    1.2272   -3.4225    2.5667 H   0  0  0  0  0  0  0  0  0  0  0  0
    1.5744   -1.8732    4.5562 H   0  0  0  0  0  0  0  0  0  0  0  0
    2.1953   -3.1832    6.7755 H   0  0  0  0  0  0  0  0  0  0  0  0
    0.1000   -8.2567    1.2339 H   0  0  0  0  0  0  0  0  0  0  0  0
   -2.4420   -8.7066    4.4850 H   0  0  0  0  0  0  0  0  0  0  0  0
    1.8446   -2.8548    0.4374 H   0  0  0  0  0  0  0  0  0  0  0  0
    2.6378   -2.6925   -1.0705 H   0  0  0  0  0  0  0  0  0  0  0  0
    5.8433   -1.7722    0.5098 H   0  0  0  0  0  0  0  0  0  0  0  0
  1  2  1  0
  1 26  1  0
  1 27  1  0
  1 28  1  0
  2  7  1  0
  2  3  1  0
  2 50  1  1
  3 25  1  0
  3  4  1  0
  3 29  1  6
  4  5  1  0
  4 30  1  0
  4 31  1  0
  5  6  1  0
  5 32  1  0
  5 33  1  0
  6  7  1  0
  6 34  1  0
  6 35  1  0
  7  8  1  0
  7 36  1  6
  8  9  1  0
  8 37  1  0
  8 38  1  0
  9 10  1  0
  9 25  1  0
  9 39  1  6
 10 11  1  0
 11 12  2  0
 11 13  1  0
 13 14  1  1
 13 15  1  0
 13 20  1  0
 14 40  1  0
 14 41  1  0
 14 42  1  0
 15 19  1  0
 15 16  2  0
 16 17  1  0
 16 43  1  0
 17 18  2  0
 17 44  1  0
 18 19  1  0
 18 45  1  0
 20 24  1  0
 20 21  2  0
 21 22  1  0
 21 46  1  0
 22 23  2  0
 23 24  1  0
 23 47  1  0
 25 48  1  0
 25 49  1  0
M  CHG  1   2   1
M  END
>  <i_m_ct_stereo_status>  (380) 
1

>  <s_m_source_file>  (380) 
/var/tmp/pbs.5076255.sched01/tmpk5ywl0l3/150lwq6_0yz.sdf

>  <i_m_source_file_index>  (380) 
1

>  <i_lp_mmshare_version>  (380) 
48012

>  <i_f3d_flags>  (380) 
0

>  <s_epik_input>  (380) 
W0NIMl0xW0NIMl1bQ0gyXVtDQEhdKE4oW0NIM10pW0NIXTEyKVtDSDJdW0NASF0oW0NIMl0yKU9DKD1PKVtDQEBdKFtDSDNdKShjM1tjSF1bY0hdW2NIXXMzKWM0W2NIXW5bY0hdczQ=

>  <s_epik_cmdline>  (380) 
J2VwaWtfcHl0aG9uJywgJy1waHQnLCAnMi4wJywgJy1waCcsICc3LjAnLCAnLXRuJywgJzgnLCAnLW1hJywgJzIwMCcsICctaW1hZScsICc8aW5maWxlLm1hZT4nLCAnLW9tYWUnLCAnPG91dGZpbGUubWFlPic=

>  <r_epik_Ionization_Penalty>  (380) 
0.00242054

>  <r_epik_Ionization_Penalty_Charging>  (380) 
0.00241086

>  <r_epik_Ionization_Penalty_Neutral>  (380) 
9.68038e-06

>  <r_epik_State_Penalty>  (380) 
0.00166782

>  <r_epik_Charging_Adjusted_Penalty>  (380) 
0.00407868

>  <i_epik_Tot_Q>  (380) 
1

>  <i_epik_Tot_abs_Q>  (380) 
1

>  <s_epik_Chemistry_Notes>  (380) 
This compound has an ester and may undergo hydrolysis at high or low pH.

>  <s_lp_Force_Field>  (380) 
OPLS3e

>  <r_lp_Energy>  (380) 
40.8696

>  <b_lp_Chiralities_Consistent>  (380) 
1

>  <s_lp_Variant>  (380) 
90:0-2

>  <s_i_glide_gridfile>  (380) 
pfpi4k_grid

>  <i_i_glide_lignum>  (380) 
1

>  <i_i_glide_rotatable_bonds>  (380) 
5

>  <r_i_docking_score>  (380) 
-2.69084

>  <r_i_glide_ligand_efficiency>  (380) 
-0.107634

>  <r_i_glide_ligand_efficiency_sa>  (380) 
-0.314723

>  <r_i_glide_ligand_efficiency_ln>  (380) 
-0.63781

>  <r_i_glide_gscore>  (380) 
-2.69084

>  <r_i_glide_lipo>  (380) 
-0.156214

>  <r_i_glide_hbond>  (380) 
-0.164167

>  <r_i_glide_metal>  (380) 
-0

>  <r_i_glide_rewards>  (380) 
-0.834914

>  <r_i_glide_evdw>  (380) 
-23.0264

>  <r_i_glide_ecoul>  (380) 
-6.70369

>  <r_i_glide_erotb>  (380) 
0.67944

>  <r_i_glide_esite>  (380) 
-0.0581134

>  <r_i_glide_emodel>  (380) 
-35.6876

>  <r_i_glide_energy>  (380) 
-29.7301

>  <r_i_glide_einternal>  (380) 
1.56791

>  <r_i_glide_intrahb_reward>  (380) 
-0

>  <i_i_glide_confnum>  (380) 
3

>  <i_i_glide_posenum>  (380) 
4

>  <r_i_glide_eff_state_penalty>  (380) 
0

>  <ligand_id>  (380) 
90

>  <original_smiles>  (380) 
CN1C2CCCC1CC(OC(=O)C(C)(c1cccs1)c1cncs1)C2

>  <smiles>  (380) 
[H]c1nc([H])c(C(C(=O)OC2([H])C([H])([H])C3([H])C([H])([H])C([H])([H])C([H])([H])C([H])(C2([H])[H])[N+]3([H])C([H])([H])[H])(c2sc([H])c([H])c2[H])C([H])([H])[H])s1

$$$$
91:0:0
     RDKit          3D

 55 59  0  0  1  0  0  0  0  0999 V2000
    6.4735   -6.5054    4.0416 C   0  0  0  0  0  0  0  0  0  0  0  0
    6.2690   -5.7228    2.7306 C   0  0  2  0  0  0  0  0  0  0  0  0
    7.6497   -5.4886    2.0869 C   0  0  0  0  0  0  0  0  0  0  0  0
    7.6623   -4.3351    1.0941 C   0  0  0  0  0  0  0  0  0  0  0  0
    6.3175   -4.0871    0.3979 C   0  0  2  0  0  0  0  0  0  0  0  0
    6.4725   -3.0039   -0.7286 C   0  0  1  0  0  0  0  0  0  0  0  0
    7.8061   -3.0059   -1.5459 C   0  0  0  0  0  0  0  0  0  0  0  0
    5.2747   -3.0722   -1.6729 C   0  0  2  0  0  0  0  0  0  0  0  0
    5.2760   -2.0735   -2.6562 O   0  0  0  0  0  0  0  0  0  0  0  0
    3.9339   -1.8722   -2.9349 C   0  0  0  0  0  0  0  0  0  0  0  0
    3.6815   -0.3888   -2.9355 C   0  0  0  0  0  0  0  0  0  0  0  0
    3.6204   -2.4503   -4.2902 C   0  0  0  0  0  0  0  0  0  0  0  0
    3.1202   -2.4963   -1.9710 O   0  0  0  0  0  0  0  0  0  0  0  0
    3.9472   -2.8706   -0.9534 C   0  0  1  0  0  0  0  0  0  0  0  0
    3.6126   -4.0930   -0.4065 O   0  0  0  0  0  0  0  0  0  0  0  0
    3.7803   -4.1318    0.9758 C   0  0  2  0  0  0  0  0  0  0  0  0
    2.7280   -3.4885    1.6390 O   0  0  0  0  0  0  0  0  0  0  0  0
    3.0799   -2.5350    2.6265 C   0  0  1  0  0  0  0  0  0  0  0  0
    1.8206   -1.6889    2.8185 C   0  0  0  0  0  0  0  0  0  0  0  0
    3.4440   -3.2231    3.9565 C   0  0  0  0  0  0  0  0  0  0  0  0
    4.2598   -4.5066    3.8064 C   0  0  0  0  0  0  0  0  0  0  0  0
    5.4770   -4.3952    2.8670 C   0  0  2  0  0  0  0  0  0  0  0  0
    5.2217   -3.7088    1.4824 C   0  0  1  0  0  0  0  0  0  0  0  0
    5.3507   -2.3100    1.7908 O   0  0  0  0  0  0  0  0  0  0  0  0
    4.0540   -1.6270    2.1399 O   0  0  0  0  0  0  0  0  0  0  0  0
    6.9929   -5.9167    4.7966 H   0  0  0  0  0  0  0  0  0  0  0  0
    7.0745   -7.3965    3.8497 H   0  0  0  0  0  0  0  0  0  0  0  0
    5.5287   -6.8507    4.4595 H   0  0  0  0  0  0  0  0  0  0  0  0
    5.7073   -6.3716    2.0541 H   0  0  0  0  0  0  0  0  0  0  0  0
    8.4263   -5.3430    2.8470 H   0  0  0  0  0  0  0  0  0  0  0  0
    7.9292   -6.3926    1.5575 H   0  0  0  0  0  0  0  0  0  0  0  0
    7.8979   -3.4442    1.6650 H   0  0  0  0  0  0  0  0  0  0  0  0
    8.4694   -4.5230    0.3889 H   0  0  0  0  0  0  0  0  0  0  0  0
    6.0179   -5.0331   -0.0701 H   0  0  0  0  0  0  0  0  0  0  0  0
    6.4624   -2.0165   -0.2668 H   0  0  0  0  0  0  0  0  0  0  0  0
    8.1244   -3.9113   -2.0464 H   0  0  0  0  0  0  0  0  0  0  0  0
    8.6795   -2.6986   -0.9670 H   0  0  0  0  0  0  0  0  0  0  0  0
    7.6982   -2.3050   -2.3750 H   0  0  0  0  0  0  0  0  0  0  0  0
    5.2255   -4.0358   -2.1937 H   0  0  0  0  0  0  0  0  0  0  0  0
    3.9805   -0.0399   -1.9568 H   0  0  0  0  0  0  0  0  0  0  0  0
    2.6282   -0.1961   -3.1188 H   0  0  0  0  0  0  0  0  0  0  0  0
    4.2689    0.1284   -3.7015 H   0  0  0  0  0  0  0  0  0  0  0  0
    3.8926   -3.5070   -4.3130 H   0  0  0  0  0  0  0  0  0  0  0  0
    4.2126   -1.8550   -4.9789 H   0  0  0  0  0  0  0  0  0  0  0  0
    2.5591   -2.3132   -4.4797 H   0  0  0  0  0  0  0  0  0  0  0  0
    3.9386   -2.0307   -0.2338 H   0  0  0  0  0  0  0  0  0  0  0  0
    3.6602   -5.1858    1.1786 H   0  0  0  0  0  0  0  0  0  0  0  0
    1.5709   -1.1988    1.8786 H   0  0  0  0  0  0  0  0  0  0  0  0
    1.9752   -0.9187    3.5751 H   0  0  0  0  0  0  0  0  0  0  0  0
    0.9596   -2.2927    3.1164 H   0  0  0  0  0  0  0  0  0  0  0  0
    3.9341   -2.5136    4.6195 H   0  0  0  0  0  0  0  0  0  0  0  0
    2.5253   -3.5027    4.4797 H   0  0  0  0  0  0  0  0  0  0  0  0
    4.6075   -4.7718    4.8035 H   0  0  0  0  0  0  0  0  0  0  0  0
    3.6156   -5.3316    3.4997 H   0  0  0  0  0  0  0  0  0  0  0  0
    6.1491   -3.7210    3.3902 H   0  0  0  0  0  0  0  0  0  0  0  0
  1  2  1  0
  1 26  1  0
  1 27  1  0
  1 28  1  0
  2 22  1  0
  2  3  1  0
  2 29  1  6
  3  4  1  0
  3 30  1  0
  3 31  1  0
  4  5  1  0
  4 32  1  0
  4 33  1  0
  5 23  1  0
  5  6  1  0
  5 34  1  6
  6  7  1  0
  6  8  1  0
  6 35  1  1
  7 36  1  0
  7 37  1  0
  7 38  1  0
  8 14  1  0
  8  9  1  0
  8 39  1  6
  9 10  1  0
 10 11  1  0
 10 12  1  0
 10 13  1  0
 11 40  1  0
 11 41  1  0
 11 42  1  0
 12 43  1  0
 12 44  1  0
 12 45  1  0
 13 14  1  0
 14 15  1  0
 14 46  1  1
 15 16  1  0
 16 23  1  0
 16 17  1  0
 16 47  1  1
 17 18  1  0
 18 25  1  0
 18 19  1  1
 18 20  1  0
 19 48  1  0
 19 49  1  0
 19 50  1  0
 20 21  1  0
 20 51  1  0
 20 52  1  0
 21 22  1  0
 21 53  1  0
 21 54  1  0
 22 23  1  0
 22 55  1  1
 23 24  1  1
 24 25  1  0
M  END
>  <i_m_ct_stereo_status>  (381) 
1

>  <s_m_source_file>  (381) 
/var/tmp/pbs.5076255.sched01/tmpk5ywl0l3/150lwq6_0yz.sdf

>  <i_m_source_file_index>  (381) 
2

>  <i_lp_mmshare_version>  (381) 
48012

>  <i_f3d_flags>  (381) 
0

>  <s_epik_input>  (381) 
W0NAXTEyM1tDQEBIXTRbQ0gyXVtDSDJdW0NAQEhdKFtDSDNdKVtDQEBIXTJbQ0gyXVtDSDJdW0NAQF0oW0NIM10pKE9PMylPW0NASF0xT1tDQEhdNVtDQEhdKFtDQEBIXTRbQ0gzXSlPQyhPNSkoW0NIM10pW0NIM10=

>  <s_epik_cmdline>  (381) 
J2VwaWtfcHl0aG9uJywgJy1waHQnLCAnMi4wJywgJy1waCcsICc3LjAnLCAnLXRuJywgJzgnLCAnLW1hJywgJzIwMCcsICctaW1hZScsICc8aW5maWxlLm1hZT4nLCAnLW9tYWUnLCAnPG91dGZpbGUubWFlPic=

>  <r_lp_tautomer_probability>  (381) 
1

>  <r_epik_Ionization_Penalty>  (381) 
4.18355e-14

>  <r_epik_Ionization_Penalty_Charging>  (381) 
0

>  <r_epik_Ionization_Penalty_Neutral>  (381) 
4.18355e-14

>  <r_epik_State_Penalty>  (381) 
-0

>  <r_epik_Charging_Adjusted_Penalty>  (381) 
0

>  <i_epik_Tot_Q>  (381) 
0

>  <i_epik_Tot_abs_Q>  (381) 
0

>  <s_epik_Chemistry_Notes>  (381) 
This compound contains an acetal/aminal-like group ( X-CH(R)-Y where X, Y are N, S, or O) that may be acid/base labile, releasing an aldehyde.

>  <s_lp_Force_Field>  (381) 
OPLS3e

>  <r_lp_Energy>  (381) 
45.3753

>  <b_lp_Chiralities_Consistent>  (381) 
1

>  <s_lp_Variant>  (381) 
91:0-1

>  <s_i_glide_gridfile>  (381) 
pfpi4k_grid

>  <i_i_glide_lignum>  (381) 
2

>  <i_i_glide_rotatable_bonds>  (381) 
0

>  <r_i_docking_score>  (381) 
-2.54763

>  <r_i_glide_ligand_efficiency>  (381) 
-0.101905

>  <r_i_glide_ligand_efficiency_sa>  (381) 
-0.297972

>  <r_i_glide_ligand_efficiency_ln>  (381) 
-0.603864

>  <r_i_glide_gscore>  (381) 
-2.54763

>  <r_i_glide_lipo>  (381) 
-0.564407

>  <r_i_glide_hbond>  (381) 
0

>  <r_i_glide_metal>  (381) 
-0

>  <r_i_glide_rewards>  (381) 
-1.06449

>  <r_i_glide_evdw>  (381) 
-22.6656

>  <r_i_glide_ecoul>  (381) 
1.5087

>  <r_i_glide_erotb>  (381) 
0

>  <r_i_glide_esite>  (381) 
-0.0117594

>  <r_i_glide_emodel>  (381) 
-24.3274

>  <r_i_glide_energy>  (381) 
-21.1569

>  <r_i_glide_einternal>  (381) 
0

>  <r_i_glide_intrahb_reward>  (381) 
-0

>  <i_i_glide_confnum>  (381) 
2

>  <i_i_glide_posenum>  (381) 
3

>  <r_i_glide_eff_state_penalty>  (381) 
0

>  <ligand_id>  (381) 
91

>  <original_smiles>  (381) 
CC1CCC2C(C)C3OC(C)(C)OC3OC3OC4(C)CCC1C32OO4

>  <smiles>  (381) 
[H]C([H])([H])C1(C([H])([H])[H])OC2([H])OC3([H])OC4(C([H])([H])[H])OOC35C([H])(C([H])([H])C4([H])[H])C([H])(C([H])([H])[H])C([H])([H])C([H])([H])C5([H])C([H])(C([H])([H])[H])C2([H])O1

$$$$
91:0:1
     RDKit          3D

 55 59  0  0  1  0  0  0  0  0999 V2000
    5.1129   -1.4777   -1.6191 C   0  0  0  0  0  0  0  0  0  0  0  0
    4.5418   -1.6862   -0.2027 C   0  0  2  0  0  0  0  0  0  0  0  0
    4.9663   -0.5137    0.6980 C   0  0  0  0  0  0  0  0  0  0  0  0
    4.9277   -0.8419    2.1931 C   0  0  0  0  0  0  0  0  0  0  0  0
    3.8139   -1.8521    2.5556 C   0  0  2  0  0  0  0  0  0  0  0  0
    3.6153   -1.9574    4.1148 C   0  0  1  0  0  0  0  0  0  0  0  0
    3.6055   -0.5833    4.8287 C   0  0  0  0  0  0  0  0  0  0  0  0
    2.2939   -2.6527    4.4798 C   0  0  2  0  0  0  0  0  0  0  0  0
    2.1214   -2.8931    5.8625 O   0  0  0  0  0  0  0  0  0  0  0  0
    1.2911   -4.0054    5.9249 C   0  0  0  0  0  0  0  0  0  0  0  0
    1.9290   -5.0364    6.8678 C   0  0  0  0  0  0  0  0  0  0  0  0
   -0.0975   -3.5564    6.4149 C   0  0  0  0  0  0  0  0  0  0  0  0
    1.1718   -4.5758    4.6500 O   0  0  0  0  0  0  0  0  0  0  0  0
    2.1813   -4.0308    3.8737 C   0  0  1  0  0  0  0  0  0  0  0  0
    1.7919   -3.8359    2.5598 O   0  0  0  0  0  0  0  0  0  0  0  0
    2.7851   -4.0493    1.6030 C   0  0  2  0  0  0  0  0  0  0  0  0
    2.9714   -5.4083    1.3720 O   0  0  0  0  0  0  0  0  0  0  0  0
    4.2930   -5.8899    1.4272 C   0  0  1  0  0  0  0  0  0  0  0  0
    4.1668   -7.4056    1.6452 C   0  0  0  0  0  0  0  0  0  0  0  0
    5.0512   -5.6058    0.1160 C   0  0  0  0  0  0  0  0  0  0  0  0
    4.7842   -4.2304   -0.5044 C   0  0  0  0  0  0  0  0  0  0  0  0
    4.8827   -3.0443    0.4711 C   0  0  2  0  0  0  0  0  0  0  0  0
    4.1188   -3.2364    1.8433 C   0  0  1  0  0  0  0  0  0  0  0  0
    5.0704   -3.9264    2.6626 O   0  0  0  0  0  0  0  0  0  0  0  0
    4.9728   -5.4418    2.5859 O   0  0  0  0  0  0  0  0  0  0  0  0
    6.1984   -1.5705   -1.6336 H   0  0  0  0  0  0  0  0  0  0  0  0
    4.8582   -0.4821   -1.9862 H   0  0  0  0  0  0  0  0  0  0  0  0
    4.6998   -2.1900   -2.3336 H   0  0  0  0  0  0  0  0  0  0  0  0
    3.4589   -1.6418   -0.3006 H   0  0  0  0  0  0  0  0  0  0  0  0
    5.9659   -0.1591    0.4381 H   0  0  0  0  0  0  0  0  0  0  0  0
    4.2933    0.3220    0.4985 H   0  0  0  0  0  0  0  0  0  0  0  0
    5.8880   -1.2488    2.5107 H   0  0  0  0  0  0  0  0  0  0  0  0
    4.8059    0.1112    2.7000 H   0  0  0  0  0  0  0  0  0  0  0  0
    2.8845   -1.4528    2.1330 H   0  0  0  0  0  0  0  0  0  0  0  0
    4.4347   -2.5277    4.5478 H   0  0  0  0  0  0  0  0  0  0  0  0
    2.9093    0.1107    4.3503 H   0  0  0  0  0  0  0  0  0  0  0  0
    4.5942   -0.1232    4.8449 H   0  0  0  0  0  0  0  0  0  0  0  0
    3.3033   -0.6766    5.8732 H   0  0  0  0  0  0  0  0  0  0  0  0
    1.4398   -2.0611    4.1339 H   0  0  0  0  0  0  0  0  0  0  0  0
    2.9060   -5.3392    6.4874 H   0  0  0  0  0  0  0  0  0  0  0  0
    1.2906   -5.9161    6.9379 H   0  0  0  0  0  0  0  0  0  0  0  0
    2.0565   -4.6093    7.8648 H   0  0  0  0  0  0  0  0  0  0  0  0
   -0.5187   -2.8174    5.7305 H   0  0  0  0  0  0  0  0  0  0  0  0
   -0.0001   -3.1000    7.4016 H   0  0  0  0  0  0  0  0  0  0  0  0
   -0.7726   -4.4098    6.4853 H   0  0  0  0  0  0  0  0  0  0  0  0
    3.0732   -4.6492    3.9983 H   0  0  0  0  0  0  0  0  0  0  0  0
    2.3158   -3.6669    0.6993 H   0  0  0  0  0  0  0  0  0  0  0  0
    3.6450   -7.6022    2.5829 H   0  0  0  0  0  0  0  0  0  0  0  0
    5.1466   -7.8894    1.6995 H   0  0  0  0  0  0  0  0  0  0  0  0
    3.5987   -7.8930    0.8509 H   0  0  0  0  0  0  0  0  0  0  0  0
    6.1220   -5.7634    0.2600 H   0  0  0  0  0  0  0  0  0  0  0  0
    4.7561   -6.3396   -0.6394 H   0  0  0  0  0  0  0  0  0  0  0  0
    5.5055   -4.1002   -1.3091 H   0  0  0  0  0  0  0  0  0  0  0  0
    3.8092   -4.2374   -0.9914 H   0  0  0  0  0  0  0  0  0  0  0  0
    5.9422   -2.9825    0.7238 H   0  0  0  0  0  0  0  0  0  0  0  0
  1  2  1  0
  1 26  1  0
  1 27  1  0
  1 28  1  0
  2 22  1  0
  2  3  1  0
  2 29  1  6
  3  4  1  0
  3 30  1  0
  3 31  1  0
  4  5  1  0
  4 32  1  0
  4 33  1  0
  5 23  1  0
  5  6  1  0
  5 34  1  6
  6  7  1  0
  6  8  1  0
  6 35  1  1
  7 36  1  0
  7 37  1  0
  7 38  1  0
  8 14  1  0
  8  9  1  0
  8 39  1  6
  9 10  1  0
 10 11  1  0
 10 12  1  0
 10 13  1  0
 11 40  1  0
 11 41  1  0
 11 42  1  0
 12 43  1  0
 12 44  1  0
 12 45  1  0
 13 14  1  0
 14 15  1  0
 14 46  1  6
 15 16  1  0
 16 23  1  0
 16 17  1  0
 16 47  1  6
 17 18  1  0
 18 25  1  0
 18 19  1  1
 18 20  1  0
 19 48  1  0
 19 49  1  0
 19 50  1  0
 20 21  1  0
 20 51  1  0
 20 52  1  0
 21 22  1  0
 21 53  1  0
 21 54  1  0
 22 23  1  0
 22 55  1  1
 23 24  1  1
 24 25  1  0
M  END
>  <i_m_ct_stereo_status>  (382) 
1

>  <s_m_source_file>  (382) 
/var/tmp/pbs.5076255.sched01/tmpk5ywl0l3/150lwq6_0yz.sdf

>  <i_m_source_file_index>  (382) 
2

>  <i_lp_mmshare_version>  (382) 
48012

>  <i_f3d_flags>  (382) 
0

>  <s_epik_input>  (382) 
W0NAXTEyM1tDQEBIXTRbQ0gyXVtDSDJdW0NAQEhdKFtDSDNdKVtDQEBIXTJbQ0gyXVtDSDJdW0NAQF0oW0NIM10pKE9PMylPW0NASF0xT1tDQEhdNVtDQEhdKFtDQEBIXTRbQ0gzXSlPQyhPNSkoW0NIM10pW0NIM10=

>  <s_epik_cmdline>  (382) 
J2VwaWtfcHl0aG9uJywgJy1waHQnLCAnMi4wJywgJy1waCcsICc3LjAnLCAnLXRuJywgJzgnLCAnLW1hJywgJzIwMCcsICctaW1hZScsICc8aW5maWxlLm1hZT4nLCAnLW9tYWUnLCAnPG91dGZpbGUubWFlPic=

>  <r_lp_tautomer_probability>  (382) 
1

>  <r_epik_Ionization_Penalty>  (382) 
4.18355e-14

>  <r_epik_Ionization_Penalty_Charging>  (382) 
0

>  <r_epik_Ionization_Penalty_Neutral>  (382) 
4.18355e-14

>  <r_epik_State_Penalty>  (382) 
-0

>  <r_epik_Charging_Adjusted_Penalty>  (382) 
0

>  <i_epik_Tot_Q>  (382) 
0

>  <i_epik_Tot_abs_Q>  (382) 
0

>  <s_epik_Chemistry_Notes>  (382) 
This compound contains an acetal/aminal-like group ( X-CH(R)-Y where X, Y are N, S, or O) that may be acid/base labile, releasing an aldehyde.

>  <s_lp_Force_Field>  (382) 
OPLS3e

>  <r_lp_Energy>  (382) 
45.3753

>  <b_lp_Chiralities_Consistent>  (382) 
1

>  <s_lp_Variant>  (382) 
91:0-1

>  <s_i_glide_gridfile>  (382) 
pfpi4k_grid

>  <i_i_glide_lignum>  (382) 
2

>  <i_i_glide_rotatable_bonds>  (382) 
0

>  <r_i_docking_score>  (382) 
-2.54702

>  <r_i_glide_ligand_efficiency>  (382) 
-0.101881

>  <r_i_glide_ligand_efficiency_sa>  (382) 
-0.297901

>  <r_i_glide_ligand_efficiency_ln>  (382) 
-0.60372

>  <r_i_glide_gscore>  (382) 
-2.54702

>  <r_i_glide_lipo>  (382) 
-0.440659

>  <r_i_glide_hbond>  (382) 
0

>  <r_i_glide_metal>  (382) 
-0

>  <r_i_glide_rewards>  (382) 
-1.0589

>  <r_i_glide_evdw>  (382) 
-21.9945

>  <r_i_glide_ecoul>  (382) 
0.402852

>  <r_i_glide_erotb>  (382) 
0

>  <r_i_glide_esite>  (382) 
-0.00816438

>  <r_i_glide_emodel>  (382) 
-25.3191

>  <r_i_glide_energy>  (382) 
-21.5916

>  <r_i_glide_einternal>  (382) 
0

>  <r_i_glide_intrahb_reward>  (382) 
-0

>  <i_i_glide_confnum>  (382) 
2

>  <i_i_glide_posenum>  (382) 
13

>  <r_i_glide_eff_state_penalty>  (382) 
0

>  <ligand_id>  (382) 
91

>  <original_smiles>  (382) 
CC1CCC2C(C)C3OC(C)(C)OC3OC3OC4(C)CCC1C32OO4

>  <smiles>  (382) 
[H]C([H])([H])C1(C([H])([H])[H])OC2([H])OC3([H])OC4(C([H])([H])[H])OOC35C([H])(C([H])([H])C4([H])[H])C([H])(C([H])([H])[H])C([H])([H])C([H])([H])C5([H])C([H])(C([H])([H])[H])C2([H])O1

$$$$
91:0:2
     RDKit          3D

 55 59  0  0  1  0  0  0  0  0999 V2000
    5.4330   -3.3075   -2.1628 C   0  0  0  0  0  0  0  0  0  0  0  0
    4.6343   -2.8010   -0.9450 C   0  0  2  0  0  0  0  0  0  0  0  0
    4.6699   -1.2634   -0.9144 C   0  0  0  0  0  0  0  0  0  0  0  0
    4.3979   -0.6744    0.4742 C   0  0  0  0  0  0  0  0  0  0  0  0
    3.4115   -1.5311    1.3035 C   0  0  2  0  0  0  0  0  0  0  0  0
    2.9222   -0.7636    2.5888 C   0  0  1  0  0  0  0  0  0  0  0  0
    2.5433    0.7130    2.3196 C   0  0  0  0  0  0  0  0  0  0  0  0
    1.6890   -1.4298    3.2199 C   0  0  2  0  0  0  0  0  0  0  0  0
    1.2844   -0.8576    4.4484 O   0  0  0  0  0  0  0  0  0  0  0  0
    0.6519   -1.8922    5.1250 C   0  0  0  0  0  0  0  0  0  0  0  0
    1.2469   -1.9944    6.5366 C   0  0  0  0  0  0  0  0  0  0  0  0
   -0.8619   -1.6053    5.1589 C   0  0  0  0  0  0  0  0  0  0  0  0
    0.8862   -3.1017    4.4603 O   0  0  0  0  0  0  0  0  0  0  0  0
    1.9354   -2.8763    3.5827 C   0  0  1  0  0  0  0  0  0  0  0  0
    1.7975   -3.5995    2.4145 O   0  0  0  0  0  0  0  0  0  0  0  0
    2.9749   -4.0500    1.8239 C   0  0  2  0  0  0  0  0  0  0  0  0
    3.4307   -5.1986    2.4549 O   0  0  0  0  0  0  0  0  0  0  0  0
    4.7669   -5.2003    2.8829 C   0  0  1  0  0  0  0  0  0  0  0  0
    4.8360   -6.2891    3.9619 C   0  0  0  0  0  0  0  0  0  0  0  0
    5.7135   -5.5440    1.7157 C   0  0  0  0  0  0  0  0  0  0  0  0
    5.3434   -4.8979    0.3725 C   0  0  0  0  0  0  0  0  0  0  0  0
    5.0509   -3.3884    0.4329 C   0  0  2  0  0  0  0  0  0  0  0  0
    4.0764   -2.9398    1.5966 C   0  0  1  0  0  0  0  0  0  0  0  0
    4.9527   -2.7688    2.7173 O   0  0  0  0  0  0  0  0  0  0  0  0
    5.1032   -4.0131    3.5768 O   0  0  0  0  0  0  0  0  0  0  0  0
    6.5013   -3.1142   -2.0596 H   0  0  0  0  0  0  0  0  0  0  0  0
    5.0966   -2.8100   -3.0731 H   0  0  0  0  0  0  0  0  0  0  0  0
    5.2907   -4.3770   -2.3230 H   0  0  0  0  0  0  0  0  0  0  0  0
    3.5994   -3.0950   -1.1151 H   0  0  0  0  0  0  0  0  0  0  0  0
    5.6270   -0.8891   -1.2790 H   0  0  0  0  0  0  0  0  0  0  0  0
    3.9184   -0.8946   -1.6137 H   0  0  0  0  0  0  0  0  0  0  0  0
    5.3294   -0.5751    1.0309 H   0  0  0  0  0  0  0  0  0  0  0  0
    4.0307    0.3323    0.3044 H   0  0  0  0  0  0  0  0  0  0  0  0
    2.5345   -1.6954    0.6669 H   0  0  0  0  0  0  0  0  0  0  0  0
    3.7197   -0.7531    3.3285 H   0  0  0  0  0  0  0  0  0  0  0  0
    1.8521    0.8038    1.4763 H   0  0  0  0  0  0  0  0  0  0  0  0
    3.4158    1.3310    2.1164 H   0  0  0  0  0  0  0  0  0  0  0  0
    2.0568    1.1674    3.1847 H   0  0  0  0  0  0  0  0  0  0  0  0
    0.8362   -1.3874    2.5329 H   0  0  0  0  0  0  0  0  0  0  0  0
    2.3153   -2.2084    6.4757 H   0  0  0  0  0  0  0  0  0  0  0  0
    0.7597   -2.8021    7.0808 H   0  0  0  0  0  0  0  0  0  0  0  0
    1.1029   -1.0576    7.0781 H   0  0  0  0  0  0  0  0  0  0  0  0
   -1.2523   -1.5245    4.1428 H   0  0  0  0  0  0  0  0  0  0  0  0
   -1.0394   -0.6565    5.6689 H   0  0  0  0  0  0  0  0  0  0  0  0
   -1.3905   -2.3996    5.6868 H   0  0  0  0  0  0  0  0  0  0  0  0
    2.8721   -3.0538    4.1154 H   0  0  0  0  0  0  0  0  0  0  0  0
    2.6269   -4.3826    0.8485 H   0  0  0  0  0  0  0  0  0  0  0  0
    4.1700   -6.0328    4.7880 H   0  0  0  0  0  0  0  0  0  0  0  0
    5.8479   -6.3912    4.3645 H   0  0  0  0  0  0  0  0  0  0  0  0
    4.5247   -7.2643    3.5802 H   0  0  0  0  0  0  0  0  0  0  0  0
    6.7446   -5.3127    1.9904 H   0  0  0  0  0  0  0  0  0  0  0  0
    5.7003   -6.6249    1.5463 H   0  0  0  0  0  0  0  0  0  0  0  0
    6.1766   -5.0764   -0.3044 H   0  0  0  0  0  0  0  0  0  0  0  0
    4.4973   -5.4261   -0.0697 H   0  0  0  0  0  0  0  0  0  0  0  0
    6.0140   -2.9313    0.6601 H   0  0  0  0  0  0  0  0  0  0  0  0
  1  2  1  0
  1 26  1  0
  1 27  1  0
  1 28  1  0
  2 22  1  0
  2  3  1  0
  2 29  1  6
  3  4  1  0
  3 30  1  0
  3 31  1  0
  4  5  1  0
  4 32  1  0
  4 33  1  0
  5 23  1  0
  5  6  1  0
  5 34  1  6
  6  7  1  0
  6  8  1  0
  6 35  1  1
  7 36  1  0
  7 37  1  0
  7 38  1  0
  8 14  1  0
  8  9  1  0
  8 39  1  6
  9 10  1  0
 10 11  1  0
 10 12  1  0
 10 13  1  0
 11 40  1  0
 11 41  1  0
 11 42  1  0
 12 43  1  0
 12 44  1  0
 12 45  1  0
 13 14  1  0
 14 15  1  0
 14 46  1  1
 15 16  1  0
 16 23  1  0
 16 17  1  0
 16 47  1  6
 17 18  1  0
 18 25  1  0
 18 19  1  1
 18 20  1  0
 19 48  1  0
 19 49  1  0
 19 50  1  0
 20 21  1  0
 20 51  1  0
 20 52  1  0
 21 22  1  0
 21 53  1  0
 21 54  1  0
 22 23  1  0
 22 55  1  1
 23 24  1  1
 24 25  1  0
M  END
>  <i_m_ct_stereo_status>  (383) 
1

>  <s_m_source_file>  (383) 
/var/tmp/pbs.5076255.sched01/tmpk5ywl0l3/150lwq6_0yz.sdf

>  <i_m_source_file_index>  (383) 
2

>  <i_lp_mmshare_version>  (383) 
48012

>  <i_f3d_flags>  (383) 
0

>  <s_epik_input>  (383) 
W0NAXTEyM1tDQEBIXTRbQ0gyXVtDSDJdW0NAQEhdKFtDSDNdKVtDQEBIXTJbQ0gyXVtDSDJdW0NAQF0oW0NIM10pKE9PMylPW0NASF0xT1tDQEhdNVtDQEhdKFtDQEBIXTRbQ0gzXSlPQyhPNSkoW0NIM10pW0NIM10=

>  <s_epik_cmdline>  (383) 
J2VwaWtfcHl0aG9uJywgJy1waHQnLCAnMi4wJywgJy1waCcsICc3LjAnLCAnLXRuJywgJzgnLCAnLW1hJywgJzIwMCcsICctaW1hZScsICc8aW5maWxlLm1hZT4nLCAnLW9tYWUnLCAnPG91dGZpbGUubWFlPic=

>  <r_lp_tautomer_probability>  (383) 
1

>  <r_epik_Ionization_Penalty>  (383) 
4.18355e-14

>  <r_epik_Ionization_Penalty_Charging>  (383) 
0

>  <r_epik_Ionization_Penalty_Neutral>  (383) 
4.18355e-14

>  <r_epik_State_Penalty>  (383) 
-0

>  <r_epik_Charging_Adjusted_Penalty>  (383) 
0

>  <i_epik_Tot_Q>  (383) 
0

>  <i_epik_Tot_abs_Q>  (383) 
0

>  <s_epik_Chemistry_Notes>  (383) 
This compound contains an acetal/aminal-like group ( X-CH(R)-Y where X, Y are N, S, or O) that may be acid/base labile, releasing an aldehyde.

>  <s_lp_Force_Field>  (383) 
OPLS3e

>  <r_lp_Energy>  (383) 
45.3753

>  <b_lp_Chiralities_Consistent>  (383) 
1

>  <s_lp_Variant>  (383) 
91:0-1

>  <s_i_glide_gridfile>  (383) 
pfpi4k_grid

>  <i_i_glide_lignum>  (383) 
2

>  <i_i_glide_rotatable_bonds>  (383) 
0

>  <r_i_docking_score>  (383) 
-2.54193

>  <r_i_glide_ligand_efficiency>  (383) 
-0.101677

>  <r_i_glide_ligand_efficiency_sa>  (383) 
-0.297305

>  <r_i_glide_ligand_efficiency_ln>  (383) 
-0.602512

>  <r_i_glide_gscore>  (383) 
-2.54193

>  <r_i_glide_lipo>  (383) 
-0.466267

>  <r_i_glide_hbond>  (383) 
0

>  <r_i_glide_metal>  (383) 
-0

>  <r_i_glide_rewards>  (383) 
-1.0105

>  <r_i_glide_evdw>  (383) 
-23.7852

>  <r_i_glide_ecoul>  (383) 
0.865494

>  <r_i_glide_erotb>  (383) 
0

>  <r_i_glide_esite>  (383) 
-0.00572132

>  <r_i_glide_emodel>  (383) 
-26.6173

>  <r_i_glide_energy>  (383) 
-22.9197

>  <r_i_glide_einternal>  (383) 
0

>  <r_i_glide_intrahb_reward>  (383) 
-0

>  <i_i_glide_confnum>  (383) 
1

>  <i_i_glide_posenum>  (383) 
1

>  <r_i_glide_eff_state_penalty>  (383) 
0

>  <ligand_id>  (383) 
91

>  <original_smiles>  (383) 
CC1CCC2C(C)C3OC(C)(C)OC3OC3OC4(C)CCC1C32OO4

>  <smiles>  (383) 
[H]C([H])([H])C1(C([H])([H])[H])OC2([H])OC3([H])OC4(C([H])([H])[H])OOC35C([H])(C([H])([H])C4([H])[H])C([H])(C([H])([H])[H])C([H])([H])C([H])([H])C5([H])C([H])(C([H])([H])[H])C2([H])O1

$$$$
93:0:0
     RDKit          3D

 46 51  0  0  1  0  0  0  0  0999 V2000
    7.5954   -7.5728    2.0130 C   0  0  0  0  0  0  0  0  0  0  0  0
    6.4745   -6.5501    2.2271 C   0  0  0  0  0  0  0  0  0  0  0  0
    6.4065   -5.5037    1.2061 N   0  0  0  0  0  0  0  0  0  0  0  0
    7.5900   -4.6417    1.1330 C   0  0  0  0  0  0  0  0  0  0  0  0
    7.5572   -3.6366   -0.0344 C   0  0  0  0  0  0  0  0  0  0  0  0
    6.1480   -2.9907   -0.1217 C   0  0  1  0  0  0  0  0  0  0  0  0
    5.7424   -2.3857   -1.3817 C   0  0  0  0  0  0  0  0  0  0  0  0
    5.1515   -1.1228   -1.2877 C   0  0  0  0  0  0  0  0  0  0  0  0
    4.3671   -0.7603   -2.3956 C   0  0  0  0  0  0  0  0  0  0  0  0
    4.2054   -1.6544   -3.4902 C   0  0  0  0  0  0  0  0  0  0  0  0
    4.6322   -3.0113   -3.3650 C   0  0  0  0  0  0  0  0  0  0  0  0
    4.2127   -3.9355   -4.2695 O   0  0  0  0  0  0  0  0  0  0  0  0
    5.3740   -3.4056   -2.2419 C   0  0  0  0  0  0  0  0  0  0  0  0
    5.2238   -4.5781   -1.5117 O   0  0  0  0  0  0  0  0  0  0  0  0
    5.0572   -4.0460   -0.1888 C   0  0  1  0  0  0  0  0  0  0  0  0
    5.1251   -4.7613    1.1421 C   0  0  2  0  0  0  0  0  0  0  0  0
    4.7715   -3.6381    2.2339 C   0  0  1  0  0  0  0  0  0  0  0  0
    4.9350   -4.1472    3.6805 C   0  0  0  0  0  0  0  0  0  0  0  0
    5.6162   -2.4806    2.1949 O   0  0  0  0  0  0  0  0  0  0  0  0
    5.9308   -1.9159    0.9236 C   0  0  2  0  0  0  0  0  0  0  0  0
    5.0059   -0.8971    0.2381 C   0  0  2  0  0  0  0  0  0  0  0  0
    3.5653   -0.9569    0.7518 C   0  0  0  0  0  0  0  0  0  0  0  0
    2.8783   -1.8461    1.5094 C   0  0  0  0  0  0  0  0  0  0  0  0
    3.2946   -3.1515    2.1096 C   0  0  0  0  0  0  0  0  0  0  0  0
    2.4278   -3.9311    2.5044 O   0  0  0  0  0  0  0  0  0  0  0  0
    7.5321   -8.3927    2.7283 H   0  0  0  0  0  0  0  0  0  0  0  0
    8.5831   -7.1212    2.1323 H   0  0  0  0  0  0  0  0  0  0  0  0
    7.5383   -7.9891    1.0075 H   0  0  0  0  0  0  0  0  0  0  0  0
    5.5278   -7.0922    2.2466 H   0  0  0  0  0  0  0  0  0  0  0  0
    6.5969   -6.1299    3.2246 H   0  0  0  0  0  0  0  0  0  0  0  0
    7.7149   -4.1087    2.0721 H   0  0  0  0  0  0  0  0  0  0  0  0
    8.4907   -5.2419    1.0032 H   0  0  0  0  0  0  0  0  0  0  0  0
    8.3579   -2.9053    0.0433 H   0  0  0  0  0  0  0  0  0  0  0  0
    7.7651   -4.1938   -0.9420 H   0  0  0  0  0  0  0  0  0  0  0  0
    3.8098    0.1529   -2.3926 H   0  0  0  0  0  0  0  0  0  0  0  0
    3.5763   -1.3748   -4.3199 H   0  0  0  0  0  0  0  0  0  0  0  0
    4.0994   -4.7700   -3.8302 H   0  0  0  0  0  0  0  0  0  0  0  0
    4.0599   -3.6103   -0.2605 H   0  0  0  0  0  0  0  0  0  0  0  0
    4.3176   -5.4911    1.1407 H   0  0  0  0  0  0  0  0  0  0  0  0
    4.4429   -5.1098    3.8355 H   0  0  0  0  0  0  0  0  0  0  0  0
    4.5099   -3.4457    4.3997 H   0  0  0  0  0  0  0  0  0  0  0  0
    5.9843   -4.2531    3.9512 H   0  0  0  0  0  0  0  0  0  0  0  0
    6.8730   -1.3831    1.0562 H   0  0  0  0  0  0  0  0  0  0  0  0
    5.3565    0.1147    0.4496 H   0  0  0  0  0  0  0  0  0  0  0  0
    2.9880   -0.0916    0.4653 H   0  0  0  0  0  0  0  0  0  0  0  0
    1.8439   -1.5785    1.6981 H   0  0  0  0  0  0  0  0  0  0  0  0
  1  2  1  0
  1 26  1  0
  1 27  1  0
  1 28  1  0
  2  3  1  0
  2 29  1  0
  2 30  1  0
  3 16  1  0
  3  4  1  0
  4  5  1  0
  4 31  1  0
  4 32  1  0
  6  5  1  6
  5 33  1  0
  5 34  1  0
  6 15  1  0
  6 20  1  0
  6  7  1  0
  7 13  2  0
  7  8  1  0
  8 21  1  0
  8  9  2  0
  9 10  1  0
  9 35  1  0
 10 11  2  0
 10 36  1  0
 11 12  1  0
 11 13  1  0
 12 37  1  0
 13 14  1  0
 14 15  1  0
 15 16  1  0
 15 38  1  6
 16 17  1  0
 16 39  1  6
 17 24  1  0
 17 18  1  1
 17 19  1  0
 18 40  1  0
 18 41  1  0
 18 42  1  0
 19 20  1  0
 20 21  1  0
 20 43  1  1
 21 22  1  0
 21 44  1  6
 22 23  2  0
 22 45  1  0
 23 24  1  0
 23 46  1  0
 24 25  2  0
M  END
>  <i_m_ct_stereo_status>  (384) 
1

>  <s_m_source_file>  (384) 
/var/tmp/pbs.5076255.sched01/tmpk5ywl0l3/150lwq6_0yz.sdf

>  <i_m_source_file_index>  (384) 
4

>  <i_lp_mmshare_version>  (384) 
48012

>  <i_f3d_flags>  (384) 
0

>  <s_epik_input>  (384) 
W2NIXTFbY0hdYyhbT0hdKWMyT1tDQEhdM1tDQEBIXShOKFtDSDJdW0NIM10pW0NIMl1bQ0gyXTQpW0NAXShbQ0gzXSkoQyg9TylbQ0hdPVtDSF01KU9bQ0BASF02W0NASF01YzFjMltDQEBdMzQ2

>  <s_epik_cmdline>  (384) 
J2VwaWtfcHl0aG9uJywgJy1waHQnLCAnMi4wJywgJy1waCcsICc3LjAnLCAnLXRuJywgJzgnLCAnLW1hJywgJzIwMCcsICctaW1hZScsICc8aW5maWxlLm1hZT4nLCAnLW9tYWUnLCAnPG91dGZpbGUubWFlPic=

>  <r_lp_tautomer_probability>  (384) 
1

>  <r_epik_Ionization_Penalty>  (384) 
0.0359473

>  <r_epik_Ionization_Penalty_Charging>  (384) 
0

>  <r_epik_Ionization_Penalty_Neutral>  (384) 
0.0359473

>  <r_epik_State_Penalty>  (384) 
0.0251992

>  <r_epik_Charging_Adjusted_Penalty>  (384) 
0.0251992

>  <i_epik_Tot_Q>  (384) 
0

>  <i_epik_Tot_abs_Q>  (384) 
0

>  <s_lp_Force_Field>  (384) 
OPLS3e

>  <r_lp_Energy>  (384) 
110.044

>  <b_lp_Chiralities_Consistent>  (384) 
1

>  <s_lp_Variant>  (384) 
93:0-1

>  <s_i_glide_gridfile>  (384) 
pfpi4k_grid

>  <i_i_glide_lignum>  (384) 
4

>  <i_i_glide_rotatable_bonds>  (384) 
2

>  <r_i_docking_score>  (384) 
-4.13256

>  <r_i_glide_ligand_efficiency>  (384) 
-0.165303

>  <r_i_glide_ligand_efficiency_sa>  (384) 
-0.483347

>  <r_i_glide_ligand_efficiency_ln>  (384) 
-0.979541

>  <r_i_glide_gscore>  (384) 
-4.13256

>  <r_i_glide_lipo>  (384) 
-1.2227

>  <r_i_glide_hbond>  (384) 
0

>  <r_i_glide_metal>  (384) 
-0

>  <r_i_glide_rewards>  (384) 
-1.0951

>  <r_i_glide_evdw>  (384) 
-24.738

>  <r_i_glide_ecoul>  (384) 
-3.84962

>  <r_i_glide_erotb>  (384) 
0

>  <r_i_glide_esite>  (384) 
-0.000412557

>  <r_i_glide_emodel>  (384) 
-35.0584

>  <r_i_glide_energy>  (384) 
-28.5876

>  <r_i_glide_einternal>  (384) 
1.06141

>  <r_i_glide_intrahb_reward>  (384) 
-0

>  <i_i_glide_confnum>  (384) 
2

>  <i_i_glide_posenum>  (384) 
1

>  <r_i_glide_eff_state_penalty>  (384) 
0

>  <ligand_id>  (384) 
93

>  <original_smiles>  (384) 
CCN1CCC23c4c5ccc(O)c4OC2C1C1(C)OC3C5C=CC1=O

>  <smiles>  (384) 
[H]Oc1c([H])c([H])c2c3c1OC1([H])C4([H])N(C([H])([H])C([H])([H])[H])C([H])([H])C([H])([H])C31C1([H])OC4(C([H])([H])[H])C(=O)C([H])=C([H])C21[H]

$$$$
93:0:1
     RDKit          3D

 46 51  0  0  1  0  0  0  0  0999 V2000
    2.3045   -7.5002    2.6210 C   0  0  0  0  0  0  0  0  0  0  0  0
    2.3794   -5.9838    2.8231 C   0  0  0  0  0  0  0  0  0  0  0  0
    2.9575   -5.2613    1.6904 N   0  0  0  0  0  0  0  0  0  0  0  0
    4.3755   -5.5496    1.4397 C   0  0  0  0  0  0  0  0  0  0  0  0
    4.9106   -4.8905    0.1485 C   0  0  0  0  0  0  0  0  0  0  0  0
    4.4330   -3.4145    0.0789 C   0  0  1  0  0  0  0  0  0  0  0  0
    4.4374   -2.7512   -1.2131 C   0  0  0  0  0  0  0  0  0  0  0  0
    4.9673   -1.4608   -1.2303 C   0  0  0  0  0  0  0  0  0  0  0  0
    4.5480   -0.6676   -2.3213 C   0  0  0  0  0  0  0  0  0  0  0  0
    3.6486   -1.1996   -3.2854 C   0  0  0  0  0  0  0  0  0  0  0  0
    2.9818   -2.4386   -3.0435 C   0  0  0  0  0  0  0  0  0  0  0  0
    1.9417   -2.8190   -3.8321 O   0  0  0  0  0  0  0  0  0  0  0  0
    3.3288   -3.1958   -1.9142 C   0  0  0  0  0  0  0  0  0  0  0  0
    2.4671   -3.8599   -1.0498 O   0  0  0  0  0  0  0  0  0  0  0  0
    2.9221   -3.3312    0.2108 C   0  0  1  0  0  0  0  0  0  0  0  0
    2.6317   -3.8182    1.6187 C   0  0  2  0  0  0  0  0  0  0  0  0
    3.3489   -2.7601    2.5842 C   0  0  1  0  0  0  0  0  0  0  0  0
    3.2822   -3.1825    4.0665 C   0  0  0  0  0  0  0  0  0  0  0  0
    4.7560   -2.5979    2.3533 O   0  0  0  0  0  0  0  0  0  0  0  0
    5.2018   -2.4953    1.0012 C   0  0  2  0  0  0  0  0  0  0  0  0
    5.2226   -1.1458    0.2633 C   0  0  2  0  0  0  0  0  0  0  0  0
    4.2645   -0.1165    0.8622 C   0  0  0  0  0  0  0  0  0  0  0  0
    3.2582   -0.1884    1.7680 C   0  0  0  0  0  0  0  0  0  0  0  0
    2.6781   -1.3555    2.4974 C   0  0  0  0  0  0  0  0  0  0  0  0
    1.5832   -1.2430    3.0476 O   0  0  0  0  0  0  0  0  0  0  0  0
    1.7643   -7.9848    3.4347 H   0  0  0  0  0  0  0  0  0  0  0  0
    3.2966   -7.9502    2.5834 H   0  0  0  0  0  0  0  0  0  0  0  0
    1.7929   -7.7348    1.6868 H   0  0  0  0  0  0  0  0  0  0  0  0
    1.3666   -5.6208    2.9993 H   0  0  0  0  0  0  0  0  0  0  0  0
    2.9318   -5.7906    3.7389 H   0  0  0  0  0  0  0  0  0  0  0  0
    4.9799   -5.2403    2.2915 H   0  0  0  0  0  0  0  0  0  0  0  0
    4.5287   -6.6241    1.3318 H   0  0  0  0  0  0  0  0  0  0  0  0
    5.9960   -4.9829    0.0835 H   0  0  0  0  0  0  0  0  0  0  0  0
    4.5070   -5.4492   -0.6977 H   0  0  0  0  0  0  0  0  0  0  0  0
    4.7976    0.3760   -2.3831 H   0  0  0  0  0  0  0  0  0  0  0  0
    3.3084   -0.5821   -4.1011 H   0  0  0  0  0  0  0  0  0  0  0  0
    1.4988   -3.5991   -3.5176 H   0  0  0  0  0  0  0  0  0  0  0  0
    2.5569   -2.3066    0.1550 H   0  0  0  0  0  0  0  0  0  0  0  0
    1.5644   -3.7138    1.7846 H   0  0  0  0  0  0  0  0  0  0  0  0
    2.2713   -3.4712    4.3657 H   0  0  0  0  0  0  0  0  0  0  0  0
    3.5945   -2.3685    4.7246 H   0  0  0  0  0  0  0  0  0  0  0  0
    3.9587   -4.0126    4.2725 H   0  0  0  0  0  0  0  0  0  0  0  0
    6.2424   -2.8209    1.0085 H   0  0  0  0  0  0  0  0  0  0  0  0
    6.2198   -0.7094    0.3312 H   0  0  0  0  0  0  0  0  0  0  0  0
    4.4688    0.8740    0.4915 H   0  0  0  0  0  0  0  0  0  0  0  0
    2.7801    0.7565    1.9959 H   0  0  0  0  0  0  0  0  0  0  0  0
  1  2  1  0
  1 26  1  0
  1 27  1  0
  1 28  1  0
  2  3  1  0
  2 29  1  0
  2 30  1  0
  3 16  1  0
  3  4  1  0
  4  5  1  0
  4 31  1  0
  4 32  1  0
  6  5  1  6
  5 33  1  0
  5 34  1  0
  6 15  1  0
  6 20  1  0
  6  7  1  0
  7 13  2  0
  7  8  1  0
  8 21  1  0
  8  9  2  0
  9 10  1  0
  9 35  1  0
 10 11  2  0
 10 36  1  0
 11 12  1  0
 11 13  1  0
 12 37  1  0
 13 14  1  0
 14 15  1  0
 15 16  1  0
 15 38  1  1
 16 17  1  0
 16 39  1  1
 17 24  1  0
 17 18  1  1
 17 19  1  0
 18 40  1  0
 18 41  1  0
 18 42  1  0
 19 20  1  0
 20 21  1  0
 20 43  1  1
 21 22  1  0
 21 44  1  6
 22 23  2  0
 22 45  1  0
 23 24  1  0
 23 46  1  0
 24 25  2  0
M  END
>  <i_m_ct_stereo_status>  (385) 
1

>  <s_m_source_file>  (385) 
/var/tmp/pbs.5076255.sched01/tmpk5ywl0l3/150lwq6_0yz.sdf

>  <i_m_source_file_index>  (385) 
4

>  <i_lp_mmshare_version>  (385) 
48012

>  <i_f3d_flags>  (385) 
0

>  <s_epik_input>  (385) 
W2NIXTFbY0hdYyhbT0hdKWMyT1tDQEhdM1tDQEBIXShOKFtDSDJdW0NIM10pW0NIMl1bQ0gyXTQpW0NAXShbQ0gzXSkoQyg9TylbQ0hdPVtDSF01KU9bQ0BASF02W0NASF01YzFjMltDQEBdMzQ2

>  <s_epik_cmdline>  (385) 
J2VwaWtfcHl0aG9uJywgJy1waHQnLCAnMi4wJywgJy1waCcsICc3LjAnLCAnLXRuJywgJzgnLCAnLW1hJywgJzIwMCcsICctaW1hZScsICc8aW5maWxlLm1hZT4nLCAnLW9tYWUnLCAnPG91dGZpbGUubWFlPic=

>  <r_lp_tautomer_probability>  (385) 
1

>  <r_epik_Ionization_Penalty>  (385) 
0.0359473

>  <r_epik_Ionization_Penalty_Charging>  (385) 
0

>  <r_epik_Ionization_Penalty_Neutral>  (385) 
0.0359473

>  <r_epik_State_Penalty>  (385) 
0.0251992

>  <r_epik_Charging_Adjusted_Penalty>  (385) 
0.0251992

>  <i_epik_Tot_Q>  (385) 
0

>  <i_epik_Tot_abs_Q>  (385) 
0

>  <s_lp_Force_Field>  (385) 
OPLS3e

>  <r_lp_Energy>  (385) 
110.044

>  <b_lp_Chiralities_Consistent>  (385) 
1

>  <s_lp_Variant>  (385) 
93:0-1

>  <s_i_glide_gridfile>  (385) 
pfpi4k_grid

>  <i_i_glide_lignum>  (385) 
4

>  <i_i_glide_rotatable_bonds>  (385) 
2

>  <r_i_docking_score>  (385) 
-3.24942

>  <r_i_glide_ligand_efficiency>  (385) 
-0.129977

>  <r_i_glide_ligand_efficiency_sa>  (385) 
-0.380054

>  <r_i_glide_ligand_efficiency_ln>  (385) 
-0.770209

>  <r_i_glide_gscore>  (385) 
-3.24942

>  <r_i_glide_lipo>  (385) 
-0.454017

>  <r_i_glide_hbond>  (385) 
0

>  <r_i_glide_metal>  (385) 
-0

>  <r_i_glide_rewards>  (385) 
-1.0951

>  <r_i_glide_evdw>  (385) 
-24.3892

>  <r_i_glide_ecoul>  (385) 
-3.13144

>  <r_i_glide_erotb>  (385) 
0

>  <r_i_glide_esite>  (385) 
-0.0111198

>  <r_i_glide_emodel>  (385) 
-33.3944

>  <r_i_glide_energy>  (385) 
-27.5207

>  <r_i_glide_einternal>  (385) 
0.00974952

>  <r_i_glide_intrahb_reward>  (385) 
-0

>  <i_i_glide_confnum>  (385) 
1

>  <i_i_glide_posenum>  (385) 
25

>  <r_i_glide_eff_state_penalty>  (385) 
0

>  <ligand_id>  (385) 
93

>  <original_smiles>  (385) 
CCN1CCC23c4c5ccc(O)c4OC2C1C1(C)OC3C5C=CC1=O

>  <smiles>  (385) 
[H]Oc1c([H])c([H])c2c3c1OC1([H])C4([H])N(C([H])([H])C([H])([H])[H])C([H])([H])C([H])([H])C31C1([H])OC4(C([H])([H])[H])C(=O)C([H])=C([H])C21[H]

$$$$
93:0:2
     RDKit          3D

 46 51  0  0  1  0  0  0  0  0999 V2000
    1.1282   -6.1001    3.2633 C   0  0  0  0  0  0  0  0  0  0  0  0
    2.6495   -5.9015    3.3575 C   0  0  0  0  0  0  0  0  0  0  0  0
    3.2361   -5.2298    2.1937 N   0  0  0  0  0  0  0  0  0  0  0  0
    4.6824   -5.4299    2.0293 C   0  0  0  0  0  0  0  0  0  0  0  0
    5.2261   -4.8426    0.6983 C   0  0  0  0  0  0  0  0  0  0  0  0
    4.6455   -3.4190    0.4696 C   0  0  1  0  0  0  0  0  0  0  0  0
    4.6478   -2.8688   -0.8759 C   0  0  0  0  0  0  0  0  0  0  0  0
    5.0749   -1.5434   -0.9918 C   0  0  0  0  0  0  0  0  0  0  0  0
    4.6440   -0.8823   -2.1589 C   0  0  0  0  0  0  0  0  0  0  0  0
    3.8224   -1.5612   -3.1025 C   0  0  0  0  0  0  0  0  0  0  0  0
    3.2363   -2.8150   -2.7688 C   0  0  0  0  0  0  0  0  0  0  0  0
    2.2653   -3.3370   -3.5649 O   0  0  0  0  0  0  0  0  0  0  0  0
    3.6094   -3.4548   -1.5754 C   0  0  0  0  0  0  0  0  0  0  0  0
    2.7765   -4.1325   -0.6853 O   0  0  0  0  0  0  0  0  0  0  0  0
    3.1314   -3.4518    0.5355 C   0  0  1  0  0  0  0  0  0  0  0  0
    2.8123   -3.8269    1.9650 C   0  0  2  0  0  0  0  0  0  0  0  0
    3.4058   -2.6379    2.8632 C   0  0  1  0  0  0  0  0  0  0  0  0
    3.3120   -2.9214    4.3767 C   0  0  0  0  0  0  0  0  0  0  0  0
    4.8065   -2.3829    2.6703 O   0  0  0  0  0  0  0  0  0  0  0  0
    5.2979   -2.3623    1.3319 C   0  0  2  0  0  0  0  0  0  0  0  0
    5.2438   -1.0833    0.4780 C   0  0  2  0  0  0  0  0  0  0  0  0
    4.1799   -0.0897    0.9401 C   0  0  0  0  0  0  0  0  0  0  0  0
    3.1431   -0.1698    1.8131 C   0  0  0  0  0  0  0  0  0  0  0  0
    2.6294   -1.3103    2.6267 C   0  0  0  0  0  0  0  0  0  0  0  0
    1.5038   -1.2465    3.1244 O   0  0  0  0  0  0  0  0  0  0  0  0
    0.7352   -6.5380    4.1801 H   0  0  0  0  0  0  0  0  0  0  0  0
    0.8949   -6.7690    2.4351 H   0  0  0  0  0  0  0  0  0  0  0  0
    0.5860   -5.1684    3.1109 H   0  0  0  0  0  0  0  0  0  0  0  0
    2.8806   -5.3875    4.2819 H   0  0  0  0  0  0  0  0  0  0  0  0
    3.1108   -6.8817    3.4825 H   0  0  0  0  0  0  0  0  0  0  0  0
    5.2227   -4.9974    2.8677 H   0  0  0  0  0  0  0  0  0  0  0  0
    4.9083   -6.4996    2.0428 H   0  0  0  0  0  0  0  0  0  0  0  0
    6.3173   -4.8530    0.6755 H   0  0  0  0  0  0  0  0  0  0  0  0
    4.9017   -5.5013   -0.1095 H   0  0  0  0  0  0  0  0  0  0  0  0
    4.8248    0.1682   -2.3095 H   0  0  0  0  0  0  0  0  0  0  0  0
    3.4768   -1.0505   -3.9875 H   0  0  0  0  0  0  0  0  0  0  0  0
    1.9115   -4.1418   -3.2059 H   0  0  0  0  0  0  0  0  0  0  0  0
    2.6729   -2.4770    0.3754 H   0  0  0  0  0  0  0  0  0  0  0  0
    1.7303   -3.7665    2.0303 H   0  0  0  0  0  0  0  0  0  0  0  0
    2.3115   -3.2569    4.6682 H   0  0  0  0  0  0  0  0  0  0  0  0
    3.5297   -2.0284    4.9670 H   0  0  0  0  0  0  0  0  0  0  0  0
    4.0440   -3.6717    4.6855 H   0  0  0  0  0  0  0  0  0  0  0  0
    6.3573   -2.6073    1.4068 H   0  0  0  0  0  0  0  0  0  0  0  0
    6.2010   -0.5647    0.5513 H   0  0  0  0  0  0  0  0  0  0  0  0
    4.3230    0.8789    0.4895 H   0  0  0  0  0  0  0  0  0  0  0  0
    2.5851    0.7481    1.9412 H   0  0  0  0  0  0  0  0  0  0  0  0
  1  2  1  0
  1 26  1  0
  1 27  1  0
  1 28  1  0
  2  3  1  0
  2 29  1  0
  2 30  1  0
  3 16  1  0
  3  4  1  0
  4  5  1  0
  4 31  1  0
  4 32  1  0
  6  5  1  6
  5 33  1  0
  5 34  1  0
  6 15  1  0
  6 20  1  0
  6  7  1  0
  7 13  2  0
  7  8  1  0
  8 21  1  0
  8  9  2  0
  9 10  1  0
  9 35  1  0
 10 11  2  0
 10 36  1  0
 11 12  1  0
 11 13  1  0
 12 37  1  0
 13 14  1  0
 14 15  1  0
 15 16  1  0
 15 38  1  6
 16 17  1  0
 16 39  1  6
 17 24  1  0
 17 18  1  1
 17 19  1  0
 18 40  1  0
 18 41  1  0
 18 42  1  0
 19 20  1  0
 20 21  1  0
 20 43  1  1
 21 22  1  0
 21 44  1  6
 22 23  2  0
 22 45  1  0
 23 24  1  0
 23 46  1  0
 24 25  2  0
M  END
>  <i_m_ct_stereo_status>  (386) 
1

>  <s_m_source_file>  (386) 
/var/tmp/pbs.5076255.sched01/tmpk5ywl0l3/150lwq6_0yz.sdf

>  <i_m_source_file_index>  (386) 
4

>  <i_lp_mmshare_version>  (386) 
48012

>  <i_f3d_flags>  (386) 
0

>  <s_epik_input>  (386) 
W2NIXTFbY0hdYyhbT0hdKWMyT1tDQEhdM1tDQEBIXShOKFtDSDJdW0NIM10pW0NIMl1bQ0gyXTQpW0NAXShbQ0gzXSkoQyg9TylbQ0hdPVtDSF01KU9bQ0BASF02W0NASF01YzFjMltDQEBdMzQ2

>  <s_epik_cmdline>  (386) 
J2VwaWtfcHl0aG9uJywgJy1waHQnLCAnMi4wJywgJy1waCcsICc3LjAnLCAnLXRuJywgJzgnLCAnLW1hJywgJzIwMCcsICctaW1hZScsICc8aW5maWxlLm1hZT4nLCAnLW9tYWUnLCAnPG91dGZpbGUubWFlPic=

>  <r_lp_tautomer_probability>  (386) 
1

>  <r_epik_Ionization_Penalty>  (386) 
0.0359473

>  <r_epik_Ionization_Penalty_Charging>  (386) 
0

>  <r_epik_Ionization_Penalty_Neutral>  (386) 
0.0359473

>  <r_epik_State_Penalty>  (386) 
0.0251992

>  <r_epik_Charging_Adjusted_Penalty>  (386) 
0.0251992

>  <i_epik_Tot_Q>  (386) 
0

>  <i_epik_Tot_abs_Q>  (386) 
0

>  <s_lp_Force_Field>  (386) 
OPLS3e

>  <r_lp_Energy>  (386) 
110.044

>  <b_lp_Chiralities_Consistent>  (386) 
1

>  <s_lp_Variant>  (386) 
93:0-1

>  <s_i_glide_gridfile>  (386) 
pfpi4k_grid

>  <i_i_glide_lignum>  (386) 
4

>  <i_i_glide_rotatable_bonds>  (386) 
2

>  <r_i_docking_score>  (386) 
-3.16453

>  <r_i_glide_ligand_efficiency>  (386) 
-0.126581

>  <r_i_glide_ligand_efficiency_sa>  (386) 
-0.370126

>  <r_i_glide_ligand_efficiency_ln>  (386) 
-0.750089

>  <r_i_glide_gscore>  (386) 
-3.16453

>  <r_i_glide_lipo>  (386) 
-0.419545

>  <r_i_glide_hbond>  (386) 
0

>  <r_i_glide_metal>  (386) 
-0

>  <r_i_glide_rewards>  (386) 
-1.0951

>  <r_i_glide_evdw>  (386) 
-24.4964

>  <r_i_glide_ecoul>  (386) 
-2.76512

>  <r_i_glide_erotb>  (386) 
0

>  <r_i_glide_esite>  (386) 
-0.0102993

>  <r_i_glide_emodel>  (386) 
-32.3111

>  <r_i_glide_energy>  (386) 
-27.2615

>  <r_i_glide_einternal>  (386) 
1.05816

>  <r_i_glide_intrahb_reward>  (386) 
-0

>  <i_i_glide_confnum>  (386) 
1

>  <i_i_glide_posenum>  (386) 
14

>  <r_i_glide_eff_state_penalty>  (386) 
0

>  <ligand_id>  (386) 
93

>  <original_smiles>  (386) 
CCN1CCC23c4c5ccc(O)c4OC2C1C1(C)OC3C5C=CC1=O

>  <smiles>  (386) 
[H]Oc1c([H])c([H])c2c3c1OC1([H])C4([H])N(C([H])([H])C([H])([H])[H])C([H])([H])C([H])([H])C31C1([H])OC4(C([H])([H])[H])C(=O)C([H])=C([H])C21[H]

$$$$
93:1:0
     RDKit          3D

 47 52  0  0  1  0  0  0  0  0999 V2000
    7.4027   -7.4066    1.6061 C   0  0  0  0  0  0  0  0  0  0  0  0
    6.5162   -6.4119    0.8446 C   0  0  0  0  0  0  0  0  0  0  0  0
    6.3234   -5.1124    1.5210 N   0  0  1  0  0  0  0  0  0  0  0  0
    7.4558   -4.1875    1.2358 C   0  0  0  0  0  0  0  0  0  0  0  0
    7.3262   -3.4228   -0.0983 C   0  0  0  0  0  0  0  0  0  0  0  0
    5.9067   -2.8280   -0.2148 C   0  0  1  0  0  0  0  0  0  0  0  0
    5.4509   -2.3624   -1.5168 C   0  0  0  0  0  0  0  0  0  0  0  0
    4.7809   -1.1521   -1.4948 C   0  0  0  0  0  0  0  0  0  0  0  0
    3.9755   -0.8767   -2.6268 C   0  0  0  0  0  0  0  0  0  0  0  0
    3.8195   -1.8850   -3.6201 C   0  0  0  0  0  0  0  0  0  0  0  0
    4.3140   -3.1987   -3.4063 C   0  0  0  0  0  0  0  0  0  0  0  0
    3.9358   -4.2224   -4.2128 O   0  0  0  0  0  0  0  0  0  0  0  0
    5.0743   -3.4711   -2.2528 C   0  0  0  0  0  0  0  0  0  0  0  0
    5.0121   -4.5828   -1.4327 O   0  0  0  0  0  0  0  0  0  0  0  0
    4.8773   -3.9364   -0.1445 C   0  0  1  0  0  0  0  0  0  0  0  0
    4.9767   -4.5070    1.2634 C   0  0  2  0  0  0  0  0  0  0  0  0
    4.6023   -3.3045    2.2513 C   0  0  1  0  0  0  0  0  0  0  0  0
    4.8482   -3.7253    3.7127 C   0  0  0  0  0  0  0  0  0  0  0  0
    5.4133   -2.1302    2.0712 O   0  0  0  0  0  0  0  0  0  0  0  0
    5.6698   -1.6797    0.7398 C   0  0  2  0  0  0  0  0  0  0  0  0
    4.6864   -0.7629    0.0047 C   0  0  2  0  0  0  0  0  0  0  0  0
    3.2805   -0.8228    0.5805 C   0  0  0  0  0  0  0  0  0  0  0  0
    2.6474   -1.6539    1.4430 C   0  0  0  0  0  0  0  0  0  0  0  0
    3.1112   -2.8748    2.1498 C   0  0  0  0  0  0  0  0  0  0  0  0
    2.2741   -3.6217    2.6660 O   0  0  0  0  0  0  0  0  0  0  0  0
    7.6747   -8.2240    0.9298 H   0  0  0  0  0  0  0  0  0  0  0  0
    6.8684   -7.8402    2.4540 H   0  0  0  0  0  0  0  0  0  0  0  0
    8.3424   -6.9653    1.9511 H   0  0  0  0  0  0  0  0  0  0  0  0
    7.0152   -6.2205   -0.1004 H   0  0  0  0  0  0  0  0  0  0  0  0
    5.5685   -6.8835    0.5729 H   0  0  0  0  0  0  0  0  0  0  0  0
    7.4418   -3.4608    2.0347 H   0  0  0  0  0  0  0  0  0  0  0  0
    8.4129   -4.7102    1.2863 H   0  0  0  0  0  0  0  0  0  0  0  0
    8.0948   -2.6518   -0.1843 H   0  0  0  0  0  0  0  0  0  0  0  0
    7.5165   -4.1121   -0.9166 H   0  0  0  0  0  0  0  0  0  0  0  0
    3.3605    0.0062   -2.7130 H   0  0  0  0  0  0  0  0  0  0  0  0
    3.1552   -1.7099   -4.4534 H   0  0  0  0  0  0  0  0  0  0  0  0
    3.6992   -4.9779   -3.6770 H   0  0  0  0  0  0  0  0  0  0  0  0
    3.8565   -3.5555   -0.2138 H   0  0  0  0  0  0  0  0  0  0  0  0
    4.2230   -5.2898    1.3757 H   0  0  0  0  0  0  0  0  0  0  0  0
    4.3141   -4.6423    3.9721 H   0  0  0  0  0  0  0  0  0  0  0  0
    4.5220   -2.9441    4.4033 H   0  0  0  0  0  0  0  0  0  0  0  0
    5.9007   -3.8947    3.9160 H   0  0  0  0  0  0  0  0  0  0  0  0
    6.5951   -1.1058    0.7958 H   0  0  0  0  0  0  0  0  0  0  0  0
    5.0160    0.2620    0.1269 H   0  0  0  0  0  0  0  0  0  0  0  0
    2.6584   -0.0230    0.2258 H   0  0  0  0  0  0  0  0  0  0  0  0
    1.6168   -1.3852    1.6315 H   0  0  0  0  0  0  0  0  0  0  0  0
    6.3504   -5.3369    2.5008 H   0  0  0  0  0  0  0  0  0  0  0  0
  1  2  1  0
  1 26  1  0
  1 27  1  0
  1 28  1  0
  2  3  1  0
  2 29  1  0
  2 30  1  0
  3 16  1  0
  3  4  1  0
  3 47  1  1
  4  5  1  0
  4 31  1  0
  4 32  1  0
  6  5  1  6
  5 33  1  0
  5 34  1  0
  6 15  1  0
  6 20  1  0
  6  7  1  0
  7 13  2  0
  7  8  1  0
  8 21  1  0
  8  9  2  0
  9 10  1  0
  9 35  1  0
 10 11  2  0
 10 36  1  0
 11 12  1  0
 11 13  1  0
 12 37  1  0
 13 14  1  0
 14 15  1  0
 15 16  1  0
 15 38  1  6
 16 17  1  0
 16 39  1  6
 17 24  1  0
 17 18  1  1
 17 19  1  0
 18 40  1  0
 18 41  1  0
 18 42  1  0
 19 20  1  0
 20 21  1  0
 20 43  1  1
 21 22  1  0
 21 44  1  6
 22 23  2  0
 22 45  1  0
 23 24  1  0
 23 46  1  0
 24 25  2  0
M  CHG  1   3   1
M  END
>  <i_m_ct_stereo_status>  (387) 
1

>  <s_m_source_file>  (387) 
/var/tmp/pbs.5076255.sched01/tmpk5ywl0l3/150lwq6_0yz.sdf

>  <i_m_source_file_index>  (387) 
5

>  <i_lp_mmshare_version>  (387) 
48012

>  <i_f3d_flags>  (387) 
0

>  <s_epik_input>  (387) 
W2NIXTFbY0hdYyhbT0hdKWMyT1tDQEhdM1tDQEBIXShOKFtDSDJdW0NIM10pW0NIMl1bQ0gyXTQpW0NAXShbQ0gzXSkoQyg9TylbQ0hdPVtDSF01KU9bQ0BASF02W0NASF01YzFjMltDQEBdMzQ2

>  <s_epik_cmdline>  (387) 
J2VwaWtfcHl0aG9uJywgJy1waHQnLCAnMi4wJywgJy1waCcsICc3LjAnLCAnLXRuJywgJzgnLCAnLW1hJywgJzIwMCcsICctaW1hZScsICc8aW5maWxlLm1hZT4nLCAnLW9tYWUnLCAnPG91dGZpbGUubWFlPic=

>  <r_lp_tautomer_probability>  (387) 
1

>  <r_epik_Ionization_Penalty>  (387) 
1.78626

>  <r_epik_Ionization_Penalty_Charging>  (387) 
1.77143

>  <r_epik_Ionization_Penalty_Neutral>  (387) 
0.0148277

>  <r_epik_State_Penalty>  (387) 
2.01933

>  <r_epik_Charging_Adjusted_Penalty>  (387) 
3.79076

>  <i_epik_Tot_Q>  (387) 
1

>  <i_epik_Tot_abs_Q>  (387) 
1

>  <s_lp_Force_Field>  (387) 
OPLS3e

>  <r_lp_Energy>  (387) 
117.007

>  <b_lp_Chiralities_Consistent>  (387) 
1

>  <s_lp_Variant>  (387) 
93:0-2

>  <s_i_glide_gridfile>  (387) 
pfpi4k_grid

>  <i_i_glide_lignum>  (387) 
5

>  <i_i_glide_rotatable_bonds>  (387) 
2

>  <r_i_docking_score>  (387) 
-4.2693

>  <r_i_glide_ligand_efficiency>  (387) 
-0.170772

>  <r_i_glide_ligand_efficiency_sa>  (387) 
-0.499341

>  <r_i_glide_ligand_efficiency_ln>  (387) 
-1.01195

>  <r_i_glide_gscore>  (387) 
-4.2693

>  <r_i_glide_lipo>  (387) 
-1.10792

>  <r_i_glide_hbond>  (387) 
0

>  <r_i_glide_metal>  (387) 
-0

>  <r_i_glide_rewards>  (387) 
-1.08823

>  <r_i_glide_evdw>  (387) 
-20.149

>  <r_i_glide_ecoul>  (387) 
-7.09367

>  <r_i_glide_erotb>  (387) 
0

>  <r_i_glide_esite>  (387) 
-0.00164805

>  <r_i_glide_emodel>  (387) 
-33.0204

>  <r_i_glide_energy>  (387) 
-27.2427

>  <r_i_glide_einternal>  (387) 
2.45306

>  <r_i_glide_intrahb_reward>  (387) 
-0

>  <i_i_glide_confnum>  (387) 
2

>  <i_i_glide_posenum>  (387) 
1

>  <r_i_glide_eff_state_penalty>  (387) 
0

>  <ligand_id>  (387) 
93

>  <original_smiles>  (387) 
CCN1CCC23c4c5ccc(O)c4OC2C1C1(C)OC3C5C=CC1=O

>  <smiles>  (387) 
[H]Oc1c([H])c([H])c2c3c1OC1([H])C34C([H])([H])C([H])([H])[N+]([H])(C([H])([H])C([H])([H])[H])C1([H])C1(C([H])([H])[H])OC4([H])C2([H])C([H])=C([H])C1=O

$$$$
93:1:1
     RDKit          3D

 47 52  0  0  1  0  0  0  0  0999 V2000
    1.6367   -5.7679    4.8852 C   0  0  0  0  0  0  0  0  0  0  0  0
    2.8895   -5.9568    4.0153 C   0  0  0  0  0  0  0  0  0  0  0  0
    3.8342   -4.7990    4.0431 N   0  0  1  0  0  0  0  0  0  0  0  0
    5.1558   -5.1660    3.4452 C   0  0  0  0  0  0  0  0  0  0  0  0
    5.1507   -5.0698    1.9021 C   0  0  0  0  0  0  0  0  0  0  0  0
    4.5653   -3.7056    1.4725 C   0  0  1  0  0  0  0  0  0  0  0  0
    4.1596   -3.5313    0.0832 C   0  0  0  0  0  0  0  0  0  0  0  0
    4.5333   -2.3201   -0.4739 C   0  0  0  0  0  0  0  0  0  0  0  0
    3.8194   -1.9309   -1.6363 C   0  0  0  0  0  0  0  0  0  0  0  0
    2.7329   -2.7455   -2.0696 C   0  0  0  0  0  0  0  0  0  0  0  0
    2.2295   -3.7947   -1.2503 C   0  0  0  0  0  0  0  0  0  0  0  0
    1.0224   -4.3700   -1.5211 O   0  0  0  0  0  0  0  0  0  0  0  0
    2.9403   -4.1550   -0.0785 C   0  0  0  0  0  0  0  0  0  0  0  0
    2.4201   -4.5114    1.1475 O   0  0  0  0  0  0  0  0  0  0  0  0
    3.1487   -3.5794    1.9881 C   0  0  1  0  0  0  0  0  0  0  0  0
    3.2659   -3.5145    3.5007 C   0  0  2  0  0  0  0  0  0  0  0  0
    4.1280   -2.2057    3.8236 C   0  0  1  0  0  0  0  0  0  0  0  0
    4.4738   -2.1566    5.3328 C   0  0  0  0  0  0  0  0  0  0  0  0
    5.4023   -2.1689    3.1655 O   0  0  0  0  0  0  0  0  0  0  0  0
    5.4665   -2.5315    1.7849 C   0  0  2  0  0  0  0  0  0  0  0  0
    5.1903   -1.5083    0.6620 C   0  0  2  0  0  0  0  0  0  0  0  0
    4.3647   -0.3102    1.1312 C   0  0  0  0  0  0  0  0  0  0  0  0
    3.6491   -0.0573    2.2593 C   0  0  0  0  0  0  0  0  0  0  0  0
    3.3792   -0.8888    3.4692 C   0  0  0  0  0  0  0  0  0  0  0  0
    2.4897   -0.5353    4.2459 O   0  0  0  0  0  0  0  0  0  0  0  0
    1.0879   -6.7088    4.9571 H   0  0  0  0  0  0  0  0  0  0  0  0
    0.9480   -5.0352    4.4641 H   0  0  0  0  0  0  0  0  0  0  0  0
    1.8941   -5.4617    5.9004 H   0  0  0  0  0  0  0  0  0  0  0  0
    3.4105   -6.8400    4.3858 H   0  0  0  0  0  0  0  0  0  0  0  0
    2.6033   -6.1942    2.9912 H   0  0  0  0  0  0  0  0  0  0  0  0
    5.9178   -4.5087    3.8543 H   0  0  0  0  0  0  0  0  0  0  0  0
    5.4550   -6.1634    3.7663 H   0  0  0  0  0  0  0  0  0  0  0  0
    6.1559   -5.2231    1.5071 H   0  0  0  0  0  0  0  0  0  0  0  0
    4.5509   -5.8920    1.5102 H   0  0  0  0  0  0  0  0  0  0  0  0
    3.9821   -0.9649   -2.0962 H   0  0  0  0  0  0  0  0  0  0  0  0
    2.1529   -2.4311   -2.9271 H   0  0  0  0  0  0  0  0  0  0  0  0
    0.7532   -4.3144   -2.4254 H   0  0  0  0  0  0  0  0  0  0  0  0
    2.6920   -2.6263    1.7083 H   0  0  0  0  0  0  0  0  0  0  0  0
    2.2760   -3.3640    3.9219 H   0  0  0  0  0  0  0  0  0  0  0  0
    3.5836   -2.2181    5.9612 H   0  0  0  0  0  0  0  0  0  0  0  0
    4.9818   -1.2264    5.5889 H   0  0  0  0  0  0  0  0  0  0  0  0
    5.1437   -2.9632    5.6265 H   0  0  0  0  0  0  0  0  0  0  0  0
    6.4939   -2.8534    1.6220 H   0  0  0  0  0  0  0  0  0  0  0  0
    6.1366   -1.1176    0.2867 H   0  0  0  0  0  0  0  0  0  0  0  0
    4.3825    0.4985    0.4183 H   0  0  0  0  0  0  0  0  0  0  0  0
    3.1896    0.9228    2.2919 H   0  0  0  0  0  0  0  0  0  0  0  0
    4.0100   -4.6397    5.0260 H   0  0  0  0  0  0  0  0  0  0  0  0
  1  2  1  0
  1 26  1  0
  1 27  1  0
  1 28  1  0
  2  3  1  0
  2 29  1  0
  2 30  1  0
  3 16  1  0
  3  4  1  0
  3 47  1  1
  4  5  1  0
  4 31  1  0
  4 32  1  0
  6  5  1  6
  5 33  1  0
  5 34  1  0
  6 15  1  0
  6 20  1  0
  6  7  1  0
  7 13  2  0
  7  8  1  0
  8 21  1  0
  8  9  2  0
  9 10  1  0
  9 35  1  0
 10 11  2  0
 10 36  1  0
 11 12  1  0
 11 13  1  0
 12 37  1  0
 13 14  1  0
 14 15  1  0
 15 16  1  0
 15 38  1  6
 16 17  1  0
 16 39  1  1
 17 24  1  0
 17 18  1  1
 17 19  1  0
 18 40  1  0
 18 41  1  0
 18 42  1  0
 19 20  1  0
 20 21  1  0
 20 43  1  6
 21 22  1  0
 21 44  1  6
 22 23  2  0
 22 45  1  0
 23 24  1  0
 23 46  1  0
 24 25  2  0
M  CHG  1   3   1
M  END
>  <i_m_ct_stereo_status>  (388) 
1

>  <s_m_source_file>  (388) 
/var/tmp/pbs.5076255.sched01/tmpk5ywl0l3/150lwq6_0yz.sdf

>  <i_m_source_file_index>  (388) 
5

>  <i_lp_mmshare_version>  (388) 
48012

>  <i_f3d_flags>  (388) 
0

>  <s_epik_input>  (388) 
W2NIXTFbY0hdYyhbT0hdKWMyT1tDQEhdM1tDQEBIXShOKFtDSDJdW0NIM10pW0NIMl1bQ0gyXTQpW0NAXShbQ0gzXSkoQyg9TylbQ0hdPVtDSF01KU9bQ0BASF02W0NASF01YzFjMltDQEBdMzQ2

>  <s_epik_cmdline>  (388) 
J2VwaWtfcHl0aG9uJywgJy1waHQnLCAnMi4wJywgJy1waCcsICc3LjAnLCAnLXRuJywgJzgnLCAnLW1hJywgJzIwMCcsICctaW1hZScsICc8aW5maWxlLm1hZT4nLCAnLW9tYWUnLCAnPG91dGZpbGUubWFlPic=

>  <r_lp_tautomer_probability>  (388) 
1

>  <r_epik_Ionization_Penalty>  (388) 
1.78626

>  <r_epik_Ionization_Penalty_Charging>  (388) 
1.77143

>  <r_epik_Ionization_Penalty_Neutral>  (388) 
0.0148277

>  <r_epik_State_Penalty>  (388) 
2.01933

>  <r_epik_Charging_Adjusted_Penalty>  (388) 
3.79076

>  <i_epik_Tot_Q>  (388) 
1

>  <i_epik_Tot_abs_Q>  (388) 
1

>  <s_lp_Force_Field>  (388) 
OPLS3e

>  <r_lp_Energy>  (388) 
117.007

>  <b_lp_Chiralities_Consistent>  (388) 
1

>  <s_lp_Variant>  (388) 
93:0-2

>  <s_i_glide_gridfile>  (388) 
pfpi4k_grid

>  <i_i_glide_lignum>  (388) 
5

>  <i_i_glide_rotatable_bonds>  (388) 
2

>  <r_i_docking_score>  (388) 
-3.45374

>  <r_i_glide_ligand_efficiency>  (388) 
-0.13815

>  <r_i_glide_ligand_efficiency_sa>  (388) 
-0.403952

>  <r_i_glide_ligand_efficiency_ln>  (388) 
-0.81864

>  <r_i_glide_gscore>  (388) 
-3.45374

>  <r_i_glide_lipo>  (388) 
-0.362091

>  <r_i_glide_hbond>  (388) 
0

>  <r_i_glide_metal>  (388) 
-0

>  <r_i_glide_rewards>  (388) 
-1.09286

>  <r_i_glide_evdw>  (388) 
-17.1121

>  <r_i_glide_ecoul>  (388) 
-7.62124

>  <r_i_glide_erotb>  (388) 
0

>  <r_i_glide_esite>  (388) 
0

>  <r_i_glide_emodel>  (388) 
-30.5498

>  <r_i_glide_energy>  (388) 
-24.7334

>  <r_i_glide_einternal>  (388) 
0.576996

>  <r_i_glide_intrahb_reward>  (388) 
-0

>  <i_i_glide_confnum>  (388) 
2

>  <i_i_glide_posenum>  (388) 
19

>  <r_i_glide_eff_state_penalty>  (388) 
0

>  <ligand_id>  (388) 
93

>  <original_smiles>  (388) 
CCN1CCC23c4c5ccc(O)c4OC2C1C1(C)OC3C5C=CC1=O

>  <smiles>  (388) 
[H]Oc1c([H])c([H])c2c3c1OC1([H])C34C([H])([H])C([H])([H])[N+]([H])(C([H])([H])C([H])([H])[H])C1([H])C1(C([H])([H])[H])OC4([H])C2([H])C([H])=C([H])C1=O

$$$$
93:1:2
     RDKit          3D

 47 52  0  0  1  0  0  0  0  0999 V2000
    0.9031   -0.0453    2.6132 C   0  0  0  0  0  0  0  0  0  0  0  0
    1.6618   -1.0327    3.5129 C   0  0  0  0  0  0  0  0  0  0  0  0
    3.0366   -1.3571    3.0290 N   0  0  1  0  0  0  0  0  0  0  0  0
    3.8763   -1.9262    4.1260 C   0  0  0  0  0  0  0  0  0  0  0  0
    3.6314   -3.4378    4.3359 C   0  0  0  0  0  0  0  0  0  0  0  0
    3.7153   -4.1713    2.9761 C   0  0  1  0  0  0  0  0  0  0  0  0
    3.1981   -5.5317    2.8831 C   0  0  0  0  0  0  0  0  0  0  0  0
    3.9959   -6.3971    2.1538 C   0  0  0  0  0  0  0  0  0  0  0  0
    3.3589   -7.5648    1.6766 C   0  0  0  0  0  0  0  0  0  0  0  0
    1.9532   -7.7105    1.8692 C   0  0  0  0  0  0  0  0  0  0  0  0
    1.1672   -6.6276    2.3572 C   0  0  0  0  0  0  0  0  0  0  0  0
   -0.1953   -6.6574    2.2381 O   0  0  0  0  0  0  0  0  0  0  0  0
    1.8192   -5.4629    2.8212 C   0  0  0  0  0  0  0  0  0  0  0  0
    1.4434   -4.1490    2.6287 O   0  0  0  0  0  0  0  0  0  0  0  0
    2.6624   -3.6142    2.0455 C   0  0  1  0  0  0  0  0  0  0  0  0
    3.0700   -2.1736    1.7674 C   0  0  2  0  0  0  0  0  0  0  0  0
    4.5039   -2.2487    1.0558 C   0  0  1  0  0  0  0  0  0  0  0  0
    5.1051   -0.8292    0.9125 C   0  0  0  0  0  0  0  0  0  0  0  0
    5.4894   -2.9763    1.8077 O   0  0  0  0  0  0  0  0  0  0  0  0
    5.1145   -4.2215    2.4020 C   0  0  2  0  0  0  0  0  0  0  0  0
    5.1678   -5.5469    1.6152 C   0  0  2  0  0  0  0  0  0  0  0  0
    5.1324   -5.3472    0.1009 C   0  0  0  0  0  0  0  0  0  0  0  0
    4.8585   -4.2785   -0.6899 C   0  0  0  0  0  0  0  0  0  0  0  0
    4.4496   -2.8775   -0.3694 C   0  0  0  0  0  0  0  0  0  0  0  0
    4.0294   -2.1616   -1.2779 O   0  0  0  0  0  0  0  0  0  0  0  0
   -0.0146    0.2816    3.1078 H   0  0  0  0  0  0  0  0  0  0  0  0
    0.6056   -0.5024    1.6689 H   0  0  0  0  0  0  0  0  0  0  0  0
    1.4921    0.8477    2.3930 H   0  0  0  0  0  0  0  0  0  0  0  0
    1.7311   -0.5677    4.4965 H   0  0  0  0  0  0  0  0  0  0  0  0
    1.0718   -1.9368    3.6569 H   0  0  0  0  0  0  0  0  0  0  0  0
    4.9265   -1.7537    3.8960 H   0  0  0  0  0  0  0  0  0  0  0  0
    3.7078   -1.3854    5.0587 H   0  0  0  0  0  0  0  0  0  0  0  0
    4.3396   -3.8489    5.0557 H   0  0  0  0  0  0  0  0  0  0  0  0
    2.6429   -3.5699    4.7823 H   0  0  0  0  0  0  0  0  0  0  0  0
    3.8894   -8.2739    1.0588 H   0  0  0  0  0  0  0  0  0  0  0  0
    1.4606   -8.5868    1.4723 H   0  0  0  0  0  0  0  0  0  0  0  0
   -0.5108   -7.5104    1.9809 H   0  0  0  0  0  0  0  0  0  0  0  0
    2.6819   -4.0954    1.0640 H   0  0  0  0  0  0  0  0  0  0  0  0
    2.3697   -1.7398    1.0526 H   0  0  0  0  0  0  0  0  0  0  0  0
    4.4325   -0.1482    0.3851 H   0  0  0  0  0  0  0  0  0  0  0  0
    6.0420   -0.8522    0.3518 H   0  0  0  0  0  0  0  0  0  0  0  0
    5.3390   -0.3831    1.8785 H   0  0  0  0  0  0  0  0  0  0  0  0
    5.8024   -4.3628    3.2356 H   0  0  0  0  0  0  0  0  0  0  0  0
    6.0957   -6.0705    1.8483 H   0  0  0  0  0  0  0  0  0  0  0  0
    5.4005   -6.2500   -0.4248 H   0  0  0  0  0  0  0  0  0  0  0  0
    4.9426   -4.4711   -1.7519 H   0  0  0  0  0  0  0  0  0  0  0  0
    3.4425   -0.4619    2.7999 H   0  0  0  0  0  0  0  0  0  0  0  0
  1  2  1  0
  1 26  1  0
  1 27  1  0
  1 28  1  0
  2  3  1  0
  2 29  1  0
  2 30  1  0
  3 16  1  0
  3  4  1  0
  3 47  1  6
  4  5  1  0
  4 31  1  0
  4 32  1  0
  6  5  1  1
  5 33  1  0
  5 34  1  0
  6 15  1  0
  6 20  1  0
  6  7  1  0
  7 13  2  0
  7  8  1  0
  8 21  1  0
  8  9  2  0
  9 10  1  0
  9 35  1  0
 10 11  2  0
 10 36  1  0
 11 12  1  0
 11 13  1  0
 12 37  1  0
 13 14  1  0
 14 15  1  0
 15 16  1  0
 15 38  1  6
 16 17  1  0
 16 39  1  6
 17 24  1  0
 17 18  1  6
 17 19  1  0
 18 40  1  0
 18 41  1  0
 18 42  1  0
 19 20  1  0
 20 21  1  0
 20 43  1  1
 21 22  1  0
 21 44  1  6
 22 23  2  0
 22 45  1  0
 23 24  1  0
 23 46  1  0
 24 25  2  0
M  CHG  1   3   1
M  END
>  <i_m_ct_stereo_status>  (389) 
1

>  <s_m_source_file>  (389) 
/var/tmp/pbs.5076255.sched01/tmpk5ywl0l3/150lwq6_0yz.sdf

>  <i_m_source_file_index>  (389) 
5

>  <i_lp_mmshare_version>  (389) 
48012

>  <i_f3d_flags>  (389) 
0

>  <s_epik_input>  (389) 
W2NIXTFbY0hdYyhbT0hdKWMyT1tDQEhdM1tDQEBIXShOKFtDSDJdW0NIM10pW0NIMl1bQ0gyXTQpW0NAXShbQ0gzXSkoQyg9TylbQ0hdPVtDSF01KU9bQ0BASF02W0NASF01YzFjMltDQEBdMzQ2

>  <s_epik_cmdline>  (389) 
J2VwaWtfcHl0aG9uJywgJy1waHQnLCAnMi4wJywgJy1waCcsICc3LjAnLCAnLXRuJywgJzgnLCAnLW1hJywgJzIwMCcsICctaW1hZScsICc8aW5maWxlLm1hZT4nLCAnLW9tYWUnLCAnPG91dGZpbGUubWFlPic=

>  <r_lp_tautomer_probability>  (389) 
1

>  <r_epik_Ionization_Penalty>  (389) 
1.78626

>  <r_epik_Ionization_Penalty_Charging>  (389) 
1.77143

>  <r_epik_Ionization_Penalty_Neutral>  (389) 
0.0148277

>  <r_epik_State_Penalty>  (389) 
2.01933

>  <r_epik_Charging_Adjusted_Penalty>  (389) 
3.79076

>  <i_epik_Tot_Q>  (389) 
1

>  <i_epik_Tot_abs_Q>  (389) 
1

>  <s_lp_Force_Field>  (389) 
OPLS3e

>  <r_lp_Energy>  (389) 
117.007

>  <b_lp_Chiralities_Consistent>  (389) 
1

>  <s_lp_Variant>  (389) 
93:0-2

>  <s_i_glide_gridfile>  (389) 
pfpi4k_grid

>  <i_i_glide_lignum>  (389) 
5

>  <i_i_glide_rotatable_bonds>  (389) 
2

>  <r_i_docking_score>  (389) 
-3.20396

>  <r_i_glide_ligand_efficiency>  (389) 
-0.128158

>  <r_i_glide_ligand_efficiency_sa>  (389) 
-0.374737

>  <r_i_glide_ligand_efficiency_ln>  (389) 
-0.759435

>  <r_i_glide_gscore>  (389) 
-3.20396

>  <r_i_glide_lipo>  (389) 
-0.324595

>  <r_i_glide_hbond>  (389) 
0

>  <r_i_glide_metal>  (389) 
-0

>  <r_i_glide_rewards>  (389) 
-1.0883

>  <r_i_glide_evdw>  (389) 
-22.2087

>  <r_i_glide_ecoul>  (389) 
-4.52473

>  <r_i_glide_erotb>  (389) 
0

>  <r_i_glide_esite>  (389) 
-0.00191723

>  <r_i_glide_emodel>  (389) 
-32.4295

>  <r_i_glide_energy>  (389) 
-26.7334

>  <r_i_glide_einternal>  (389) 
0.115597

>  <r_i_glide_intrahb_reward>  (389) 
-0

>  <i_i_glide_confnum>  (389) 
2

>  <i_i_glide_posenum>  (389) 
8

>  <r_i_glide_eff_state_penalty>  (389) 
0

>  <ligand_id>  (389) 
93

>  <original_smiles>  (389) 
CCN1CCC23c4c5ccc(O)c4OC2C1C1(C)OC3C5C=CC1=O

>  <smiles>  (389) 
[H]Oc1c([H])c([H])c2c3c1OC1([H])C34C([H])([H])C([H])([H])[N+]([H])(C([H])([H])C([H])([H])[H])C1([H])C1(C([H])([H])[H])OC4([H])C2([H])C([H])=C([H])C1=O

$$$$
94:0:0
     RDKit          3D

 80 84  0  0  1  0  0  0  0  0999 V2000
   -1.0413   -7.9496    4.6139 C   0  0  0  0  0  0  0  0  0  0  0  0
   -0.7819   -8.2945    3.1381 C   0  0  0  0  0  0  0  0  0  0  0  0
   -1.8623   -9.2179    2.6562 C   0  0  0  0  0  0  0  0  0  0  0  0
   -1.0841   -7.1685    2.3495 O   0  0  0  0  0  0  0  0  0  0  0  0
    0.6065   -8.9593    2.7340 C   0  0  2  0  0  0  0  0  0  0  0  0
    1.2373   -9.9656    3.7624 C   0  0  0  0  0  0  0  0  0  0  0  0
    2.4416   -9.2178    4.3874 C   0  0  0  0  0  0  0  0  0  0  0  0
    2.4338   -7.8215    3.7113 C   0  0  2  0  0  0  0  0  0  0  0  0
    1.8318   -8.0670    2.3328 C   0  0  1  0  0  0  0  0  0  0  0  0
    2.7459   -8.8849    1.3706 C   0  0  0  0  0  0  0  0  0  0  0  0
    1.5466   -6.7332    1.6707 C   0  0  0  0  0  0  0  0  0  0  0  0
    2.0613   -5.5674    2.1076 C   0  0  0  0  0  0  0  0  0  0  0  0
    3.0301   -5.3916    3.2840 C   0  0  2  0  0  0  0  0  0  0  0  0
    4.0762   -4.2074    3.1175 C   0  0  2  0  0  0  0  0  0  0  0  0
    4.4274   -3.6609    4.5320 C   0  0  0  0  0  0  0  0  0  0  0  0
    3.4668   -2.9388    2.4086 C   0  0  0  0  0  0  0  0  0  0  0  0
    3.6987   -2.7999    0.8865 C   0  0  0  0  0  0  0  0  0  0  0  0
    5.1436   -3.0608    0.4315 C   0  0  1  0  0  0  0  0  0  0  0  0
    6.1064   -1.8707    0.6760 C   0  0  0  0  0  0  0  0  0  0  0  0
    5.7474   -0.7281   -0.2909 C   0  0  0  0  0  0  0  0  0  0  0  0
    6.0914   -1.2506    2.0764 C   0  0  0  0  0  0  0  0  0  0  0  0
    7.5675   -2.3145    0.4069 C   0  0  0  0  0  0  0  0  0  0  0  0
    8.3894   -1.5759   -0.1430 O   0  0  0  0  0  0  0  0  0  0  0  0
    8.0230   -3.6886    0.8931 C   0  0  0  0  0  0  0  0  0  0  0  0
    7.0621   -4.7341    0.4406 C   0  0  0  0  0  0  0  0  0  0  0  0
    5.6036   -4.4854    0.8897 C   0  0  2  0  0  0  0  0  0  0  0  0
    4.8279   -5.5342    0.0584 C   0  0  0  0  0  0  0  0  0  0  0  0
    5.4297   -4.6556    2.4477 C   0  0  2  0  0  0  0  0  0  0  0  0
    5.8934   -6.0224    2.9852 C   0  0  0  0  0  0  0  0  0  0  0  0
    7.0585   -6.1862    3.3442 O   0  0  0  0  0  0  0  0  0  0  0  0
    4.8482   -7.1303    2.9977 C   0  0  1  0  0  0  0  0  0  0  0  0
    5.4057   -8.3563    3.4476 O   0  0  0  0  0  0  0  0  0  0  0  0
    3.5953   -6.7721    3.8234 C   0  0  2  0  0  0  0  0  0  0  0  0
    3.9547   -6.6967    5.3317 C   0  0  0  0  0  0  0  0  0  0  0  0
   -0.9828   -8.8362    5.2617 H   0  0  0  0  0  0  0  0  0  0  0  0
   -2.0516   -7.5286    4.7019 H   0  0  0  0  0  0  0  0  0  0  0  0
   -0.3735   -7.1787    4.9983 H   0  0  0  0  0  0  0  0  0  0  0  0
   -1.5511  -10.2132    3.0301 H   0  0  0  0  0  0  0  0  0  0  0  0
   -1.9814   -9.2706    1.5629 H   0  0  0  0  0  0  0  0  0  0  0  0
   -2.8059   -8.9132    3.1068 H   0  0  0  0  0  0  0  0  0  0  0  0
   -1.1343   -7.5241    1.4868 H   0  0  0  0  0  0  0  0  0  0  0  0
    0.3864   -9.5707    1.8605 H   0  0  0  0  0  0  0  0  0  0  0  0
    0.5158  -10.3550    4.4913 H   0  0  0  0  0  0  0  0  0  0  0  0
    1.6682  -10.8134    3.2086 H   0  0  0  0  0  0  0  0  0  0  0  0
    2.3150   -9.1005    5.4612 H   0  0  0  0  0  0  0  0  0  0  0  0
    3.3676   -9.7664    4.2197 H   0  0  0  0  0  0  0  0  0  0  0  0
    1.6549   -7.2956    4.2635 H   0  0  0  0  0  0  0  0  0  0  0  0
    3.3475   -9.6417    1.8833 H   0  0  0  0  0  0  0  0  0  0  0  0
    3.4161   -8.2438    0.7993 H   0  0  0  0  0  0  0  0  0  0  0  0
    2.1717   -9.4133    0.6098 H   0  0  0  0  0  0  0  0  0  0  0  0
    0.8632   -6.7619    0.8384 H   0  0  0  0  0  0  0  0  0  0  0  0
    1.7601   -4.6553    1.6099 H   0  0  0  0  0  0  0  0  0  0  0  0
    2.3340   -5.0483    4.0417 H   0  0  0  0  0  0  0  0  0  0  0  0
    4.9322   -2.6940    4.4948 H   0  0  0  0  0  0  0  0  0  0  0  0
    5.1358   -4.2929    5.0587 H   0  0  0  0  0  0  0  0  0  0  0  0
    3.5268   -3.5288    5.1384 H   0  0  0  0  0  0  0  0  0  0  0  0
    2.3952   -2.8952    2.5756 H   0  0  0  0  0  0  0  0  0  0  0  0
    3.7815   -2.0096    2.8860 H   0  0  0  0  0  0  0  0  0  0  0  0
    3.0249   -3.4786    0.3528 H   0  0  0  0  0  0  0  0  0  0  0  0
    3.3570   -1.8107    0.5736 H   0  0  0  0  0  0  0  0  0  0  0  0
    5.0773   -3.1220   -0.6574 H   0  0  0  0  0  0  0  0  0  0  0  0
    4.7774   -0.2982   -0.0973 H   0  0  0  0  0  0  0  0  0  0  0  0
    5.7817   -1.0451   -1.3381 H   0  0  0  0  0  0  0  0  0  0  0  0
    6.4560    0.0991   -0.1387 H   0  0  0  0  0  0  0  0  0  0  0  0
    5.2544   -0.5607    2.2104 H   0  0  0  0  0  0  0  0  0  0  0  0
    7.0285   -0.6918    2.2273 H   0  0  0  0  0  0  0  0  0  0  0  0
    6.0785   -1.9961    2.8557 H   0  0  0  0  0  0  0  0  0  0  0  0
    9.0237   -3.8746    0.5202 H   0  0  0  0  0  0  0  0  0  0  0  0
    8.0218   -3.6964    1.9674 H   0  0  0  0  0  0  0  0  0  0  0  0
    7.0642   -4.6688   -0.6454 H   0  0  0  0  0  0  0  0  0  0  0  0
    7.4460   -5.7145    0.7287 H   0  0  0  0  0  0  0  0  0  0  0  0
    5.2799   -6.5205    0.1557 H   0  0  0  0  0  0  0  0  0  0  0  0
    4.8883   -5.2768   -0.9972 H   0  0  0  0  0  0  0  0  0  0  0  0
    3.7757   -5.5888    0.3097 H   0  0  0  0  0  0  0  0  0  0  0  0
    6.1680   -3.9915    2.8768 H   0  0  0  0  0  0  0  0  0  0  0  0
    4.5635   -7.2603    1.9680 H   0  0  0  0  0  0  0  0  0  0  0  0
    4.7780   -9.0284    3.3291 H   0  0  0  0  0  0  0  0  0  0  0  0
    4.9293   -6.2564    5.5218 H   0  0  0  0  0  0  0  0  0  0  0  0
    4.0371   -7.6829    5.7868 H   0  0  0  0  0  0  0  0  0  0  0  0
    3.2104   -6.1429    5.9069 H   0  0  0  0  0  0  0  0  0  0  0  0
  1  2  1  0
  1 35  1  0
  1 36  1  0
  1 37  1  0
  2  3  1  0
  2  4  1  0
  2  5  1  0
  3 38  1  0
  3 39  1  0
  3 40  1  0
  4 41  1  0
  5  9  1  0
  5  6  1  0
  5 42  1  6
  6  7  1  0
  6 43  1  0
  6 44  1  0
  7  8  1  0
  7 45  1  0
  7 46  1  0
  8 33  1  0
  8  9  1  0
  8 47  1  1
  9 10  1  6
  9 11  1  0
 10 48  1  0
 10 49  1  0
 10 50  1  0
 11 12  2  0
 11 51  1  0
 12 13  1  0
 12 52  1  0
 13 33  1  0
 13 14  1  0
 13 53  1  1
 14 28  1  0
 14 15  1  1
 14 16  1  0
 15 54  1  0
 15 55  1  0
 15 56  1  0
 16 17  1  0
 16 57  1  0
 16 58  1  0
 17 18  1  0
 17 59  1  0
 17 60  1  0
 18 26  1  0
 18 19  1  0
 18 61  1  6
 19 20  1  0
 19 21  1  0
 19 22  1  0
 20 62  1  0
 20 63  1  0
 20 64  1  0
 21 65  1  0
 21 66  1  0
 21 67  1  0
 22 23  2  0
 22 24  1  0
 24 25  1  0
 24 68  1  0
 24 69  1  0
 25 26  1  0
 25 70  1  0
 25 71  1  0
 26 27  1  6
 26 28  1  0
 27 72  1  0
 27 73  1  0
 27 74  1  0
 28 29  1  0
 28 75  1  1
 29 30  2  0
 29 31  1  0
 31 32  1  0
 31 33  1  0
 31 76  1  6
 32 77  1  0
 33 34  1  1
 34 78  1  0
 34 79  1  0
 34 80  1  0
M  END
>  <i_m_ct_stereo_status>  (390) 
1

>  <s_m_source_file>  (390) 
/var/tmp/pbs.5076255.sched01/tmpk5ywl0l3/150lwq6_0yz.sdf

>  <i_m_source_file_index>  (390) 
6

>  <i_lp_mmshare_version>  (390) 
48012

>  <i_f3d_flags>  (390) 
0

>  <s_epik_input>  (390) 
W0NIM11DKFtDSDNdKShbT0hdKVtDQEBIXTFbQ0gyXVtDSDJdW0NASF0oW0NAQF0xMltDSDNdKVtDQF0zKFtDSDNdKVtDQEhdKFtDSF09W0NIXTIpW0NAQF00KFtDSDNdKVtDQEBIXShDKD1PKVtDQEhdM1tPSF0pW0NAQF01KFtDSDNdKVtDQEBIXShbQ0gyXVtDSDJdNClDKFtDSDNdKShbQ0gzXSlDKD1PKVtDSDJdW0NIMl01

>  <s_epik_cmdline>  (390) 
J2VwaWtfcHl0aG9uJywgJy1waHQnLCAnMi4wJywgJy1waCcsICc3LjAnLCAnLXRuJywgJzgnLCAnLW1hJywgJzIwMCcsICctaW1hZScsICc8aW5maWxlLm1hZT4nLCAnLW9tYWUnLCAnPG91dGZpbGUubWFlPic=

>  <r_lp_tautomer_probability>  (390) 
1

>  <r_epik_Ionization_Penalty>  (390) 
7.77803e-07

>  <r_epik_Ionization_Penalty_Charging>  (390) 
0

>  <r_epik_Ionization_Penalty_Neutral>  (390) 
7.77803e-07

>  <r_epik_State_Penalty>  (390) 
-0

>  <r_epik_Charging_Adjusted_Penalty>  (390) 
0

>  <i_epik_Tot_Q>  (390) 
0

>  <i_epik_Tot_abs_Q>  (390) 
0

>  <s_lp_Force_Field>  (390) 
OPLS3e

>  <r_lp_Energy>  (390) 
86.3878

>  <b_lp_Chiralities_Consistent>  (390) 
1

>  <s_lp_Variant>  (390) 
94:0-1

>  <s_i_glide_gridfile>  (390) 
pfpi4k_grid

>  <i_i_glide_lignum>  (390) 
6

>  <i_i_glide_rotatable_bonds>  (390) 
3

>  <r_i_docking_score>  (390) 
-3.28125

>  <r_i_glide_ligand_efficiency>  (390) 
-0.0965072

>  <r_i_glide_ligand_efficiency_sa>  (390) 
-0.312646

>  <r_i_glide_ligand_efficiency_ln>  (390) 
-0.724919

>  <r_i_glide_gscore>  (390) 
-3.28125

>  <r_i_glide_lipo>  (390) 
-0.801594

>  <r_i_glide_hbond>  (390) 
-0.241069

>  <r_i_glide_metal>  (390) 
-0

>  <r_i_glide_rewards>  (390) 
-0.434536

>  <r_i_glide_evdw>  (390) 
-23.3936

>  <r_i_glide_ecoul>  (390) 
-4.83718

>  <r_i_glide_erotb>  (390) 
0.0912097

>  <r_i_glide_esite>  (390) 
0

>  <r_i_glide_emodel>  (390) 
-29.8772

>  <r_i_glide_energy>  (390) 
-28.2308

>  <r_i_glide_einternal>  (390) 
5.28183

>  <r_i_glide_intrahb_reward>  (390) 
-0

>  <i_i_glide_confnum>  (390) 
3

>  <i_i_glide_posenum>  (390) 
33

>  <r_i_glide_eff_state_penalty>  (390) 
0

>  <ligand_id>  (390) 
94

>  <original_smiles>  (390) 
CC(C)(O)C1CCC2C1(C)C=CC1C3(C)CCC4C(C)(C)C(=O)CCC4(C)C3C(=O)C(O)C21C

>  <smiles>  (390) 
[H]OC1([H])C(=O)C2([H])C(C([H])([H])[H])(C([H])([H])C([H])([H])C3([H])C(C([H])([H])[H])(C([H])([H])[H])C(=O)C([H])([H])C([H])([H])C23C([H])([H])[H])C2([H])C([H])=C([H])C3(C([H])([H])[H])C([H])(C(O[H])(C([H])([H])[H])C([H])([H])[H])C([H])([H])C([H])([H])C3([H])C12C([H])([H])[H]

$$$$
94:0:1
     RDKit          3D

 80 84  0  0  1  0  0  0  0  0999 V2000
   -1.4468   -7.7058    3.6068 C   0  0  0  0  0  0  0  0  0  0  0  0
   -0.2157   -8.3570    2.9642 C   0  0  0  0  0  0  0  0  0  0  0  0
   -0.5577   -9.8239    2.6148 C   0  0  0  0  0  0  0  0  0  0  0  0
   -0.0545   -7.7336    1.7041 O   0  0  0  0  0  0  0  0  0  0  0  0
    1.1154   -8.2385    3.8029 C   0  0  2  0  0  0  0  0  0  0  0  0
    1.0670   -8.9982    5.1646 C   0  0  0  0  0  0  0  0  0  0  0  0
    1.1035   -7.9663    6.3085 C   0  0  0  0  0  0  0  0  0  0  0  0
    1.0094   -6.6116    5.5916 C   0  0  2  0  0  0  0  0  0  0  0  0
    1.7037   -6.8435    4.2282 C   0  0  1  0  0  0  0  0  0  0  0  0
    3.2524   -7.0006    4.2972 C   0  0  0  0  0  0  0  0  0  0  0  0
    1.4215   -5.6450    3.3498 C   0  0  0  0  0  0  0  0  0  0  0  0
    1.0058   -4.4516    3.8268 C   0  0  0  0  0  0  0  0  0  0  0  0
    0.6893   -4.1176    5.2957 C   0  0  2  0  0  0  0  0  0  0  0  0
    0.9446   -2.5969    5.7131 C   0  0  2  0  0  0  0  0  0  0  0  0
   -0.0640   -2.2307    6.8474 C   0  0  0  0  0  0  0  0  0  0  0  0
    0.5614   -1.5782    4.5790 C   0  0  0  0  0  0  0  0  0  0  0  0
    1.6983   -1.0576    3.6791 C   0  0  0  0  0  0  0  0  0  0  0  0
    2.9684   -0.6032    4.4309 C   0  0  1  0  0  0  0  0  0  0  0  0
    2.9066    0.8464    5.0746 C   0  0  0  0  0  0  0  0  0  0  0  0
    2.9204    1.8991    3.9386 C   0  0  0  0  0  0  0  0  0  0  0  0
    1.6838    1.1531    5.9636 C   0  0  0  0  0  0  0  0  0  0  0  0
    4.1459    1.0862    5.9708 C   0  0  0  0  0  0  0  0  0  0  0  0
    4.7790    2.1423    5.9677 O   0  0  0  0  0  0  0  0  0  0  0  0
    4.5393   -0.0496    6.9050 C   0  0  0  0  0  0  0  0  0  0  0  0
    4.7703   -1.3090    6.0781 C   0  0  0  0  0  0  0  0  0  0  0  0
    3.5141   -1.7902    5.3027 C   0  0  2  0  0  0  0  0  0  0  0  0
    4.0671   -2.8946    4.3580 C   0  0  0  0  0  0  0  0  0  0  0  0
    2.3912   -2.3272    6.2772 C   0  0  2  0  0  0  0  0  0  0  0  0
    2.8526   -3.4728    7.1997 C   0  0  0  0  0  0  0  0  0  0  0  0
    3.3418   -3.2284    8.3040 O   0  0  0  0  0  0  0  0  0  0  0  0
    2.6725   -4.9036    6.6722 C   0  0  1  0  0  0  0  0  0  0  0  0
    3.1948   -5.8501    7.5827 O   0  0  0  0  0  0  0  0  0  0  0  0
    1.2013   -5.2296    6.3072 C   0  0  2  0  0  0  0  0  0  0  0  0
    0.3299   -5.2855    7.6002 C   0  0  0  0  0  0  0  0  0  0  0  0
   -1.6373   -8.1247    4.5924 H   0  0  0  0  0  0  0  0  0  0  0  0
   -2.3432   -7.8826    3.0146 H   0  0  0  0  0  0  0  0  0  0  0  0
   -1.3326   -6.6289    3.7094 H   0  0  0  0  0  0  0  0  0  0  0  0
   -0.5263  -10.4902    3.4748 H   0  0  0  0  0  0  0  0  0  0  0  0
    0.1255  -10.2470    1.8787 H   0  0  0  0  0  0  0  0  0  0  0  0
   -1.5683   -9.8953    2.2102 H   0  0  0  0  0  0  0  0  0  0  0  0
    0.2066   -8.4025    1.0830 H   0  0  0  0  0  0  0  0  0  0  0  0
    1.8498   -8.7569    3.1810 H   0  0  0  0  0  0  0  0  0  0  0  0
    0.1865   -9.6328    5.2653 H   0  0  0  0  0  0  0  0  0  0  0  0
    1.9332   -9.6566    5.2565 H   0  0  0  0  0  0  0  0  0  0  0  0
    0.2481   -8.1159    6.9670 H   0  0  0  0  0  0  0  0  0  0  0  0
    2.0071   -8.0912    6.9061 H   0  0  0  0  0  0  0  0  0  0  0  0
   -0.0581   -6.5674    5.3855 H   0  0  0  0  0  0  0  0  0  0  0  0
    3.5816   -7.5090    5.2049 H   0  0  0  0  0  0  0  0  0  0  0  0
    3.7794   -6.0508    4.2297 H   0  0  0  0  0  0  0  0  0  0  0  0
    3.6394   -7.5758    3.4510 H   0  0  0  0  0  0  0  0  0  0  0  0
    1.5978   -5.7752    2.2932 H   0  0  0  0  0  0  0  0  0  0  0  0
    0.8094   -3.6834    3.1023 H   0  0  0  0  0  0  0  0  0  0  0  0
   -0.3940   -4.2255    5.2768 H   0  0  0  0  0  0  0  0  0  0  0  0
   -0.1416   -1.1533    7.0089 H   0  0  0  0  0  0  0  0  0  0  0  0
    0.2332   -2.6005    7.8236 H   0  0  0  0  0  0  0  0  0  0  0  0
   -1.0706   -2.5886    6.6272 H   0  0  0  0  0  0  0  0  0  0  0  0
   -0.2277   -1.9922    3.9521 H   0  0  0  0  0  0  0  0  0  0  0  0
    0.0726   -0.6942    4.9832 H   0  0  0  0  0  0  0  0  0  0  0  0
    1.9646   -1.8326    2.9643 H   0  0  0  0  0  0  0  0  0  0  0  0
    1.3117   -0.2549    3.0509 H   0  0  0  0  0  0  0  0  0  0  0  0
    3.7114   -0.4831    3.6403 H   0  0  0  0  0  0  0  0  0  0  0  0
    2.0332    1.8437    3.3107 H   0  0  0  0  0  0  0  0  0  0  0  0
    3.7936    1.7725    3.2953 H   0  0  0  0  0  0  0  0  0  0  0  0
    2.9535    2.9176    4.3302 H   0  0  0  0  0  0  0  0  0  0  0  0
    0.7812    1.2983    5.3744 H   0  0  0  0  0  0  0  0  0  0  0  0
    1.8304    2.0858    6.5148 H   0  0  0  0  0  0  0  0  0  0  0  0
    1.5051    0.3819    6.7071 H   0  0  0  0  0  0  0  0  0  0  0  0
    5.4489    0.2281    7.4322 H   0  0  0  0  0  0  0  0  0  0  0  0
    3.7616   -0.1925    7.6523 H   0  0  0  0  0  0  0  0  0  0  0  0
    5.5624   -1.0933    5.3613 H   0  0  0  0  0  0  0  0  0  0  0  0
    5.1770   -2.0931    6.7139 H   0  0  0  0  0  0  0  0  0  0  0  0
    4.6589   -3.6310    4.9021 H   0  0  0  0  0  0  0  0  0  0  0  0
    4.7346   -2.4724    3.6077 H   0  0  0  0  0  0  0  0  0  0  0  0
    3.2949   -3.4257    3.8161 H   0  0  0  0  0  0  0  0  0  0  0  0
    2.2503   -1.5143    6.9831 H   0  0  0  0  0  0  0  0  0  0  0  0
    3.2680   -4.9509    5.7739 H   0  0  0  0  0  0  0  0  0  0  0  0
    3.1403   -6.7067    7.1832 H   0  0  0  0  0  0  0  0  0  0  0  0
    0.5973   -4.5378    8.3393 H   0  0  0  0  0  0  0  0  0  0  0  0
    0.4599   -6.2204    8.1403 H   0  0  0  0  0  0  0  0  0  0  0  0
   -0.7334   -5.1904    7.3865 H   0  0  0  0  0  0  0  0  0  0  0  0
  1  2  1  0
  1 35  1  0
  1 36  1  0
  1 37  1  0
  2  3  1  0
  2  4  1  0
  2  5  1  0
  3 38  1  0
  3 39  1  0
  3 40  1  0
  4 41  1  0
  5  9  1  0
  5  6  1  0
  5 42  1  6
  6  7  1  0
  6 43  1  0
  6 44  1  0
  7  8  1  0
  7 45  1  0
  7 46  1  0
  8 33  1  0
  8  9  1  0
  8 47  1  6
  9 10  1  1
  9 11  1  0
 10 48  1  0
 10 49  1  0
 10 50  1  0
 11 12  2  0
 11 51  1  0
 12 13  1  0
 12 52  1  0
 13 33  1  0
 13 14  1  0
 13 53  1  6
 14 28  1  0
 14 15  1  1
 14 16  1  0
 15 54  1  0
 15 55  1  0
 15 56  1  0
 16 17  1  0
 16 57  1  0
 16 58  1  0
 17 18  1  0
 17 59  1  0
 17 60  1  0
 18 26  1  0
 18 19  1  0
 18 61  1  6
 19 20  1  0
 19 21  1  0
 19 22  1  0
 20 62  1  0
 20 63  1  0
 20 64  1  0
 21 65  1  0
 21 66  1  0
 21 67  1  0
 22 23  2  0
 22 24  1  0
 24 25  1  0
 24 68  1  0
 24 69  1  0
 25 26  1  0
 25 70  1  0
 25 71  1  0
 26 27  1  6
 26 28  1  0
 27 72  1  0
 27 73  1  0
 27 74  1  0
 28 29  1  0
 28 75  1  1
 29 30  2  0
 29 31  1  0
 31 32  1  0
 31 33  1  0
 31 76  1  6
 32 77  1  0
 33 34  1  1
 34 78  1  0
 34 79  1  0
 34 80  1  0
M  END
>  <i_m_ct_stereo_status>  (391) 
1

>  <s_m_source_file>  (391) 
/var/tmp/pbs.5076255.sched01/tmpk5ywl0l3/150lwq6_0yz.sdf

>  <i_m_source_file_index>  (391) 
6

>  <i_lp_mmshare_version>  (391) 
48012

>  <i_f3d_flags>  (391) 
0

>  <s_epik_input>  (391) 
W0NIM11DKFtDSDNdKShbT0hdKVtDQEBIXTFbQ0gyXVtDSDJdW0NASF0oW0NAQF0xMltDSDNdKVtDQF0zKFtDSDNdKVtDQEhdKFtDSF09W0NIXTIpW0NAQF00KFtDSDNdKVtDQEBIXShDKD1PKVtDQEhdM1tPSF0pW0NAQF01KFtDSDNdKVtDQEBIXShbQ0gyXVtDSDJdNClDKFtDSDNdKShbQ0gzXSlDKD1PKVtDSDJdW0NIMl01

>  <s_epik_cmdline>  (391) 
J2VwaWtfcHl0aG9uJywgJy1waHQnLCAnMi4wJywgJy1waCcsICc3LjAnLCAnLXRuJywgJzgnLCAnLW1hJywgJzIwMCcsICctaW1hZScsICc8aW5maWxlLm1hZT4nLCAnLW9tYWUnLCAnPG91dGZpbGUubWFlPic=

>  <r_lp_tautomer_probability>  (391) 
1

>  <r_epik_Ionization_Penalty>  (391) 
7.77803e-07

>  <r_epik_Ionization_Penalty_Charging>  (391) 
0

>  <r_epik_Ionization_Penalty_Neutral>  (391) 
7.77803e-07

>  <r_epik_State_Penalty>  (391) 
-0

>  <r_epik_Charging_Adjusted_Penalty>  (391) 
0

>  <i_epik_Tot_Q>  (391) 
0

>  <i_epik_Tot_abs_Q>  (391) 
0

>  <s_lp_Force_Field>  (391) 
OPLS3e

>  <r_lp_Energy>  (391) 
86.3878

>  <b_lp_Chiralities_Consistent>  (391) 
1

>  <s_lp_Variant>  (391) 
94:0-1

>  <s_i_glide_gridfile>  (391) 
pfpi4k_grid

>  <i_i_glide_lignum>  (391) 
6

>  <i_i_glide_rotatable_bonds>  (391) 
3

>  <r_i_docking_score>  (391) 
-2.46252

>  <r_i_glide_ligand_efficiency>  (391) 
-0.0724269

>  <r_i_glide_ligand_efficiency_sa>  (391) 
-0.234635

>  <r_i_glide_ligand_efficiency_ln>  (391) 
-0.544039

>  <r_i_glide_gscore>  (391) 
-2.46252

>  <r_i_glide_lipo>  (391) 
-0.0365364

>  <r_i_glide_hbond>  (391) 
-0.32

>  <r_i_glide_metal>  (391) 
-0

>  <r_i_glide_rewards>  (391) 
-0.200439

>  <r_i_glide_evdw>  (391) 
-25.1966

>  <r_i_glide_ecoul>  (391) 
-4.91281

>  <r_i_glide_erotb>  (391) 
0.0912097

>  <r_i_glide_esite>  (391) 
0

>  <r_i_glide_emodel>  (391) 
-33.636

>  <r_i_glide_energy>  (391) 
-30.1094

>  <r_i_glide_einternal>  (391) 
0.924446

>  <r_i_glide_intrahb_reward>  (391) 
-0

>  <i_i_glide_confnum>  (391) 
1

>  <i_i_glide_posenum>  (391) 
5

>  <r_i_glide_eff_state_penalty>  (391) 
0

>  <ligand_id>  (391) 
94

>  <original_smiles>  (391) 
CC(C)(O)C1CCC2C1(C)C=CC1C3(C)CCC4C(C)(C)C(=O)CCC4(C)C3C(=O)C(O)C21C

>  <smiles>  (391) 
[H]OC1([H])C(=O)C2([H])C(C([H])([H])[H])(C([H])([H])C([H])([H])C3([H])C(C([H])([H])[H])(C([H])([H])[H])C(=O)C([H])([H])C([H])([H])C23C([H])([H])[H])C2([H])C([H])=C([H])C3(C([H])([H])[H])C([H])(C(O[H])(C([H])([H])[H])C([H])([H])[H])C([H])([H])C([H])([H])C3([H])C12C([H])([H])[H]

$$$$
94:0:2
     RDKit          3D

 80 84  0  0  1  0  0  0  0  0999 V2000
   -1.0425   -8.2349    3.4871 C   0  0  0  0  0  0  0  0  0  0  0  0
    0.3603   -8.7876    3.2096 C   0  0  0  0  0  0  0  0  0  0  0  0
    0.2543  -10.2915    2.8878 C   0  0  0  0  0  0  0  0  0  0  0  0
    0.7918   -8.2356    1.9854 O   0  0  0  0  0  0  0  0  0  0  0  0
    1.4525   -8.5165    4.3141 C   0  0  2  0  0  0  0  0  0  0  0  0
    1.0965   -9.1408    5.6985 C   0  0  0  0  0  0  0  0  0  0  0  0
    0.8304   -7.9924    6.6968 C   0  0  0  0  0  0  0  0  0  0  0  0
    0.8900   -6.7189    5.8377 C   0  0  2  0  0  0  0  0  0  0  0  0
    1.8860   -7.0589    4.7045 C   0  0  1  0  0  0  0  0  0  0  0  0
    3.3756   -7.1379    5.1554 C   0  0  0  0  0  0  0  0  0  0  0  0
    1.7940   -5.9815    3.6443 C   0  0  0  0  0  0  0  0  0  0  0  0
    1.2366   -4.7739    3.8599 C   0  0  0  0  0  0  0  0  0  0  0  0
    0.5916   -4.2986    5.1715 C   0  0  2  0  0  0  0  0  0  0  0  0
    0.7130   -2.7301    5.4571 C   0  0  2  0  0  0  0  0  0  0  0  0
   -0.5519   -2.2894    6.2605 C   0  0  0  0  0  0  0  0  0  0  0  0
    0.5955   -1.8464    4.1624 C   0  0  0  0  0  0  0  0  0  0  0  0
    1.9058   -1.3838    3.5000 C   0  0  0  0  0  0  0  0  0  0  0  0
    2.9409   -0.7875    4.4775 C   0  0  1  0  0  0  0  0  0  0  0  0
    2.6921    0.7155    4.9142 C   0  0  0  0  0  0  0  0  0  0  0  0
    2.9495    1.6390    3.7005 C   0  0  0  0  0  0  0  0  0  0  0  0
    1.2852    1.0600    5.4373 C   0  0  0  0  0  0  0  0  0  0  0  0
    3.6796    1.1109    6.0398 C   0  0  0  0  0  0  0  0  0  0  0  0
    4.2614    2.1808    6.0625 O   0  0  0  0  0  0  0  0  0  0  0  0
    3.8491    0.1045    7.1717 C   0  0  0  0  0  0  0  0  0  0  0  0
    4.2985   -1.2243    6.5787 C   0  0  0  0  0  0  0  0  0  0  0  0
    3.2813   -1.8457    5.5865 C   0  0  2  0  0  0  0  0  0  0  0  0
    4.0678   -3.0174    4.9350 C   0  0  0  0  0  0  0  0  0  0  0  0
    1.9661   -2.3254    6.3149 C   0  0  2  0  0  0  0  0  0  0  0  0
    2.2143   -3.3426    7.4537 C   0  0  0  0  0  0  0  0  0  0  0  0
    2.4090   -2.9638    8.5931 O   0  0  0  0  0  0  0  0  0  0  0  0
    2.2008   -4.8317    7.0632 C   0  0  1  0  0  0  0  0  0  0  0  0
    2.5024   -5.6434    8.1789 O   0  0  0  0  0  0  0  0  0  0  0  0
    0.8724   -5.2611    6.4030 C   0  0  2  0  0  0  0  0  0  0  0  0
   -0.2896   -5.2238    7.4409 C   0  0  0  0  0  0  0  0  0  0  0  0
   -1.4241   -8.6022    4.4342 H   0  0  0  0  0  0  0  0  0  0  0  0
   -1.7498   -8.5516    2.7276 H   0  0  0  0  0  0  0  0  0  0  0  0
   -1.0540   -7.1520    3.4951 H   0  0  0  0  0  0  0  0  0  0  0  0
    0.1451  -10.9248    3.7704 H   0  0  0  0  0  0  0  0  0  0  0  0
    1.1322  -10.6539    2.3443 H   0  0  0  0  0  0  0  0  0  0  0  0
   -0.6197  -10.4897    2.2645 H   0  0  0  0  0  0  0  0  0  0  0  0
    0.4247   -8.7531    1.2712 H   0  0  0  0  0  0  0  0  0  0  0  0
    2.3300   -9.0621    3.9441 H   0  0  0  0  0  0  0  0  0  0  0  0
    0.2407   -9.8187    5.6440 H   0  0  0  0  0  0  0  0  0  0  0  0
    1.9308   -9.7409    6.0705 H   0  0  0  0  0  0  0  0  0  0  0  0
   -0.1557   -8.1129    7.1424 H   0  0  0  0  0  0  0  0  0  0  0  0
    1.5640   -8.0134    7.5023 H   0  0  0  0  0  0  0  0  0  0  0  0
   -0.0961   -6.7505    5.3904 H   0  0  0  0  0  0  0  0  0  0  0  0
    3.4889   -7.5303    6.1672 H   0  0  0  0  0  0  0  0  0  0  0  0
    3.8865   -6.1788    5.1074 H   0  0  0  0  0  0  0  0  0  0  0  0
    3.9709   -7.7820    4.5001 H   0  0  0  0  0  0  0  0  0  0  0  0
    2.2262   -6.2234    2.6840 H   0  0  0  0  0  0  0  0  0  0  0  0
    1.2009   -4.0974    3.0254 H   0  0  0  0  0  0  0  0  0  0  0  0
   -0.4543   -4.4564    4.9199 H   0  0  0  0  0  0  0  0  0  0  0  0
   -0.6879   -1.2038    6.2771 H   0  0  0  0  0  0  0  0  0  0  0  0
   -0.4953   -2.5412    7.3153 H   0  0  0  0  0  0  0  0  0  0  0  0
   -1.4729   -2.7065    5.8509 H   0  0  0  0  0  0  0  0  0  0  0  0
    0.0057   -2.3732    3.4155 H   0  0  0  0  0  0  0  0  0  0  0  0
   -0.0064   -0.9554    4.3248 H   0  0  0  0  0  0  0  0  0  0  0  0
    2.3532   -2.2188    2.9641 H   0  0  0  0  0  0  0  0  0  0  0  0
    1.6624   -0.6703    2.7103 H   0  0  0  0  0  0  0  0  0  0  0  0
    3.8501   -0.7155    3.8808 H   0  0  0  0  0  0  0  0  0  0  0  0
    2.2460    1.4738    2.8858 H   0  0  0  0  0  0  0  0  0  0  0  0
    3.9494    1.4731    3.3064 H   0  0  0  0  0  0  0  0  0  0  0  0
    2.8777    2.6951    3.9652 H   0  0  0  0  0  0  0  0  0  0  0  0
    0.5485    1.0966    4.6357 H   0  0  0  0  0  0  0  0  0  0  0  0
    1.2747    2.0520    5.8959 H   0  0  0  0  0  0  0  0  0  0  0  0
    0.9461    0.3667    6.2033 H   0  0  0  0  0  0  0  0  0  0  0  0
    4.5971    0.4831    7.8658 H   0  0  0  0  0  0  0  0  0  0  0  0
    2.9176    0.0080    7.7232 H   0  0  0  0  0  0  0  0  0  0  0  0
    5.2369   -1.0500    6.0527 H   0  0  0  0  0  0  0  0  0  0  0  0
    4.5539   -1.9142    7.3816 H   0  0  0  0  0  0  0  0  0  0  0  0
    4.5265   -3.6607    5.6870 H   0  0  0  0  0  0  0  0  0  0  0  0
    4.8898   -2.6480    4.3233 H   0  0  0  0  0  0  0  0  0  0  0  0
    3.4606   -3.6422    4.2914 H   0  0  0  0  0  0  0  0  0  0  0  0
    1.6404   -1.4494    6.8712 H   0  0  0  0  0  0  0  0  0  0  0  0
    2.9955   -4.9444    6.3469 H   0  0  0  0  0  0  0  0  0  0  0  0
    2.5659   -6.5444    7.8753 H   0  0  0  0  0  0  0  0  0  0  0  0
   -0.2277   -4.3903    8.1312 H   0  0  0  0  0  0  0  0  0  0  0  0
   -0.2772   -6.0885    8.1005 H   0  0  0  0  0  0  0  0  0  0  0  0
   -1.2703   -5.2034    6.9691 H   0  0  0  0  0  0  0  0  0  0  0  0
  1  2  1  0
  1 35  1  0
  1 36  1  0
  1 37  1  0
  2  3  1  0
  2  4  1  0
  2  5  1  0
  3 38  1  0
  3 39  1  0
  3 40  1  0
  4 41  1  0
  5  9  1  0
  5  6  1  0
  5 42  1  6
  6  7  1  0
  6 43  1  0
  6 44  1  0
  7  8  1  0
  7 45  1  0
  7 46  1  0
  8 33  1  0
  8  9  1  0
  8 47  1  6
  9 10  1  1
  9 11  1  0
 10 48  1  0
 10 49  1  0
 10 50  1  0
 11 12  2  0
 11 51  1  0
 12 13  1  0
 12 52  1  0
 13 33  1  0
 13 14  1  0
 13 53  1  6
 14 28  1  0
 14 15  1  1
 14 16  1  0
 15 54  1  0
 15 55  1  0
 15 56  1  0
 16 17  1  0
 16 57  1  0
 16 58  1  0
 17 18  1  0
 17 59  1  0
 17 60  1  0
 18 26  1  0
 18 19  1  0
 18 61  1  6
 19 20  1  0
 19 21  1  0
 19 22  1  0
 20 62  1  0
 20 63  1  0
 20 64  1  0
 21 65  1  0
 21 66  1  0
 21 67  1  0
 22 23  2  0
 22 24  1  0
 24 25  1  0
 24 68  1  0
 24 69  1  0
 25 26  1  0
 25 70  1  0
 25 71  1  0
 26 27  1  6
 26 28  1  0
 27 72  1  0
 27 73  1  0
 27 74  1  0
 28 29  1  0
 28 75  1  1
 29 30  2  0
 29 31  1  0
 31 32  1  0
 31 33  1  0
 31 76  1  6
 32 77  1  0
 33 34  1  1
 34 78  1  0
 34 79  1  0
 34 80  1  0
M  END
>  <i_m_ct_stereo_status>  (392) 
1

>  <s_m_source_file>  (392) 
/var/tmp/pbs.5076255.sched01/tmpk5ywl0l3/150lwq6_0yz.sdf

>  <i_m_source_file_index>  (392) 
6

>  <i_lp_mmshare_version>  (392) 
48012

>  <i_f3d_flags>  (392) 
0

>  <s_epik_input>  (392) 
W0NIM11DKFtDSDNdKShbT0hdKVtDQEBIXTFbQ0gyXVtDSDJdW0NASF0oW0NAQF0xMltDSDNdKVtDQF0zKFtDSDNdKVtDQEhdKFtDSF09W0NIXTIpW0NAQF00KFtDSDNdKVtDQEBIXShDKD1PKVtDQEhdM1tPSF0pW0NAQF01KFtDSDNdKVtDQEBIXShbQ0gyXVtDSDJdNClDKFtDSDNdKShbQ0gzXSlDKD1PKVtDSDJdW0NIMl01

>  <s_epik_cmdline>  (392) 
J2VwaWtfcHl0aG9uJywgJy1waHQnLCAnMi4wJywgJy1waCcsICc3LjAnLCAnLXRuJywgJzgnLCAnLW1hJywgJzIwMCcsICctaW1hZScsICc8aW5maWxlLm1hZT4nLCAnLW9tYWUnLCAnPG91dGZpbGUubWFlPic=

>  <r_lp_tautomer_probability>  (392) 
1

>  <r_epik_Ionization_Penalty>  (392) 
7.77803e-07

>  <r_epik_Ionization_Penalty_Charging>  (392) 
0

>  <r_epik_Ionization_Penalty_Neutral>  (392) 
7.77803e-07

>  <r_epik_State_Penalty>  (392) 
-0

>  <r_epik_Charging_Adjusted_Penalty>  (392) 
0

>  <i_epik_Tot_Q>  (392) 
0

>  <i_epik_Tot_abs_Q>  (392) 
0

>  <s_lp_Force_Field>  (392) 
OPLS3e

>  <r_lp_Energy>  (392) 
86.3878

>  <b_lp_Chiralities_Consistent>  (392) 
1

>  <s_lp_Variant>  (392) 
94:0-1

>  <s_i_glide_gridfile>  (392) 
pfpi4k_grid

>  <i_i_glide_lignum>  (392) 
6

>  <i_i_glide_rotatable_bonds>  (392) 
3

>  <r_i_docking_score>  (392) 
-2.4262

>  <r_i_glide_ligand_efficiency>  (392) 
-0.0713589

>  <r_i_glide_ligand_efficiency_sa>  (392) 
-0.231175

>  <r_i_glide_ligand_efficiency_ln>  (392) 
-0.536016

>  <r_i_glide_gscore>  (392) 
-2.4262

>  <r_i_glide_lipo>  (392) 
-0.117103

>  <r_i_glide_hbond>  (392) 
-0.32

>  <r_i_glide_metal>  (392) 
-0

>  <r_i_glide_rewards>  (392) 
-0.199883

>  <r_i_glide_evdw>  (392) 
-25.7211

>  <r_i_glide_ecoul>  (392) 
-3.96246

>  <r_i_glide_erotb>  (392) 
0.0912097

>  <r_i_glide_esite>  (392) 
0

>  <r_i_glide_emodel>  (392) 
-33.246

>  <r_i_glide_energy>  (392) 
-29.6836

>  <r_i_glide_einternal>  (392) 
0.6382

>  <r_i_glide_intrahb_reward>  (392) 
-0

>  <i_i_glide_confnum>  (392) 
1

>  <i_i_glide_posenum>  (392) 
30

>  <r_i_glide_eff_state_penalty>  (392) 
0

>  <ligand_id>  (392) 
94

>  <original_smiles>  (392) 
CC(C)(O)C1CCC2C1(C)C=CC1C3(C)CCC4C(C)(C)C(=O)CCC4(C)C3C(=O)C(O)C21C

>  <smiles>  (392) 
[H]OC1([H])C(=O)C2([H])C(C([H])([H])[H])(C([H])([H])C([H])([H])C3([H])C(C([H])([H])[H])(C([H])([H])[H])C(=O)C([H])([H])C([H])([H])C23C([H])([H])[H])C2([H])C([H])=C([H])C3(C([H])([H])[H])C([H])(C(O[H])(C([H])([H])[H])C([H])([H])[H])C([H])([H])C([H])([H])C3([H])C12C([H])([H])[H]

$$$$
96:0:0
     RDKit          3D

 42 45  0  0  1  0  0  0  0  0999 V2000
    1.1313   -7.5982   11.0002 C   0  0  0  0  0  0  0  0  0  0  0  0
    0.8309   -7.2168    9.6637 O   0  0  0  0  0  0  0  0  0  0  0  0
    0.2640   -5.9762    9.4370 C   0  0  0  0  0  0  0  0  0  0  0  0
   -0.0655   -5.0733   10.4755 C   0  0  0  0  0  0  0  0  0  0  0  0
   -0.6621   -3.8456   10.1440 C   0  0  0  0  0  0  0  0  0  0  0  0
   -0.9505   -3.4782    8.8802 N   0  0  0  0  0  0  0  0  0  0  0  0
   -0.6354   -4.3390    7.8913 C   0  0  0  0  0  0  0  0  0  0  0  0
   -0.0326   -5.5971    8.1032 C   0  0  0  0  0  0  0  0  0  0  0  0
    0.2722   -6.4785    6.9618 C   0  0  0  0  0  0  0  0  0  0  0  0
   -0.1514   -6.3156    5.7690 N   0  0  0  0  0  0  0  0  0  0  0  0
    0.2254   -7.2858    4.7496 C   0  0  1  0  0  0  0  0  0  0  0  0
   -0.2472   -8.7259    5.1183 C   0  0  0  0  0  0  0  0  0  0  0  0
    0.1393   -9.7018    3.9954 C   0  0  2  0  0  0  0  0  0  0  0  0
    1.6691   -9.6843    3.8048 C   0  0  0  0  0  0  0  0  0  0  0  0
    2.1210   -8.2703    3.3870 C   0  0  1  0  0  0  0  0  0  0  0  0
    1.4176   -7.8622    2.0791 C   0  0  0  0  0  0  0  0  0  0  0  0
   -0.1101   -7.8697    2.2996 C   0  0  1  0  0  0  0  0  0  0  0  0
   -0.5750   -9.2862    2.7003 C   0  0  0  0  0  0  0  0  0  0  0  0
   -0.4743   -6.8735    3.4281 C   0  0  0  0  0  0  0  0  0  0  0  0
    1.7627   -7.2709    4.5037 C   0  0  0  0  0  0  0  0  0  0  0  0
    1.5887   -8.5893   11.0054 H   0  0  0  0  0  0  0  0  0  0  0  0
    0.2280   -7.6500   11.6097 H   0  0  0  0  0  0  0  0  0  0  0  0
    1.8393   -6.9082   11.4614 H   0  0  0  0  0  0  0  0  0  0  0  0
    0.1252   -5.2925   11.5151 H   0  0  0  0  0  0  0  0  0  0  0  0
   -0.9224   -3.1349   10.9113 H   0  0  0  0  0  0  0  0  0  0  0  0
   -0.8787   -4.0080    6.8918 H   0  0  0  0  0  0  0  0  0  0  0  0
    0.9085   -7.3316    7.2040 H   0  0  0  0  0  0  0  0  0  0  0  0
    0.2006   -9.0924    6.0444 H   0  0  0  0  0  0  0  0  0  0  0  0
   -1.3278   -8.7434    5.2718 H   0  0  0  0  0  0  0  0  0  0  0  0
   -0.1766  -10.7062    4.2698 H   0  0  0  0  0  0  0  0  0  0  0  0
    2.1613   -9.9764    4.7319 H   0  0  0  0  0  0  0  0  0  0  0  0
    1.9651  -10.4162    3.0562 H   0  0  0  0  0  0  0  0  0  0  0  0
    3.2000   -8.2623    3.2383 H   0  0  0  0  0  0  0  0  0  0  0  0
    1.7517   -6.8731    1.7639 H   0  0  0  0  0  0  0  0  0  0  0  0
    1.6849   -8.5535    1.2801 H   0  0  0  0  0  0  0  0  0  0  0  0
   -0.6058   -7.5807    1.3723 H   0  0  0  0  0  0  0  0  0  0  0  0
   -0.3573  -10.0092    1.9178 H   0  0  0  0  0  0  0  0  0  0  0  0
   -1.6563   -9.3033    2.8462 H   0  0  0  0  0  0  0  0  0  0  0  0
   -1.5570   -6.8472    3.5644 H   0  0  0  0  0  0  0  0  0  0  0  0
   -0.1687   -5.8652    3.1483 H   0  0  0  0  0  0  0  0  0  0  0  0
    2.0945   -6.2662    4.2342 H   0  0  0  0  0  0  0  0  0  0  0  0
    2.3188   -7.5444    5.4029 H   0  0  0  0  0  0  0  0  0  0  0  0
  1  2  1  0
  1 21  1  0
  1 22  1  0
  1 23  1  0
  2  3  1  0
  3  8  2  0
  3  4  1  0
  4  5  2  0
  4 24  1  0
  5  6  1  0
  5 25  1  0
  6  7  2  0
  7  8  1  0
  7 26  1  0
  8  9  1  0
  9 10  2  3
  9 27  1  0
 11 10  1  1
 11 19  1  0
 11 20  1  0
 11 12  1  0
 12 13  1  0
 12 28  1  0
 12 29  1  0
 13 18  1  0
 13 14  1  0
 13 30  1  1
 14 15  1  0
 14 31  1  0
 14 32  1  0
 15 16  1  0
 15 20  1  0
 15 33  1  6
 16 17  1  0
 16 34  1  0
 16 35  1  0
 17 18  1  0
 17 19  1  0
 17 36  1  6
 18 37  1  0
 18 38  1  0
 19 39  1  0
 19 40  1  0
 20 41  1  0
 20 42  1  0
M  END
>  <i_m_ct_stereo_status>  (393) 
1

>  <s_m_source_file>  (393) 
/var/tmp/pbs.5076255.sched01/tmpk5ywl0l3/150lwq6_0yz.sdf

>  <i_m_source_file_index>  (393) 
8

>  <i_lp_mmshare_version>  (393) 
48012

>  <i_f3d_flags>  (393) 
0

>  <s_epik_input>  (393) 
W0NIM11PYzFbY0hdW2NIXW5bY0hdYzEvW0NIXT1OL0MyM1tDSDJdW0NAQEhdNFtDSDJdW0NASF0oW0NIMl0zKVtDSDJdW0NAQEhdKFtDSDJdNClbQ0gyXTI=

>  <s_epik_cmdline>  (393) 
J2VwaWtfcHl0aG9uJywgJy1waHQnLCAnMi4wJywgJy1waCcsICc3LjAnLCAnLXRuJywgJzgnLCAnLW1hJywgJzIwMCcsICctaW1hZScsICc8aW5maWxlLm1hZT4nLCAnLW9tYWUnLCAnPG91dGZpbGUubWFlPic=

>  <r_epik_Ionization_Penalty>  (393) 
0.0172832

>  <r_epik_Ionization_Penalty_Charging>  (393) 
0

>  <r_epik_Ionization_Penalty_Neutral>  (393) 
0.0172832

>  <r_epik_State_Penalty>  (393) 
0.0136899

>  <r_epik_Charging_Adjusted_Penalty>  (393) 
0.0136899

>  <i_epik_Tot_Q>  (393) 
0

>  <i_epik_Tot_abs_Q>  (393) 
0

>  <s_epik_Chemistry_Notes>  (393) 
This compound has an imine and may undergo hydrolysis.

>  <s_lp_Force_Field>  (393) 
OPLS3e

>  <r_lp_Energy>  (393) 
22.0212

>  <b_lp_Chiralities_Consistent>  (393) 
1

>  <s_lp_Variant>  (393) 
96:0-1

>  <s_i_glide_gridfile>  (393) 
pfpi4k_grid

>  <i_i_glide_lignum>  (393) 
8

>  <i_i_glide_rotatable_bonds>  (393) 
3

>  <r_i_docking_score>  (393) 
-2.49713

>  <r_i_glide_ligand_efficiency>  (393) 
-0.124857

>  <r_i_glide_ligand_efficiency_sa>  (393) 
-0.338913

>  <r_i_glide_ligand_efficiency_ln>  (393) 
-0.62495

>  <r_i_glide_gscore>  (393) 
-2.49713

>  <r_i_glide_lipo>  (393) 
-0.0169408

>  <r_i_glide_hbond>  (393) 
-0.1369

>  <r_i_glide_metal>  (393) 
-0

>  <r_i_glide_rewards>  (393) 
-1.56566

>  <r_i_glide_evdw>  (393) 
-15.2736

>  <r_i_glide_ecoul>  (393) 
-3.30961

>  <r_i_glide_erotb>  (393) 
0.489332

>  <r_i_glide_esite>  (393) 
-0.00683841

>  <r_i_glide_emodel>  (393) 
-21.9868

>  <r_i_glide_energy>  (393) 
-18.5832

>  <r_i_glide_einternal>  (393) 
0.242921

>  <r_i_glide_intrahb_reward>  (393) 
-0

>  <i_i_glide_confnum>  (393) 
2

>  <i_i_glide_posenum>  (393) 
9

>  <r_i_glide_eff_state_penalty>  (393) 
0

>  <ligand_id>  (393) 
96

>  <original_smiles>  (393) 
COc1ccncc1C=NC12CC3CC(CC(C3)C1)C2

>  <smiles>  (393) 
[H]C(=NC12C([H])([H])C3([H])C([H])([H])C([H])(C([H])([H])C([H])(C3([H])[H])C1([H])[H])C2([H])[H])c1c([H])nc([H])c([H])c1OC([H])([H])[H]

$$$$
96:0:1
     RDKit          3D

 42 45  0  0  1  0  0  0  0  0999 V2000
    7.2747   -5.6794    1.0891 C   0  0  0  0  0  0  0  0  0  0  0  0
    5.8579   -5.7823    1.1528 O   0  0  0  0  0  0  0  0  0  0  0  0
    5.0883   -4.9251    0.3865 C   0  0  0  0  0  0  0  0  0  0  0  0
    5.6414   -3.9557   -0.4826 C   0  0  0  0  0  0  0  0  0  0  0  0
    4.7731   -3.1436   -1.2320 C   0  0  0  0  0  0  0  0  0  0  0  0
    3.4340   -3.2267   -1.1566 N   0  0  0  0  0  0  0  0  0  0  0  0
    2.9081   -4.1462   -0.3244 C   0  0  0  0  0  0  0  0  0  0  0  0
    3.6737   -5.0235    0.4690 C   0  0  0  0  0  0  0  0  0  0  0  0
    3.0075   -6.0147    1.3348 C   0  0  0  0  0  0  0  0  0  0  0  0
    1.7584   -6.2877    1.3349 N   0  0  0  0  0  0  0  0  0  0  0  0
    1.2693   -7.2992    2.2630 C   0  0  1  0  0  0  0  0  0  0  0  0
    1.9550   -8.6844    2.0365 C   0  0  0  0  0  0  0  0  0  0  0  0
    1.3645   -9.7179    3.0106 C   0  0  2  0  0  0  0  0  0  0  0  0
   -0.1440   -9.8763    2.7469 C   0  0  0  0  0  0  0  0  0  0  0  0
   -0.8404   -8.5198    2.9721 C   0  0  1  0  0  0  0  0  0  0  0  0
   -0.6290   -8.0624    4.4310 C   0  0  0  0  0  0  0  0  0  0  0  0
    0.8800   -7.9004    4.6936 C   0  0  1  0  0  0  0  0  0  0  0  0
    1.5999   -9.2463    4.4616 C   0  0  0  0  0  0  0  0  0  0  0  0
    1.4600   -6.8389    3.7409 C   0  0  0  0  0  0  0  0  0  0  0  0
   -0.2509   -7.4690    2.0039 C   0  0  0  0  0  0  0  0  0  0  0  0
    7.7324   -6.4109    1.7555 H   0  0  0  0  0  0  0  0  0  0  0  0
    7.6142   -4.6914    1.4010 H   0  0  0  0  0  0  0  0  0  0  0  0
    7.6420   -5.8841    0.0847 H   0  0  0  0  0  0  0  0  0  0  0  0
    6.7047   -3.8261   -0.6023 H   0  0  0  0  0  0  0  0  0  0  0  0
    5.1569   -2.4037   -1.9158 H   0  0  0  0  0  0  0  0  0  0  0  0
    1.8279   -4.1945   -0.3156 H   0  0  0  0  0  0  0  0  0  0  0  0
    3.6788   -6.5330    2.0214 H   0  0  0  0  0  0  0  0  0  0  0  0
    1.8182   -9.0170    1.0057 H   0  0  0  0  0  0  0  0  0  0  0  0
    3.0337   -8.6494    2.2039 H   0  0  0  0  0  0  0  0  0  0  0  0
    1.8600  -10.6737    2.8539 H   0  0  0  0  0  0  0  0  0  0  0  0
   -0.3212  -10.2238    1.7304 H   0  0  0  0  0  0  0  0  0  0  0  0
   -0.5612  -10.6337    3.4068 H   0  0  0  0  0  0  0  0  0  0  0  0
   -1.9088   -8.6299    2.7812 H   0  0  0  0  0  0  0  0  0  0  0  0
   -1.1501   -7.1230    4.6171 H   0  0  0  0  0  0  0  0  0  0  0  0
   -1.0482   -8.7971    5.1178 H   0  0  0  0  0  0  0  0  0  0  0  0
    1.0362   -7.5822    5.7226 H   0  0  0  0  0  0  0  0  0  0  0  0
    1.2347   -9.9915    5.1647 H   0  0  0  0  0  0  0  0  0  0  0  0
    2.6675   -9.1370    4.6503 H   0  0  0  0  0  0  0  0  0  0  0  0
    2.5137   -6.6934    3.9905 H   0  0  0  0  0  0  0  0  0  0  0  0
    0.9755   -5.8748    3.9058 H   0  0  0  0  0  0  0  0  0  0  0  0
   -0.7670   -6.5204    2.1408 H   0  0  0  0  0  0  0  0  0  0  0  0
   -0.4333   -7.7733    0.9705 H   0  0  0  0  0  0  0  0  0  0  0  0
  1  2  1  0
  1 21  1  0
  1 22  1  0
  1 23  1  0
  2  3  1  0
  3  8  2  0
  3  4  1  0
  4  5  2  0
  4 24  1  0
  5  6  1  0
  5 25  1  0
  6  7  2  0
  7  8  1  0
  7 26  1  0
  8  9  1  0
  9 10  2  3
  9 27  1  0
 11 10  1  6
 11 19  1  0
 11 20  1  0
 11 12  1  0
 12 13  1  0
 12 28  1  0
 12 29  1  0
 13 18  1  0
 13 14  1  0
 13 30  1  1
 14 15  1  0
 14 31  1  0
 14 32  1  0
 15 16  1  0
 15 20  1  0
 15 33  1  6
 16 17  1  0
 16 34  1  0
 16 35  1  0
 17 18  1  0
 17 19  1  0
 17 36  1  1
 18 37  1  0
 18 38  1  0
 19 39  1  0
 19 40  1  0
 20 41  1  0
 20 42  1  0
M  END
>  <i_m_ct_stereo_status>  (394) 
1

>  <s_m_source_file>  (394) 
/var/tmp/pbs.5076255.sched01/tmpk5ywl0l3/150lwq6_0yz.sdf

>  <i_m_source_file_index>  (394) 
8

>  <i_lp_mmshare_version>  (394) 
48012

>  <i_f3d_flags>  (394) 
0

>  <s_epik_input>  (394) 
W0NIM11PYzFbY0hdW2NIXW5bY0hdYzEvW0NIXT1OL0MyM1tDSDJdW0NAQEhdNFtDSDJdW0NASF0oW0NIMl0zKVtDSDJdW0NAQEhdKFtDSDJdNClbQ0gyXTI=

>  <s_epik_cmdline>  (394) 
J2VwaWtfcHl0aG9uJywgJy1waHQnLCAnMi4wJywgJy1waCcsICc3LjAnLCAnLXRuJywgJzgnLCAnLW1hJywgJzIwMCcsICctaW1hZScsICc8aW5maWxlLm1hZT4nLCAnLW9tYWUnLCAnPG91dGZpbGUubWFlPic=

>  <r_epik_Ionization_Penalty>  (394) 
0.0172832

>  <r_epik_Ionization_Penalty_Charging>  (394) 
0

>  <r_epik_Ionization_Penalty_Neutral>  (394) 
0.0172832

>  <r_epik_State_Penalty>  (394) 
0.0136899

>  <r_epik_Charging_Adjusted_Penalty>  (394) 
0.0136899

>  <i_epik_Tot_Q>  (394) 
0

>  <i_epik_Tot_abs_Q>  (394) 
0

>  <s_epik_Chemistry_Notes>  (394) 
This compound has an imine and may undergo hydrolysis.

>  <s_lp_Force_Field>  (394) 
OPLS3e

>  <r_lp_Energy>  (394) 
22.0212

>  <b_lp_Chiralities_Consistent>  (394) 
1

>  <s_lp_Variant>  (394) 
96:0-1

>  <s_i_glide_gridfile>  (394) 
pfpi4k_grid

>  <i_i_glide_lignum>  (394) 
8

>  <i_i_glide_rotatable_bonds>  (394) 
3

>  <r_i_docking_score>  (394) 
-2.48616

>  <r_i_glide_ligand_efficiency>  (394) 
-0.124308

>  <r_i_glide_ligand_efficiency_sa>  (394) 
-0.337424

>  <r_i_glide_ligand_efficiency_ln>  (394) 
-0.622205

>  <r_i_glide_gscore>  (394) 
-2.48616

>  <r_i_glide_lipo>  (394) 
-0.285047

>  <r_i_glide_hbond>  (394) 
0

>  <r_i_glide_metal>  (394) 
-0

>  <r_i_glide_rewards>  (394) 
-1.58918

>  <r_i_glide_evdw>  (394) 
-21.6739

>  <r_i_glide_ecoul>  (394) 
-0.117154

>  <r_i_glide_erotb>  (394) 
0.489332

>  <r_i_glide_esite>  (394) 
0

>  <r_i_glide_emodel>  (394) 
-25.1932

>  <r_i_glide_energy>  (394) 
-21.7911

>  <r_i_glide_einternal>  (394) 
0.214886

>  <r_i_glide_intrahb_reward>  (394) 
-0

>  <i_i_glide_confnum>  (394) 
6

>  <i_i_glide_posenum>  (394) 
4

>  <r_i_glide_eff_state_penalty>  (394) 
0

>  <ligand_id>  (394) 
96

>  <original_smiles>  (394) 
COc1ccncc1C=NC12CC3CC(CC(C3)C1)C2

>  <smiles>  (394) 
[H]C(=NC12C([H])([H])C3([H])C([H])([H])C([H])(C([H])([H])C([H])(C3([H])[H])C1([H])[H])C2([H])[H])c1c([H])nc([H])c([H])c1OC([H])([H])[H]

$$$$
96:0:2
     RDKit          3D

 42 45  0  0  1  0  0  0  0  0999 V2000
   -3.1610    3.2756    2.5148 C   0  0  0  0  0  0  0  0  0  0  0  0
   -2.6001    2.7549    3.7116 O   0  0  0  0  0  0  0  0  0  0  0  0
   -1.4058    2.0672    3.6241 C   0  0  0  0  0  0  0  0  0  0  0  0
   -0.9815    1.3805    2.4624 C   0  0  0  0  0  0  0  0  0  0  0  0
    0.2539    0.7034    2.4856 C   0  0  0  0  0  0  0  0  0  0  0  0
    1.0436    0.6426    3.5741 N   0  0  0  0  0  0  0  0  0  0  0  0
    0.6316    1.2799    4.6842 C   0  0  0  0  0  0  0  0  0  0  0  0
   -0.5836    1.9923    4.7729 C   0  0  0  0  0  0  0  0  0  0  0  0
   -0.9640    2.6647    6.0196 C   0  0  0  0  0  0  0  0  0  0  0  0
   -0.6696    2.2606    7.1913 N   0  0  0  0  0  0  0  0  0  0  0  0
   -1.1180    3.0343    8.3398 C   0  0  1  0  0  0  0  0  0  0  0  0
   -0.4226    4.4272    8.3849 C   0  0  0  0  0  0  0  0  0  0  0  0
   -0.8823    5.1972    9.6362 C   0  0  2  0  0  0  0  0  0  0  0  0
   -0.4766    4.4095   10.8972 C   0  0  0  0  0  0  0  0  0  0  0  0
   -1.1721    3.0334   10.8784 C   0  0  1  0  0  0  0  0  0  0  0  0
   -2.7030    3.2224   10.8549 C   0  0  0  0  0  0  0  0  0  0  0  0
   -3.0989    3.9961    9.5875 C   0  0  1  0  0  0  0  0  0  0  0  0
   -2.4142    5.3788    9.5883 C   0  0  0  0  0  0  0  0  0  0  0  0
   -2.6665    3.2068    8.3458 C   0  0  0  0  0  0  0  0  0  0  0  0
   -0.7212    2.2524    9.6222 C   0  0  0  0  0  0  0  0  0  0  0  0
   -4.1045    3.7743    2.7501 H   0  0  0  0  0  0  0  0  0  0  0  0
   -3.3860    2.5141    1.7708 H   0  0  0  0  0  0  0  0  0  0  0  0
   -2.4840    4.0117    2.0824 H   0  0  0  0  0  0  0  0  0  0  0  0
   -1.5675    1.3490    1.5589 H   0  0  0  0  0  0  0  0  0  0  0  0
    0.5996    0.1686    1.6172 H   0  0  0  0  0  0  0  0  0  0  0  0
    1.2980    1.2332    5.5345 H   0  0  0  0  0  0  0  0  0  0  0  0
   -1.5505    3.5756    5.8751 H   0  0  0  0  0  0  0  0  0  0  0  0
    0.6636    4.3103    8.3934 H   0  0  0  0  0  0  0  0  0  0  0  0
   -0.6593    5.0241    7.5024 H   0  0  0  0  0  0  0  0  0  0  0  0
   -0.4005    6.1745    9.6533 H   0  0  0  0  0  0  0  0  0  0  0  0
    0.6062    4.2775   10.9283 H   0  0  0  0  0  0  0  0  0  0  0  0
   -0.7482    4.9596   11.7974 H   0  0  0  0  0  0  0  0  0  0  0  0
   -0.8991    2.4732   11.7736 H   0  0  0  0  0  0  0  0  0  0  0  0
   -3.1975    2.2504   10.8791 H   0  0  0  0  0  0  0  0  0  0  0  0
   -3.0346    3.7564   11.7453 H   0  0  0  0  0  0  0  0  0  0  0  0
   -4.1791    4.1137    9.5485 H   0  0  0  0  0  0  0  0  0  0  0  0
   -2.7492    5.9660   10.4411 H   0  0  0  0  0  0  0  0  0  0  0  0
   -2.6973    5.9370    8.6961 H   0  0  0  0  0  0  0  0  0  0  0  0
   -3.0260    3.7505    7.4713 H   0  0  0  0  0  0  0  0  0  0  0  0
   -3.1547    2.2316    8.3250 H   0  0  0  0  0  0  0  0  0  0  0  0
   -1.1789    1.2634    9.6248 H   0  0  0  0  0  0  0  0  0  0  0  0
    0.3579    2.0871    9.6573 H   0  0  0  0  0  0  0  0  0  0  0  0
  1  2  1  0
  1 21  1  0
  1 22  1  0
  1 23  1  0
  2  3  1  0
  3  8  2  0
  3  4  1  0
  4  5  2  0
  4 24  1  0
  5  6  1  0
  5 25  1  0
  6  7  2  0
  7  8  1  0
  7 26  1  0
  8  9  1  0
  9 10  2  3
  9 27  1  0
 11 10  1  6
 11 19  1  0
 11 20  1  0
 11 12  1  0
 12 13  1  0
 12 28  1  0
 12 29  1  0
 13 18  1  0
 13 14  1  0
 13 30  1  1
 14 15  1  0
 14 31  1  0
 14 32  1  0
 15 16  1  0
 15 20  1  0
 15 33  1  1
 16 17  1  0
 16 34  1  0
 16 35  1  0
 17 18  1  0
 17 19  1  0
 17 36  1  6
 18 37  1  0
 18 38  1  0
 19 39  1  0
 19 40  1  0
 20 41  1  0
 20 42  1  0
M  END
>  <i_m_ct_stereo_status>  (395) 
1

>  <s_m_source_file>  (395) 
/var/tmp/pbs.5076255.sched01/tmpk5ywl0l3/150lwq6_0yz.sdf

>  <i_m_source_file_index>  (395) 
8

>  <i_lp_mmshare_version>  (395) 
48012

>  <i_f3d_flags>  (395) 
0

>  <s_epik_input>  (395) 
W0NIM11PYzFbY0hdW2NIXW5bY0hdYzEvW0NIXT1OL0MyM1tDSDJdW0NAQEhdNFtDSDJdW0NASF0oW0NIMl0zKVtDSDJdW0NAQEhdKFtDSDJdNClbQ0gyXTI=

>  <s_epik_cmdline>  (395) 
J2VwaWtfcHl0aG9uJywgJy1waHQnLCAnMi4wJywgJy1waCcsICc3LjAnLCAnLXRuJywgJzgnLCAnLW1hJywgJzIwMCcsICctaW1hZScsICc8aW5maWxlLm1hZT4nLCAnLW9tYWUnLCAnPG91dGZpbGUubWFlPic=

>  <r_epik_Ionization_Penalty>  (395) 
0.0172832

>  <r_epik_Ionization_Penalty_Charging>  (395) 
0

>  <r_epik_Ionization_Penalty_Neutral>  (395) 
0.0172832

>  <r_epik_State_Penalty>  (395) 
0.0136899

>  <r_epik_Charging_Adjusted_Penalty>  (395) 
0.0136899

>  <i_epik_Tot_Q>  (395) 
0

>  <i_epik_Tot_abs_Q>  (395) 
0

>  <s_epik_Chemistry_Notes>  (395) 
This compound has an imine and may undergo hydrolysis.

>  <s_lp_Force_Field>  (395) 
OPLS3e

>  <r_lp_Energy>  (395) 
22.0212

>  <b_lp_Chiralities_Consistent>  (395) 
1

>  <s_lp_Variant>  (395) 
96:0-1

>  <s_i_glide_gridfile>  (395) 
pfpi4k_grid

>  <i_i_glide_lignum>  (395) 
8

>  <i_i_glide_rotatable_bonds>  (395) 
3

>  <r_i_docking_score>  (395) 
-2.25616

>  <r_i_glide_ligand_efficiency>  (395) 
-0.112808

>  <r_i_glide_ligand_efficiency_sa>  (395) 
-0.306208

>  <r_i_glide_ligand_efficiency_ln>  (395) 
-0.564643

>  <r_i_glide_gscore>  (395) 
-2.25616

>  <r_i_glide_lipo>  (395) 
-0.0855427

>  <r_i_glide_hbond>  (395) 
0

>  <r_i_glide_metal>  (395) 
-0

>  <r_i_glide_rewards>  (395) 
-1.56566

>  <r_i_glide_evdw>  (395) 
-20.2684

>  <r_i_glide_ecoul>  (395) 
-0.539052

>  <r_i_glide_erotb>  (395) 
0.489332

>  <r_i_glide_esite>  (395) 
-9.35348e-06

>  <r_i_glide_emodel>  (395) 
-22.2005

>  <r_i_glide_energy>  (395) 
-20.8075

>  <r_i_glide_einternal>  (395) 
3.08023

>  <r_i_glide_intrahb_reward>  (395) 
-0

>  <i_i_glide_confnum>  (395) 
5

>  <i_i_glide_posenum>  (395) 
1

>  <r_i_glide_eff_state_penalty>  (395) 
0

>  <ligand_id>  (395) 
96

>  <original_smiles>  (395) 
COc1ccncc1C=NC12CC3CC(CC(C3)C1)C2

>  <smiles>  (395) 
[H]C(=NC12C([H])([H])C3([H])C([H])([H])C([H])(C([H])([H])C([H])(C3([H])[H])C1([H])[H])C2([H])[H])c1c([H])nc([H])c([H])c1OC([H])([H])[H]

$$$$
96:1:0
     RDKit          3D

 42 45  0  0  1  0  0  0  0  0999 V2000
    0.3898   -0.0934    2.6269 C   0  0  0  0  0  0  0  0  0  0  0  0
   -0.3817    0.1874    3.7844 O   0  0  0  0  0  0  0  0  0  0  0  0
   -0.9736    1.4418    3.8773 C   0  0  0  0  0  0  0  0  0  0  0  0
   -1.1252    2.2731    2.7432 C   0  0  0  0  0  0  0  0  0  0  0  0
   -1.7360    3.5289    2.8909 C   0  0  0  0  0  0  0  0  0  0  0  0
   -2.1661    3.9906    4.0740 N   0  0  0  0  0  0  0  0  0  0  0  0
   -1.9919    3.2103    5.1594 C   0  0  0  0  0  0  0  0  0  0  0  0
   -1.4288    1.8943    5.1478 C   0  0  0  0  0  0  0  0  0  0  0  0
   -1.3041    0.9412    6.3082 C   0  0  0  0  0  0  0  0  0  0  0  0
   -1.2062    1.0314    7.5889 N   0  0  0  0  0  0  0  0  0  0  0  0
   -1.1443    2.2304    8.4252 C   0  0  2  0  0  0  0  0  0  0  0  0
   -0.0601    3.2527    7.9412 C   0  0  0  0  0  0  0  0  0  0  0  0
   -0.0414    4.4776    8.8734 C   0  0  1  0  0  0  0  0  0  0  0  0
   -1.4476    5.1121    8.9070 C   0  0  0  0  0  0  0  0  0  0  0  0
   -2.4731    4.1070    9.4835 C   0  0  2  0  0  0  0  0  0  0  0  0
   -2.0546    3.6839   10.8960 C   0  0  0  0  0  0  0  0  0  0  0  0
   -0.6569    3.0304   10.8199 C   0  0  2  0  0  0  0  0  0  0  0  0
    0.3661    4.0540   10.2969 C   0  0  0  0  0  0  0  0  0  0  0  0
   -0.6864    1.8034    9.8639 C   0  0  0  0  0  0  0  0  0  0  0  0
   -2.5743    2.8434    8.6135 C   0  0  0  0  0  0  0  0  0  0  0  0
    0.7757   -1.1134    2.6959 H   0  0  0  0  0  0  0  0  0  0  0  0
    1.2372    0.5930    2.5575 H   0  0  0  0  0  0  0  0  0  0  0  0
   -0.1876   -0.0333    1.7014 H   0  0  0  0  0  0  0  0  0  0  0  0
   -0.7917    2.0084    1.7483 H   0  0  0  0  0  0  0  0  0  0  0  0
   -1.8641    4.2140    2.0715 H   0  0  0  0  0  0  0  0  0  0  0  0
   -2.3524    3.7445    6.0341 H   0  0  0  0  0  0  0  0  0  0  0  0
   -1.2644   -0.1006    5.9697 H   0  0  0  0  0  0  0  0  0  0  0  0
    0.9332    2.7951    7.9137 H   0  0  0  0  0  0  0  0  0  0  0  0
   -0.2204    3.6363    6.9411 H   0  0  0  0  0  0  0  0  0  0  0  0
    0.6800    5.2055    8.4967 H   0  0  0  0  0  0  0  0  0  0  0  0
   -1.4381    6.0259    9.5063 H   0  0  0  0  0  0  0  0  0  0  0  0
   -1.7368    5.4074    7.8999 H   0  0  0  0  0  0  0  0  0  0  0  0
   -3.4527    4.5723    9.5174 H   0  0  0  0  0  0  0  0  0  0  0  0
   -2.0550    4.5325   11.5833 H   0  0  0  0  0  0  0  0  0  0  0  0
   -2.7819    2.9668   11.2802 H   0  0  0  0  0  0  0  0  0  0  0  0
   -0.3738    2.7095   11.8263 H   0  0  0  0  0  0  0  0  0  0  0  0
    1.3635    3.6147   10.2869 H   0  0  0  0  0  0  0  0  0  0  0  0
    0.4054    4.9202   10.9594 H   0  0  0  0  0  0  0  0  0  0  0  0
   -1.3737    1.0725   10.2886 H   0  0  0  0  0  0  0  0  0  0  0  0
    0.2961    1.3205    9.8571 H   0  0  0  0  0  0  0  0  0  0  0  0
   -3.1185    3.1064    7.7019 H   0  0  0  0  0  0  0  0  0  0  0  0
   -3.2199    2.1200    9.1256 H   0  0  0  0  0  0  0  0  0  0  0  0
  1  2  1  0
  1 21  1  0
  1 22  1  0
  1 23  1  0
  2  3  1  0
  3  8  2  0
  3  4  1  0
  4  5  2  0
  4 24  1  0
  5  6  1  0
  5 25  1  0
  6  7  2  0
  7  8  1  0
  7 26  1  0
  8  9  1  0
  9 10  2  3
  9 27  1  0
 11 10  1  6
 11 19  1  0
 11 20  1  0
 11 12  1  0
 12 13  1  0
 12 28  1  0
 12 29  1  0
 13 18  1  0
 13 14  1  0
 13 30  1  6
 14 15  1  0
 14 31  1  0
 14 32  1  0
 15 16  1  0
 15 20  1  0
 15 33  1  1
 16 17  1  0
 16 34  1  0
 16 35  1  0
 17 18  1  0
 17 19  1  0
 17 36  1  1
 18 37  1  0
 18 38  1  0
 19 39  1  0
 19 40  1  0
 20 41  1  0
 20 42  1  0
M  END
>  <i_m_ct_stereo_status>  (396) 
1

>  <s_m_source_file>  (396) 
/var/tmp/pbs.5076255.sched01/tmpk5ywl0l3/150lwq6_0yz.sdf

>  <i_m_source_file_index>  (396) 
9

>  <i_lp_mmshare_version>  (396) 
48012

>  <i_f3d_flags>  (396) 
0

>  <s_epik_input>  (396) 
W0NIM11PYzFbY0hdW2NIXW5bY0hdYzEvW0NIXT1OL0MyM1tDSDJdW0NAQEhdNFtDSDJdW0NASF0oW0NIMl0zKVtDSDJdW0NAQEhdKFtDSDJdNClbQ0gyXTI=

>  <s_epik_cmdline>  (396) 
J2VwaWtfcHl0aG9uJywgJy1waHQnLCAnMi4wJywgJy1waCcsICc3LjAnLCAnLXRuJywgJzgnLCAnLW1hJywgJzIwMCcsICctaW1hZScsICc8aW5maWxlLm1hZT4nLCAnLW9tYWUnLCAnPG91dGZpbGUubWFlPic=

>  <r_epik_Ionization_Penalty>  (396) 
0.0172832

>  <r_epik_Ionization_Penalty_Charging>  (396) 
0

>  <r_epik_Ionization_Penalty_Neutral>  (396) 
0.0172832

>  <r_epik_State_Penalty>  (396) 
0.0136899

>  <r_epik_Charging_Adjusted_Penalty>  (396) 
0.0136899

>  <i_epik_Tot_Q>  (396) 
0

>  <i_epik_Tot_abs_Q>  (396) 
0

>  <s_epik_Chemistry_Notes>  (396) 
This compound has an imine and may undergo hydrolysis.

>  <s_lp_Force_Field>  (396) 
OPLS3e

>  <r_lp_Energy>  (396) 
39.6491

>  <b_lp_Chiralities_Consistent>  (396) 
1

>  <s_lp_Variant>  (396) 
96:0-2

>  <s_i_glide_gridfile>  (396) 
pfpi4k_grid

>  <i_i_glide_lignum>  (396) 
9

>  <i_i_glide_rotatable_bonds>  (396) 
3

>  <r_i_docking_score>  (396) 
-2.75028

>  <r_i_glide_ligand_efficiency>  (396) 
-0.137514

>  <r_i_glide_ligand_efficiency_sa>  (396) 
-0.37327

>  <r_i_glide_ligand_efficiency_ln>  (396) 
-0.688303

>  <r_i_glide_gscore>  (396) 
-2.75028

>  <r_i_glide_lipo>  (396) 
-0.0136305

>  <r_i_glide_hbond>  (396) 
-0.113937

>  <r_i_glide_metal>  (396) 
-0

>  <r_i_glide_rewards>  (396) 
-1.56566

>  <r_i_glide_evdw>  (396) 
-15.7867

>  <r_i_glide_ecoul>  (396) 
-4.73047

>  <r_i_glide_erotb>  (396) 
0.489332

>  <r_i_glide_esite>  (396) 
-0.0474733

>  <r_i_glide_emodel>  (396) 
-23.3967

>  <r_i_glide_energy>  (396) 
-20.5171

>  <r_i_glide_einternal>  (396) 
1.85862

>  <r_i_glide_intrahb_reward>  (396) 
-0

>  <i_i_glide_confnum>  (396) 
1

>  <i_i_glide_posenum>  (396) 
19

>  <r_i_glide_eff_state_penalty>  (396) 
0

>  <ligand_id>  (396) 
96

>  <original_smiles>  (396) 
COc1ccncc1C=NC12CC3CC(CC(C3)C1)C2

>  <smiles>  (396) 
[H]C(=NC12C([H])([H])C3([H])C([H])([H])C([H])(C([H])([H])C([H])(C3([H])[H])C1([H])[H])C2([H])[H])c1c([H])nc([H])c([H])c1OC([H])([H])[H]

$$$$
96:1:1
     RDKit          3D

 42 45  0  0  1  0  0  0  0  0999 V2000
    2.6155    3.3694    2.5516 C   0  0  0  0  0  0  0  0  0  0  0  0
    1.6991    3.2406    3.6337 O   0  0  0  0  0  0  0  0  0  0  0  0
    1.2108    4.3721    4.2398 C   0  0  0  0  0  0  0  0  0  0  0  0
    1.5764    5.6817    3.7759 C   0  0  0  0  0  0  0  0  0  0  0  0
    1.0535    6.8060    4.4597 C   0  0  0  0  0  0  0  0  0  0  0  0
    0.1554    6.6981    5.4347 N   0  0  0  0  0  0  0  0  0  0  0  0
   -0.2221    5.4656    5.8363 C   0  0  0  0  0  0  0  0  0  0  0  0
    0.3073    4.2453    5.3302 C   0  0  0  0  0  0  0  0  0  0  0  0
   -0.0063    2.8449    5.8175 C   0  0  0  0  0  0  0  0  0  0  0  0
   -0.5070    2.2935    6.8687 N   0  0  0  0  0  0  0  0  0  0  0  0
   -1.0210    2.9182    8.0790 C   0  0  2  0  0  0  0  0  0  0  0  0
   -1.1418    1.8006    9.1806 C   0  0  0  0  0  0  0  0  0  0  0  0
   -1.7140    2.4086   10.4883 C   0  0  1  0  0  0  0  0  0  0  0  0
   -0.8015    3.5441   11.0004 C   0  0  0  0  0  0  0  0  0  0  0  0
   -0.7191    4.6231    9.9027 C   0  0  2  0  0  0  0  0  0  0  0  0
   -2.1390    5.1811    9.5807 C   0  0  0  0  0  0  0  0  0  0  0  0
   -3.0571    4.0363    9.1112 C   0  0  2  0  0  0  0  0  0  0  0  0
   -3.1257    2.9576   10.2184 C   0  0  0  0  0  0  0  0  0  0  0  0
   -2.4767    3.4184    7.8214 C   0  0  0  0  0  0  0  0  0  0  0  0
   -0.0601    3.9807    8.6834 C   0  0  0  0  0  0  0  0  0  0  0  0
    2.8767    2.3773    2.1822 H   0  0  0  0  0  0  0  0  0  0  0  0
    3.5233    3.8595    2.8992 H   0  0  0  0  0  0  0  0  0  0  0  0
    2.2064    3.9373    1.7121 H   0  0  0  0  0  0  0  0  0  0  0  0
    2.1862    5.8471    2.9152 H   0  0  0  0  0  0  0  0  0  0  0  0
    1.2959    7.8125    4.1282 H   0  0  0  0  0  0  0  0  0  0  0  0
   -1.0033    5.5172    6.5741 H   0  0  0  0  0  0  0  0  0  0  0  0
    0.3084    2.0868    5.0949 H   0  0  0  0  0  0  0  0  0  0  0  0
   -1.7650    0.9634    8.8474 H   0  0  0  0  0  0  0  0  0  0  0  0
   -0.1545    1.3791    9.3783 H   0  0  0  0  0  0  0  0  0  0  0  0
   -1.7606    1.6408   11.2628 H   0  0  0  0  0  0  0  0  0  0  0  0
   -1.1598    3.9699   11.9481 H   0  0  0  0  0  0  0  0  0  0  0  0
    0.2118    3.1662   11.1697 H   0  0  0  0  0  0  0  0  0  0  0  0
   -0.0942    5.4492   10.2349 H   0  0  0  0  0  0  0  0  0  0  0  0
   -2.5761    5.6789   10.4512 H   0  0  0  0  0  0  0  0  0  0  0  0
   -2.0855    5.9453    8.8024 H   0  0  0  0  0  0  0  0  0  0  0  0
   -4.0642    4.4165    8.9160 H   0  0  0  0  0  0  0  0  0  0  0  0
   -3.7807    2.1476    9.9090 H   0  0  0  0  0  0  0  0  0  0  0  0
   -3.5503    3.3683   11.1341 H   0  0  0  0  0  0  0  0  0  0  0  0
   -2.5013    4.1414    7.0095 H   0  0  0  0  0  0  0  0  0  0  0  0
   -3.1333    2.6067    7.4815 H   0  0  0  0  0  0  0  0  0  0  0  0
    0.9051    3.5146    8.9271 H   0  0  0  0  0  0  0  0  0  0  0  0
    0.1696    4.8409    8.0802 H   0  0  0  0  0  0  0  0  0  0  0  0
  1  2  1  0
  1 21  1  0
  1 22  1  0
  1 23  1  0
  2  3  1  0
  3  8  2  0
  3  4  1  0
  4  5  2  0
  4 24  1  0
  5  6  1  0
  5 25  1  0
  6  7  2  0
  7  8  1  0
  7 26  1  0
  8  9  1  0
  9 10  2  3
  9 27  1  0
 11 10  1  6
 11 19  1  0
 11 20  1  0
 11 12  1  0
 12 13  1  0
 12 28  1  0
 12 29  1  0
 13 18  1  0
 13 14  1  0
 13 30  1  1
 14 15  1  0
 14 31  1  0
 14 32  1  0
 15 16  1  0
 15 20  1  0
 15 33  1  1
 16 17  1  0
 16 34  1  0
 16 35  1  0
 17 18  1  0
 17 19  1  0
 17 36  1  6
 18 37  1  0
 18 38  1  0
 19 39  1  0
 19 40  1  0
 20 41  1  0
 20 42  1  0
M  END
>  <i_m_ct_stereo_status>  (397) 
1

>  <s_m_source_file>  (397) 
/var/tmp/pbs.5076255.sched01/tmpk5ywl0l3/150lwq6_0yz.sdf

>  <i_m_source_file_index>  (397) 
9

>  <i_lp_mmshare_version>  (397) 
48012

>  <i_f3d_flags>  (397) 
0

>  <s_epik_input>  (397) 
W0NIM11PYzFbY0hdW2NIXW5bY0hdYzEvW0NIXT1OL0MyM1tDSDJdW0NAQEhdNFtDSDJdW0NASF0oW0NIMl0zKVtDSDJdW0NAQEhdKFtDSDJdNClbQ0gyXTI=

>  <s_epik_cmdline>  (397) 
J2VwaWtfcHl0aG9uJywgJy1waHQnLCAnMi4wJywgJy1waCcsICc3LjAnLCAnLXRuJywgJzgnLCAnLW1hJywgJzIwMCcsICctaW1hZScsICc8aW5maWxlLm1hZT4nLCAnLW9tYWUnLCAnPG91dGZpbGUubWFlPic=

>  <r_epik_Ionization_Penalty>  (397) 
0.0172832

>  <r_epik_Ionization_Penalty_Charging>  (397) 
0

>  <r_epik_Ionization_Penalty_Neutral>  (397) 
0.0172832

>  <r_epik_State_Penalty>  (397) 
0.0136899

>  <r_epik_Charging_Adjusted_Penalty>  (397) 
0.0136899

>  <i_epik_Tot_Q>  (397) 
0

>  <i_epik_Tot_abs_Q>  (397) 
0

>  <s_epik_Chemistry_Notes>  (397) 
This compound has an imine and may undergo hydrolysis.

>  <s_lp_Force_Field>  (397) 
OPLS3e

>  <r_lp_Energy>  (397) 
39.6491

>  <b_lp_Chiralities_Consistent>  (397) 
1

>  <s_lp_Variant>  (397) 
96:0-2

>  <s_i_glide_gridfile>  (397) 
pfpi4k_grid

>  <i_i_glide_lignum>  (397) 
9

>  <i_i_glide_rotatable_bonds>  (397) 
3

>  <r_i_docking_score>  (397) 
-2.42474

>  <r_i_glide_ligand_efficiency>  (397) 
-0.121237

>  <r_i_glide_ligand_efficiency_sa>  (397) 
-0.329088

>  <r_i_glide_ligand_efficiency_ln>  (397) 
-0.606832

>  <r_i_glide_gscore>  (397) 
-2.42474

>  <r_i_glide_lipo>  (397) 
-0.128018

>  <r_i_glide_hbond>  (397) 
-0.0117389

>  <r_i_glide_metal>  (397) 
-0

>  <r_i_glide_rewards>  (397) 
-1.56566

>  <r_i_glide_evdw>  (397) 
-16.5485

>  <r_i_glide_ecoul>  (397) 
-2.53004

>  <r_i_glide_erotb>  (397) 
0.489332

>  <r_i_glide_esite>  (397) 
-0.00172016

>  <r_i_glide_emodel>  (397) 
-21.3746

>  <r_i_glide_energy>  (397) 
-19.0785

>  <r_i_glide_einternal>  (397) 
1.39284

>  <r_i_glide_intrahb_reward>  (397) 
-0

>  <i_i_glide_confnum>  (397) 
6

>  <i_i_glide_posenum>  (397) 
12

>  <r_i_glide_eff_state_penalty>  (397) 
0

>  <ligand_id>  (397) 
96

>  <original_smiles>  (397) 
COc1ccncc1C=NC12CC3CC(CC(C3)C1)C2

>  <smiles>  (397) 
[H]C(=NC12C([H])([H])C3([H])C([H])([H])C([H])(C([H])([H])C([H])(C3([H])[H])C1([H])[H])C2([H])[H])c1c([H])nc([H])c([H])c1OC([H])([H])[H]

$$$$
96:1:2
     RDKit          3D

 42 45  0  0  1  0  0  0  0  0999 V2000
    0.0711   -3.0211    5.3614 C   0  0  0  0  0  0  0  0  0  0  0  0
    0.9744   -3.0619    4.2649 O   0  0  0  0  0  0  0  0  0  0  0  0
    1.2904   -1.8810    3.6194 C   0  0  0  0  0  0  0  0  0  0  0  0
    0.6936   -0.6454    3.9946 C   0  0  0  0  0  0  0  0  0  0  0  0
    1.0490    0.5254    3.2903 C   0  0  0  0  0  0  0  0  0  0  0  0
    1.9497    0.5225    2.3060 N   0  0  0  0  0  0  0  0  0  0  0  0
    2.5189   -0.6415    1.9525 C   0  0  0  0  0  0  0  0  0  0  0  0
    2.2350   -1.9146    2.5504 C   0  0  0  0  0  0  0  0  0  0  0  0
    2.8383   -3.2564    2.1806 C   0  0  0  0  0  0  0  0  0  0  0  0
    3.5900   -3.7425    1.2570 N   0  0  0  0  0  0  0  0  0  0  0  0
    4.2096   -3.0651    0.1300 C   0  0  2  0  0  0  0  0  0  0  0  0
    3.1568   -2.4337   -0.8238 C   0  0  0  0  0  0  0  0  0  0  0  0
    3.8394   -1.7134   -1.9900 C   0  0  1  0  0  0  0  0  0  0  0  0
    4.8618   -0.6895   -1.4547 C   0  0  0  0  0  0  0  0  0  0  0  0
    5.9493   -1.4003   -0.6196 C   0  0  2  0  0  0  0  0  0  0  0  0
    6.6497   -2.4692   -1.4750 C   0  0  0  0  0  0  0  0  0  0  0  0
    5.5992   -3.4781   -1.9774 C   0  0  2  0  0  0  0  0  0  0  0  0
    4.5466   -2.7600   -2.8514 C   0  0  0  0  0  0  0  0  0  0  0  0
    4.9218   -4.1418   -0.7426 C   0  0  0  0  0  0  0  0  0  0  0  0
    5.3286   -2.0881    0.6047 C   0  0  0  0  0  0  0  0  0  0  0  0
   -0.0567   -4.0260    5.7638 H   0  0  0  0  0  0  0  0  0  0  0  0
   -0.9095   -2.6594    5.0470 H   0  0  0  0  0  0  0  0  0  0  0  0
    0.4503   -2.3882    6.1662 H   0  0  0  0  0  0  0  0  0  0  0  0
   -0.0145   -0.5509    4.7986 H   0  0  0  0  0  0  0  0  0  0  0  0
    0.6203    1.4820    3.5360 H   0  0  0  0  0  0  0  0  0  0  0  0
    3.2138   -0.4576    1.1596 H   0  0  0  0  0  0  0  0  0  0  0  0
    2.5480   -4.0403    2.8860 H   0  0  0  0  0  0  0  0  0  0  0  0
    2.4383   -3.1776   -1.1837 H   0  0  0  0  0  0  0  0  0  0  0  0
    2.6135   -1.6701   -0.3333 H   0  0  0  0  0  0  0  0  0  0  0  0
    3.0767   -1.1958   -2.5721 H   0  0  0  0  0  0  0  0  0  0  0  0
    5.3047   -0.1424   -2.2888 H   0  0  0  0  0  0  0  0  0  0  0  0
    4.3616    0.0481   -0.8300 H   0  0  0  0  0  0  0  0  0  0  0  0
    6.6622   -0.6649   -0.2551 H   0  0  0  0  0  0  0  0  0  0  0  0
    7.1734   -2.0263   -2.3219 H   0  0  0  0  0  0  0  0  0  0  0  0
    7.4098   -2.9799   -0.8893 H   0  0  0  0  0  0  0  0  0  0  0  0
    6.0796   -4.2365   -2.5947 H   0  0  0  0  0  0  0  0  0  0  0  0
    3.8138   -3.4795   -3.2214 H   0  0  0  0  0  0  0  0  0  0  0  0
    5.0103   -2.2905   -3.7224 H   0  0  0  0  0  0  0  0  0  0  0  0
    5.6699   -4.6930   -0.1611 H   0  0  0  0  0  0  0  0  0  0  0  0
    4.2119   -4.8947   -1.0962 H   0  0  0  0  0  0  0  0  0  0  0  0
    5.0193   -1.3250    1.3102 H   0  0  0  0  0  0  0  0  0  0  0  0
    6.0952   -2.6365    1.1569 H   0  0  0  0  0  0  0  0  0  0  0  0
  1  2  1  0
  1 21  1  0
  1 22  1  0
  1 23  1  0
  2  3  1  0
  3  8  2  0
  3  4  1  0
  4  5  2  0
  4 24  1  0
  5  6  1  0
  5 25  1  0
  6  7  2  0
  7  8  1  0
  7 26  1  0
  8  9  1  0
  9 10  2  3
  9 27  1  0
 11 10  1  1
 11 19  1  0
 11 20  1  0
 11 12  1  0
 12 13  1  0
 12 28  1  0
 12 29  1  0
 13 18  1  0
 13 14  1  0
 13 30  1  6
 14 15  1  0
 14 31  1  0
 14 32  1  0
 15 16  1  0
 15 20  1  0
 15 33  1  1
 16 17  1  0
 16 34  1  0
 16 35  1  0
 17 18  1  0
 17 19  1  0
 17 36  1  6
 18 37  1  0
 18 38  1  0
 19 39  1  0
 19 40  1  0
 20 41  1  0
 20 42  1  0
M  END
>  <i_m_ct_stereo_status>  (398) 
1

>  <s_m_source_file>  (398) 
/var/tmp/pbs.5076255.sched01/tmpk5ywl0l3/150lwq6_0yz.sdf

>  <i_m_source_file_index>  (398) 
9

>  <i_lp_mmshare_version>  (398) 
48012

>  <i_f3d_flags>  (398) 
0

>  <s_epik_input>  (398) 
W0NIM11PYzFbY0hdW2NIXW5bY0hdYzEvW0NIXT1OL0MyM1tDSDJdW0NAQEhdNFtDSDJdW0NASF0oW0NIMl0zKVtDSDJdW0NAQEhdKFtDSDJdNClbQ0gyXTI=

>  <s_epik_cmdline>  (398) 
J2VwaWtfcHl0aG9uJywgJy1waHQnLCAnMi4wJywgJy1waCcsICc3LjAnLCAnLXRuJywgJzgnLCAnLW1hJywgJzIwMCcsICctaW1hZScsICc8aW5maWxlLm1hZT4nLCAnLW9tYWUnLCAnPG91dGZpbGUubWFlPic=

>  <r_epik_Ionization_Penalty>  (398) 
0.0172832

>  <r_epik_Ionization_Penalty_Charging>  (398) 
0

>  <r_epik_Ionization_Penalty_Neutral>  (398) 
0.0172832

>  <r_epik_State_Penalty>  (398) 
0.0136899

>  <r_epik_Charging_Adjusted_Penalty>  (398) 
0.0136899

>  <i_epik_Tot_Q>  (398) 
0

>  <i_epik_Tot_abs_Q>  (398) 
0

>  <s_epik_Chemistry_Notes>  (398) 
This compound has an imine and may undergo hydrolysis.

>  <s_lp_Force_Field>  (398) 
OPLS3e

>  <r_lp_Energy>  (398) 
39.6491

>  <b_lp_Chiralities_Consistent>  (398) 
1

>  <s_lp_Variant>  (398) 
96:0-2

>  <s_i_glide_gridfile>  (398) 
pfpi4k_grid

>  <i_i_glide_lignum>  (398) 
9

>  <i_i_glide_rotatable_bonds>  (398) 
3

>  <r_i_docking_score>  (398) 
-2.39159

>  <r_i_glide_ligand_efficiency>  (398) 
-0.11958

>  <r_i_glide_ligand_efficiency_sa>  (398) 
-0.324589

>  <r_i_glide_ligand_efficiency_ln>  (398) 
-0.598537

>  <r_i_glide_gscore>  (398) 
-2.39159

>  <r_i_glide_lipo>  (398) 
-0.360305

>  <r_i_glide_hbond>  (398) 
0

>  <r_i_glide_metal>  (398) 
-0

>  <r_i_glide_rewards>  (398) 
-1.56566

>  <r_i_glide_evdw>  (398) 
-19.5693

>  <r_i_glide_ecoul>  (398) 
0.173578

>  <r_i_glide_erotb>  (398) 
0.489332

>  <r_i_glide_esite>  (398) 
-0.00253202

>  <r_i_glide_emodel>  (398) 
-22.4531

>  <r_i_glide_energy>  (398) 
-19.3957

>  <r_i_glide_einternal>  (398) 
0.153429

>  <r_i_glide_intrahb_reward>  (398) 
-0

>  <i_i_glide_confnum>  (398) 
1

>  <i_i_glide_posenum>  (398) 
1

>  <r_i_glide_eff_state_penalty>  (398) 
0

>  <ligand_id>  (398) 
96

>  <original_smiles>  (398) 
COc1ccncc1C=NC12CC3CC(CC(C3)C1)C2

>  <smiles>  (398) 
[H]C(=NC12C([H])([H])C3([H])C([H])([H])C([H])(C([H])([H])C([H])(C3([H])[H])C1([H])[H])C2([H])[H])c1c([H])nc([H])c([H])c1OC([H])([H])[H]

$$$$
96:2:0
     RDKit          3D

 43 46  0  0  1  0  0  0  0  0999 V2000
    0.3415   -2.0639    4.8267 C   0  0  0  0  0  0  0  0  0  0  0  0
   -0.0144   -0.7101    5.0702 O   0  0  0  0  0  0  0  0  0  0  0  0
    0.1497    0.2074    4.0481 C   0  0  0  0  0  0  0  0  0  0  0  0
    0.6254   -0.1336    2.7590 C   0  0  0  0  0  0  0  0  0  0  0  0
    0.7484    0.8682    1.7780 C   0  0  0  0  0  0  0  0  0  0  0  0
    0.4267    2.1426    2.0768 N   0  0  0  0  0  0  0  0  0  0  0  0
   -0.0102    2.5187    3.2880 C   0  0  0  0  0  0  0  0  0  0  0  0
   -0.1656    1.5664    4.3095 C   0  0  0  0  0  0  0  0  0  0  0  0
   -0.6500    2.0076    5.6210 C   0  0  0  0  0  0  0  0  0  0  0  0
   -0.4732    3.1685    6.1110 N   0  0  0  0  0  0  0  0  0  0  0  0
   -0.9826    3.4571    7.4500 C   0  0  1  0  0  0  0  0  0  0  0  0
   -2.5399    3.4342    7.4541 C   0  0  0  0  0  0  0  0  0  0  0  0
   -3.0646    3.7956    8.8549 C   0  0  2  0  0  0  0  0  0  0  0  0
   -2.5890    5.2150    9.2223 C   0  0  0  0  0  0  0  0  0  0  0  0
   -1.0506    5.2470    9.2501 C   0  0  1  0  0  0  0  0  0  0  0  0
   -0.5255    4.2404   10.2957 C   0  0  0  0  0  0  0  0  0  0  0  0
   -0.9867    2.8239    9.9091 C   0  0  1  0  0  0  0  0  0  0  0  0
   -2.5289    2.7705    9.8772 C   0  0  0  0  0  0  0  0  0  0  0  0
   -0.4300    2.4602    8.5207 C   0  0  0  0  0  0  0  0  0  0  0  0
   -0.5091    4.8822    7.8505 C   0  0  0  0  0  0  0  0  0  0  0  0
    0.1720   -2.6524    5.7278 H   0  0  0  0  0  0  0  0  0  0  0  0
    1.3960   -2.1623    4.5623 H   0  0  0  0  0  0  0  0  0  0  0  0
   -0.2704   -2.4933    4.0327 H   0  0  0  0  0  0  0  0  0  0  0  0
    0.8871   -1.1495    2.4907 H   0  0  0  0  0  0  0  0  0  0  0  0
    1.0664    0.6786    0.7655 H   0  0  0  0  0  0  0  0  0  0  0  0
   -0.2432    3.5729    3.3877 H   0  0  0  0  0  0  0  0  0  0  0  0
   -1.1922    1.2451    6.1792 H   0  0  0  0  0  0  0  0  0  0  0  0
   -2.9257    4.1354    6.7147 H   0  0  0  0  0  0  0  0  0  0  0  0
   -2.9283    2.4547    7.1816 H   0  0  0  0  0  0  0  0  0  0  0  0
   -4.1528    3.7627    8.8534 H   0  0  0  0  0  0  0  0  0  0  0  0
   -2.9683    5.9342    8.4967 H   0  0  0  0  0  0  0  0  0  0  0  0
   -2.9791    5.5097   10.1960 H   0  0  0  0  0  0  0  0  0  0  0  0
   -0.7190    6.2484    9.5247 H   0  0  0  0  0  0  0  0  0  0  0  0
    0.5625    4.2790   10.3448 H   0  0  0  0  0  0  0  0  0  0  0  0
   -0.8903    4.4925   11.2929 H   0  0  0  0  0  0  0  0  0  0  0  0
   -0.6191    2.1077   10.6427 H   0  0  0  0  0  0  0  0  0  0  0  0
   -2.9370    2.9614   10.8710 H   0  0  0  0  0  0  0  0  0  0  0  0
   -2.8590    1.7729    9.5950 H   0  0  0  0  0  0  0  0  0  0  0  0
   -0.7166    1.4305    8.3225 H   0  0  0  0  0  0  0  0  0  0  0  0
    0.6604    2.4817    8.5328 H   0  0  0  0  0  0  0  0  0  0  0  0
    0.5824    4.9421    7.8567 H   0  0  0  0  0  0  0  0  0  0  0  0
   -0.8458    5.6246    7.1231 H   0  0  0  0  0  0  0  0  0  0  0  0
    0.4645    2.8808    1.3495 H   0  0  0  0  0  0  0  0  0  0  0  0
  1  2  1  0
  1 21  1  0
  1 22  1  0
  1 23  1  0
  2  3  1  0
  3  8  2  0
  3  4  1  0
  4  5  2  0
  4 24  1  0
  5  6  1  0
  5 25  1  0
  6  7  2  0
  6 43  1  0
  7  8  1  0
  7 26  1  0
  8  9  1  0
  9 10  2  3
  9 27  1  0
 11 10  1  6
 11 19  1  0
 11 20  1  0
 11 12  1  0
 12 13  1  0
 12 28  1  0
 12 29  1  0
 13 18  1  0
 13 14  1  0
 13 30  1  6
 14 15  1  0
 14 31  1  0
 14 32  1  0
 15 16  1  0
 15 20  1  0
 15 33  1  1
 16 17  1  0
 16 34  1  0
 16 35  1  0
 17 18  1  0
 17 19  1  0
 17 36  1  1
 18 37  1  0
 18 38  1  0
 19 39  1  0
 19 40  1  0
 20 41  1  0
 20 42  1  0
M  CHG  1   6   1
M  END
>  <i_m_ct_stereo_status>  (399) 
1

>  <s_m_source_file>  (399) 
/var/tmp/pbs.5076255.sched01/tmpk5ywl0l3/150lwq6_0yz.sdf

>  <i_m_source_file_index>  (399) 
10

>  <i_lp_mmshare_version>  (399) 
48012

>  <i_f3d_flags>  (399) 
0

>  <s_epik_input>  (399) 
W0NIM11PYzFbY0hdW2NIXW5bY0hdYzEvW0NIXT1OL0MyM1tDSDJdW0NAQEhdNFtDSDJdW0NASF0oW0NIMl0zKVtDSDJdW0NAQEhdKFtDSDJdNClbQ0gyXTI=

>  <s_epik_cmdline>  (399) 
J2VwaWtfcHl0aG9uJywgJy1waHQnLCAnMi4wJywgJy1waCcsICc3LjAnLCAnLXRuJywgJzgnLCAnLW1hJywgJzIwMCcsICctaW1hZScsICc8aW5maWxlLm1hZT4nLCAnLW9tYWUnLCAnPG91dGZpbGUubWFlPic=

>  <r_epik_Ionization_Penalty>  (399) 
2.10282

>  <r_epik_Ionization_Penalty_Charging>  (399) 
2.10282

>  <r_epik_Ionization_Penalty_Neutral>  (399) 
0

>  <r_epik_State_Penalty>  (399) 
2.23912

>  <r_epik_Charging_Adjusted_Penalty>  (399) 
4.34194

>  <i_epik_Tot_Q>  (399) 
1

>  <i_epik_Tot_abs_Q>  (399) 
1

>  <s_epik_Chemistry_Notes>  (399) 
This compound has an imine and may undergo hydrolysis.

>  <s_lp_Force_Field>  (399) 
OPLS3e

>  <r_lp_Energy>  (399) 
27.1824

>  <b_lp_Chiralities_Consistent>  (399) 
1

>  <s_lp_Variant>  (399) 
96:0-3

>  <s_i_glide_gridfile>  (399) 
pfpi4k_grid

>  <i_i_glide_lignum>  (399) 
10

>  <i_i_glide_rotatable_bonds>  (399) 
3

>  <r_i_docking_score>  (399) 
-3.41653

>  <r_i_glide_ligand_efficiency>  (399) 
-0.170826

>  <r_i_glide_ligand_efficiency_sa>  (399) 
-0.463694

>  <r_i_glide_ligand_efficiency_ln>  (399) 
-0.855044

>  <r_i_glide_gscore>  (399) 
-3.41653

>  <r_i_glide_lipo>  (399) 
-0.18309

>  <r_i_glide_hbond>  (399) 
-0.2

>  <r_i_glide_metal>  (399) 
-0

>  <r_i_glide_rewards>  (399) 
-1.55879

>  <r_i_glide_evdw>  (399) 
-15.3476

>  <r_i_glide_ecoul>  (399) 
-7.29218

>  <r_i_glide_erotb>  (399) 
0.486191

>  <r_i_glide_esite>  (399) 
-0.0996327

>  <r_i_glide_emodel>  (399) 
-28.3313

>  <r_i_glide_energy>  (399) 
-22.6397

>  <r_i_glide_einternal>  (399) 
1.38887

>  <r_i_glide_intrahb_reward>  (399) 
-0

>  <i_i_glide_confnum>  (399) 
4

>  <i_i_glide_posenum>  (399) 
16

>  <r_i_glide_eff_state_penalty>  (399) 
0

>  <ligand_id>  (399) 
96

>  <original_smiles>  (399) 
COc1ccncc1C=NC12CC3CC(CC(C3)C1)C2

>  <smiles>  (399) 
[H]C(=NC12C([H])([H])C3([H])C([H])([H])C([H])(C([H])([H])C([H])(C3([H])[H])C1([H])[H])C2([H])[H])c1c(OC([H])([H])[H])c([H])c([H])[n+]([H])c1[H]

$$$$
96:2:1
     RDKit          3D

 43 46  0  0  1  0  0  0  0  0999 V2000
    0.3894   -1.8344    4.9315 C   0  0  0  0  0  0  0  0  0  0  0  0
    0.1260   -0.4928    5.3156 O   0  0  0  0  0  0  0  0  0  0  0  0
    0.1438    0.4858    4.3439 C   0  0  0  0  0  0  0  0  0  0  0  0
    0.3491    0.2140    2.9689 C   0  0  0  0  0  0  0  0  0  0  0  0
    0.3283    1.2713    2.0501 C   0  0  0  0  0  0  0  0  0  0  0  0
    0.1311    2.5368    2.4810 N   0  0  0  0  0  0  0  0  0  0  0  0
   -0.0766    2.8479    3.7681 C   0  0  0  0  0  0  0  0  0  0  0  0
   -0.0784    1.8345    4.7381 C   0  0  0  0  0  0  0  0  0  0  0  0
   -0.2998    2.1995    6.1412 C   0  0  0  0  0  0  0  0  0  0  0  0
   -0.8931    3.2559    6.5345 N   0  0  0  0  0  0  0  0  0  0  0  0
   -1.0467    3.4797    7.9719 C   0  0  1  0  0  0  0  0  0  0  0  0
   -1.8709    4.7825    8.1667 C   0  0  0  0  0  0  0  0  0  0  0  0
   -2.0592    5.0764    9.6696 C   0  0  2  0  0  0  0  0  0  0  0  0
   -0.6765    5.2562   10.3267 C   0  0  0  0  0  0  0  0  0  0  0  0
    0.1364    3.9593   10.1569 C   0  0  1  0  0  0  0  0  0  0  0  0
   -0.6157    2.7827   10.8163 C   0  0  0  0  0  0  0  0  0  0  0  0
   -1.9978    2.6133   10.1536 C   0  0  1  0  0  0  0  0  0  0  0  0
   -2.8150    3.9019   10.3232 C   0  0  0  0  0  0  0  0  0  0  0  0
   -1.8248    2.3122    8.6568 C   0  0  0  0  0  0  0  0  0  0  0  0
    0.3368    3.6726    8.6591 C   0  0  0  0  0  0  0  0  0  0  0  0
    0.3518   -2.4781    5.8125 H   0  0  0  0  0  0  0  0  0  0  0  0
    1.3840   -1.9327    4.4936 H   0  0  0  0  0  0  0  0  0  0  0  0
   -0.3559   -2.2007    4.2238 H   0  0  0  0  0  0  0  0  0  0  0  0
    0.5153   -0.7857    2.5934 H   0  0  0  0  0  0  0  0  0  0  0  0
    0.4592    1.1575    0.9812 H   0  0  0  0  0  0  0  0  0  0  0  0
   -0.2215    3.9015    3.9772 H   0  0  0  0  0  0  0  0  0  0  0  0
    0.0924    1.4825    6.8621 H   0  0  0  0  0  0  0  0  0  0  0  0
   -1.3759    5.6312    7.6869 H   0  0  0  0  0  0  0  0  0  0  0  0
   -2.8495    4.6757    7.6943 H   0  0  0  0  0  0  0  0  0  0  0  0
   -2.6377    5.9898    9.7966 H   0  0  0  0  0  0  0  0  0  0  0  0
   -0.1473    6.0888    9.8604 H   0  0  0  0  0  0  0  0  0  0  0  0
   -0.7835    5.5065   11.3839 H   0  0  0  0  0  0  0  0  0  0  0  0
    1.1094    4.0751   10.6307 H   0  0  0  0  0  0  0  0  0  0  0  0
   -0.0385    1.8623   10.7209 H   0  0  0  0  0  0  0  0  0  0  0  0
   -0.7381    2.9548   11.8890 H   0  0  0  0  0  0  0  0  0  0  0  0
   -2.5227    1.7935   10.6409 H   0  0  0  0  0  0  0  0  0  0  0  0
   -2.9968    4.0936   11.3830 H   0  0  0  0  0  0  0  0  0  0  0  0
   -3.7893    3.7747    9.8526 H   0  0  0  0  0  0  0  0  0  0  0  0
   -2.7944    2.1720    8.1771 H   0  0  0  0  0  0  0  0  0  0  0  0
   -1.2957    1.3659    8.5802 H   0  0  0  0  0  0  0  0  0  0  0  0
    0.9610    2.7863    8.5638 H   0  0  0  0  0  0  0  0  0  0  0  0
    0.8851    4.4901    8.1882 H   0  0  0  0  0  0  0  0  0  0  0  0
    0.1442    3.3018    1.7716 H   0  0  0  0  0  0  0  0  0  0  0  0
  1  2  1  0
  1 21  1  0
  1 22  1  0
  1 23  1  0
  2  3  1  0
  3  8  2  0
  3  4  1  0
  4  5  2  0
  4 24  1  0
  5  6  1  0
  5 25  1  0
  6  7  2  0
  6 43  1  0
  7  8  1  0
  7 26  1  0
  8  9  1  0
  9 10  2  3
  9 27  1  0
 11 10  1  6
 11 19  1  0
 11 20  1  0
 11 12  1  0
 12 13  1  0
 12 28  1  0
 12 29  1  0
 13 18  1  0
 13 14  1  0
 13 30  1  6
 14 15  1  0
 14 31  1  0
 14 32  1  0
 15 16  1  0
 15 20  1  0
 15 33  1  1
 16 17  1  0
 16 34  1  0
 16 35  1  0
 17 18  1  0
 17 19  1  0
 17 36  1  1
 18 37  1  0
 18 38  1  0
 19 39  1  0
 19 40  1  0
 20 41  1  0
 20 42  1  0
M  CHG  1   6   1
M  END
>  <i_m_ct_stereo_status>  (400) 
1

>  <s_m_source_file>  (400) 
/var/tmp/pbs.5076255.sched01/tmpk5ywl0l3/150lwq6_0yz.sdf

>  <i_m_source_file_index>  (400) 
10

>  <i_lp_mmshare_version>  (400) 
48012

>  <i_f3d_flags>  (400) 
0

>  <s_epik_input>  (400) 
W0NIM11PYzFbY0hdW2NIXW5bY0hdYzEvW0NIXT1OL0MyM1tDSDJdW0NAQEhdNFtDSDJdW0NASF0oW0NIMl0zKVtDSDJdW0NAQEhdKFtDSDJdNClbQ0gyXTI=

>  <s_epik_cmdline>  (400) 
J2VwaWtfcHl0aG9uJywgJy1waHQnLCAnMi4wJywgJy1waCcsICc3LjAnLCAnLXRuJywgJzgnLCAnLW1hJywgJzIwMCcsICctaW1hZScsICc8aW5maWxlLm1hZT4nLCAnLW9tYWUnLCAnPG91dGZpbGUubWFlPic=

>  <r_epik_Ionization_Penalty>  (400) 
2.10282

>  <r_epik_Ionization_Penalty_Charging>  (400) 
2.10282

>  <r_epik_Ionization_Penalty_Neutral>  (400) 
0

>  <r_epik_State_Penalty>  (400) 
2.23912

>  <r_epik_Charging_Adjusted_Penalty>  (400) 
4.34194

>  <i_epik_Tot_Q>  (400) 
1

>  <i_epik_Tot_abs_Q>  (400) 
1

>  <s_epik_Chemistry_Notes>  (400) 
This compound has an imine and may undergo hydrolysis.

>  <s_lp_Force_Field>  (400) 
OPLS3e

>  <r_lp_Energy>  (400) 
27.1824

>  <b_lp_Chiralities_Consistent>  (400) 
1

>  <s_lp_Variant>  (400) 
96:0-3

>  <s_i_glide_gridfile>  (400) 
pfpi4k_grid

>  <i_i_glide_lignum>  (400) 
10

>  <i_i_glide_rotatable_bonds>  (400) 
3

>  <r_i_docking_score>  (400) 
-3.39413

>  <r_i_glide_ligand_efficiency>  (400) 
-0.169706

>  <r_i_glide_ligand_efficiency_sa>  (400) 
-0.460654

>  <r_i_glide_ligand_efficiency_ln>  (400) 
-0.849438

>  <r_i_glide_gscore>  (400) 
-3.39413

>  <r_i_glide_lipo>  (400) 
-0.000878874

>  <r_i_glide_hbond>  (400) 
-0.157272

>  <r_i_glide_metal>  (400) 
-0

>  <r_i_glide_rewards>  (400) 
-1.55879

>  <r_i_glide_evdw>  (400) 
-13.9098

>  <r_i_glide_ecoul>  (400) 
-9.10014

>  <r_i_glide_erotb>  (400) 
0.486191

>  <r_i_glide_esite>  (400) 
-0.102862

>  <r_i_glide_emodel>  (400) 
-28.909

>  <r_i_glide_energy>  (400) 
-23.01

>  <r_i_glide_einternal>  (400) 
0.94003

>  <r_i_glide_intrahb_reward>  (400) 
-0

>  <i_i_glide_confnum>  (400) 
2

>  <i_i_glide_posenum>  (400) 
36

>  <r_i_glide_eff_state_penalty>  (400) 
0

>  <ligand_id>  (400) 
96

>  <original_smiles>  (400) 
COc1ccncc1C=NC12CC3CC(CC(C3)C1)C2

>  <smiles>  (400) 
[H]C(=NC12C([H])([H])C3([H])C([H])([H])C([H])(C([H])([H])C([H])(C3([H])[H])C1([H])[H])C2([H])[H])c1c(OC([H])([H])[H])c([H])c([H])[n+]([H])c1[H]

$$$$
96:2:2
     RDKit          3D

 43 46  0  0  1  0  0  0  0  0999 V2000
    6.9486   -5.2557    1.3092 C   0  0  0  0  0  0  0  0  0  0  0  0
    5.5314   -5.3730    1.3045 O   0  0  0  0  0  0  0  0  0  0  0  0
    4.7907   -4.5965    0.4312 C   0  0  0  0  0  0  0  0  0  0  0  0
    5.3704   -3.6564   -0.4605 C   0  0  0  0  0  0  0  0  0  0  0  0
    4.5447   -2.9034   -1.3187 C   0  0  0  0  0  0  0  0  0  0  0  0
    3.2099   -3.0829   -1.2861 N   0  0  0  0  0  0  0  0  0  0  0  0
    2.6182   -3.9729   -0.4730 C   0  0  0  0  0  0  0  0  0  0  0  0
    3.3783   -4.7557    0.4198 C   0  0  0  0  0  0  0  0  0  0  0  0
    2.6954   -5.7185    1.3048 C   0  0  0  0  0  0  0  0  0  0  0  0
    1.4785   -6.0883    1.1953 N   0  0  0  0  0  0  0  0  0  0  0  0
    0.9555   -7.0598    2.1512 C   0  0  1  0  0  0  0  0  0  0  0  0
    1.7854   -8.3838    2.1617 C   0  0  0  0  0  0  0  0  0  0  0  0
    1.1635   -9.3783    3.1543 C   0  0  2  0  0  0  0  0  0  0  0  0
   -0.2688   -9.7159    2.7121 C   0  0  0  0  0  0  0  0  0  0  0  0
   -1.1151   -8.4261    2.7057 C   0  0  1  0  0  0  0  0  0  0  0  0
   -1.1522   -7.8216    4.1255 C   0  0  0  0  0  0  0  0  0  0  0  0
    0.2848   -7.4770    4.5620 C   0  0  1  0  0  0  0  0  0  0  0  0
    1.1503   -8.7550    4.5664 C   0  0  0  0  0  0  0  0  0  0  0  0
    0.8935   -6.4512    3.5847 C   0  0  0  0  0  0  0  0  0  0  0  0
   -0.4940   -7.4083    1.7187 C   0  0  0  0  0  0  0  0  0  0  0  0
    7.3788   -5.9292    2.0550 H   0  0  0  0  0  0  0  0  0  0  0  0
    7.2593   -4.2426    1.5665 H   0  0  0  0  0  0  0  0  0  0  0  0
    7.3670   -5.5299    0.3404 H   0  0  0  0  0  0  0  0  0  0  0  0
    6.4386   -3.5035   -0.4963 H   0  0  0  0  0  0  0  0  0  0  0  0
    4.9099   -2.1744   -2.0267 H   0  0  0  0  0  0  0  0  0  0  0  0
    1.5456   -4.0538   -0.5762 H   0  0  0  0  0  0  0  0  0  0  0  0
    3.3159   -6.1177    2.1096 H   0  0  0  0  0  0  0  0  0  0  0  0
    1.8208   -8.8243    1.1630 H   0  0  0  0  0  0  0  0  0  0  0  0
    2.8228   -8.2296    2.4666 H   0  0  0  0  0  0  0  0  0  0  0  0
    1.7603  -10.2888    3.1643 H   0  0  0  0  0  0  0  0  0  0  0  0
   -0.2688  -10.1726    1.7238 H   0  0  0  0  0  0  0  0  0  0  0  0
   -0.6878  -10.4536    3.3887 H   0  0  0  0  0  0  0  0  0  0  0  0
   -2.1319   -8.6672    2.3905 H   0  0  0  0  0  0  0  0  0  0  0  0
   -1.7810   -6.9308    4.1470 H   0  0  0  0  0  0  0  0  0  0  0  0
   -1.5931   -8.5337    4.8234 H   0  0  0  0  0  0  0  0  0  0  0  0
    0.2669   -7.0506    5.5643 H   0  0  0  0  0  0  0  0  0  0  0  0
    0.7614   -9.4682    5.2897 H   0  0  0  0  0  0  0  0  0  0  0  0
    2.1668   -8.5173    4.8796 H   0  0  0  0  0  0  0  0  0  0  0  0
    1.8856   -6.1748    3.9493 H   0  0  0  0  0  0  0  0  0  0  0  0
    0.3045   -5.5324    3.5888 H   0  0  0  0  0  0  0  0  0  0  0  0
   -1.1063   -6.5099    1.6806 H   0  0  0  0  0  0  0  0  0  0  0  0
   -0.5087   -7.8275    0.7112 H   0  0  0  0  0  0  0  0  0  0  0  0
    2.6118   -2.5277   -1.9015 H   0  0  0  0  0  0  0  0  0  0  0  0
  1  2  1  0
  1 21  1  0
  1 22  1  0
  1 23  1  0
  2  3  1  0
  3  8  2  0
  3  4  1  0
  4  5  2  0
  4 24  1  0
  5  6  1  0
  5 25  1  0
  6  7  2  0
  6 43  1  0
  7  8  1  0
  7 26  1  0
  8  9  1  0
  9 10  2  3
  9 27  1  0
 11 10  1  6
 11 19  1  0
 11 20  1  0
 11 12  1  0
 12 13  1  0
 12 28  1  0
 12 29  1  0
 13 18  1  0
 13 14  1  0
 13 30  1  1
 14 15  1  0
 14 31  1  0
 14 32  1  0
 15 16  1  0
 15 20  1  0
 15 33  1  6
 16 17  1  0
 16 34  1  0
 16 35  1  0
 17 18  1  0
 17 19  1  0
 17 36  1  1
 18 37  1  0
 18 38  1  0
 19 39  1  0
 19 40  1  0
 20 41  1  0
 20 42  1  0
M  CHG  1   6   1
M  END
>  <i_m_ct_stereo_status>  (401) 
1

>  <s_m_source_file>  (401) 
/var/tmp/pbs.5076255.sched01/tmpk5ywl0l3/150lwq6_0yz.sdf

>  <i_m_source_file_index>  (401) 
10

>  <i_lp_mmshare_version>  (401) 
48012

>  <i_f3d_flags>  (401) 
0

>  <s_epik_input>  (401) 
W0NIM11PYzFbY0hdW2NIXW5bY0hdYzEvW0NIXT1OL0MyM1tDSDJdW0NAQEhdNFtDSDJdW0NASF0oW0NIMl0zKVtDSDJdW0NAQEhdKFtDSDJdNClbQ0gyXTI=

>  <s_epik_cmdline>  (401) 
J2VwaWtfcHl0aG9uJywgJy1waHQnLCAnMi4wJywgJy1waCcsICc3LjAnLCAnLXRuJywgJzgnLCAnLW1hJywgJzIwMCcsICctaW1hZScsICc8aW5maWxlLm1hZT4nLCAnLW9tYWUnLCAnPG91dGZpbGUubWFlPic=

>  <r_epik_Ionization_Penalty>  (401) 
2.10282

>  <r_epik_Ionization_Penalty_Charging>  (401) 
2.10282

>  <r_epik_Ionization_Penalty_Neutral>  (401) 
0

>  <r_epik_State_Penalty>  (401) 
2.23912

>  <r_epik_Charging_Adjusted_Penalty>  (401) 
4.34194

>  <i_epik_Tot_Q>  (401) 
1

>  <i_epik_Tot_abs_Q>  (401) 
1

>  <s_epik_Chemistry_Notes>  (401) 
This compound has an imine and may undergo hydrolysis.

>  <s_lp_Force_Field>  (401) 
OPLS3e

>  <r_lp_Energy>  (401) 
27.1824

>  <b_lp_Chiralities_Consistent>  (401) 
1

>  <s_lp_Variant>  (401) 
96:0-3

>  <s_i_glide_gridfile>  (401) 
pfpi4k_grid

>  <i_i_glide_lignum>  (401) 
10

>  <i_i_glide_rotatable_bonds>  (401) 
3

>  <r_i_docking_score>  (401) 
-2.90054

>  <r_i_glide_ligand_efficiency>  (401) 
-0.145027

>  <r_i_glide_ligand_efficiency_sa>  (401) 
-0.393664

>  <r_i_glide_ligand_efficiency_ln>  (401) 
-0.725909

>  <r_i_glide_gscore>  (401) 
-2.90054

>  <r_i_glide_lipo>  (401) 
-0.210338

>  <r_i_glide_hbond>  (401) 
-0.104121

>  <r_i_glide_metal>  (401) 
-0

>  <r_i_glide_rewards>  (401) 
-1.55879

>  <r_i_glide_evdw>  (401) 
-20.2579

>  <r_i_glide_ecoul>  (401) 
-3.25015

>  <r_i_glide_erotb>  (401) 
0.486191

>  <r_i_glide_esite>  (401) 
-0.0130612

>  <r_i_glide_emodel>  (401) 
-28.7555

>  <r_i_glide_energy>  (401) 
-23.5081

>  <r_i_glide_einternal>  (401) 
0.422139

>  <r_i_glide_intrahb_reward>  (401) 
-0

>  <i_i_glide_confnum>  (401) 
5

>  <i_i_glide_posenum>  (401) 
2

>  <r_i_glide_eff_state_penalty>  (401) 
0

>  <ligand_id>  (401) 
96

>  <original_smiles>  (401) 
COc1ccncc1C=NC12CC3CC(CC(C3)C1)C2

>  <smiles>  (401) 
[H]C(=NC12C([H])([H])C3([H])C([H])([H])C([H])(C([H])([H])C([H])(C3([H])[H])C1([H])[H])C2([H])[H])c1c(OC([H])([H])[H])c([H])c([H])[n+]([H])c1[H]

$$$$
96:3:0
     RDKit          3D

 43 46  0  0  1  0  0  0  0  0999 V2000
    5.6167    0.0719    4.9518 C   0  0  0  0  0  0  0  0  0  0  0  0
    5.5334   -0.2729    3.5741 O   0  0  0  0  0  0  0  0  0  0  0  0
    4.3437   -0.1557    2.9306 C   0  0  0  0  0  0  0  0  0  0  0  0
    3.1655    0.3679    3.5823 C   0  0  0  0  0  0  0  0  0  0  0  0
    1.9519    0.4895    2.8642 C   0  0  0  0  0  0  0  0  0  0  0  0
    1.9415    0.1082    1.5842 N   0  0  0  0  0  0  0  0  0  0  0  0
    2.9973   -0.3769    0.9305 C   0  0  0  0  0  0  0  0  0  0  0  0
    4.2600   -0.5445    1.5500 C   0  0  0  0  0  0  0  0  0  0  0  0
    5.5317   -1.0848    0.9125 C   0  0  0  0  0  0  0  0  0  0  0  0
    5.8526   -1.6213   -0.2120 N   0  0  0  0  0  0  0  0  0  0  0  0
    5.0161   -1.9358   -1.3668 C   0  0  2  0  0  0  0  0  0  0  0  0
    3.8353   -2.9137   -1.0342 C   0  0  0  0  0  0  0  0  0  0  0  0
    3.0018   -3.1442   -2.3207 C   0  0  1  0  0  0  0  0  0  0  0  0
    2.5256   -1.8492   -2.9968 C   0  0  0  0  0  0  0  0  0  0  0  0
    3.7091   -0.9299   -3.3185 C   0  0  2  0  0  0  0  0  0  0  0  0
    4.5444   -1.6614   -4.3433 C   0  0  0  0  0  0  0  0  0  0  0  0
    5.0784   -2.9724   -3.6989 C   0  0  2  0  0  0  0  0  0  0  0  0
    3.8948   -3.8393   -3.3458 C   0  0  0  0  0  0  0  0  0  0  0  0
    5.8888   -2.7045   -2.3944 C   0  0  0  0  0  0  0  0  0  0  0  0
    4.6037   -0.6334   -2.0934 C   0  0  0  0  0  0  0  0  0  0  0  0
    6.6328   -0.0811    5.3064 H   0  0  0  0  0  0  0  0  0  0  0  0
    4.9545   -0.5621    5.5426 H   0  0  0  0  0  0  0  0  0  0  0  0
    5.3643    1.1211    5.1100 H   0  0  0  0  0  0  0  0  0  0  0  0
    3.1883    0.6876    4.6032 H   0  0  0  0  0  0  0  0  0  0  0  0
    1.0306    0.8679    3.2791 H   0  0  0  0  0  0  0  0  0  0  0  0
    2.7145   -0.6278   -0.0845 H   0  0  0  0  0  0  0  0  0  0  0  0
    6.4050   -1.0183    1.5632 H   0  0  0  0  0  0  0  0  0  0  0  0
    4.2612   -3.8658   -0.6700 H   0  0  0  0  0  0  0  0  0  0  0  0
    3.1414   -2.6403   -0.2494 H   0  0  0  0  0  0  0  0  0  0  0  0
    2.1543   -3.7857   -2.0700 H   0  0  0  0  0  0  0  0  0  0  0  0
    1.9332   -2.0988   -3.8885 H   0  0  0  0  0  0  0  0  0  0  0  0
    1.9284   -1.2837   -2.3160 H   0  0  0  0  0  0  0  0  0  0  0  0
    3.3280    0.0019   -3.7469 H   0  0  0  0  0  0  0  0  0  0  0  0
    3.8106   -1.8724   -5.1126 H   0  0  0  0  0  0  0  0  0  0  0  0
    5.3116   -1.0372   -4.7843 H   0  0  0  0  0  0  0  0  0  0  0  0
    5.6543   -3.6053   -4.3612 H   0  0  0  0  0  0  0  0  0  0  0  0
    4.4347   -4.6598   -2.9001 H   0  0  0  0  0  0  0  0  0  0  0  0
    3.3159   -4.1350   -4.2376 H   0  0  0  0  0  0  0  0  0  0  0  0
    6.8089   -2.1962   -2.6338 H   0  0  0  0  0  0  0  0  0  0  0  0
    6.2398   -3.6433   -1.9601 H   0  0  0  0  0  0  0  0  0  0  0  0
    4.1064   -0.0034   -1.4110 H   0  0  0  0  0  0  0  0  0  0  0  0
    5.4638   -0.0163   -2.3675 H   0  0  0  0  0  0  0  0  0  0  0  0
    1.0467    0.1650    1.0437 H   0  0  0  0  0  0  0  0  0  0  0  0
  1  2  1  0
  1 21  1  0
  1 22  1  0
  1 23  1  0
  2  3  1  0
  3  8  2  0
  3  4  1  0
  4  5  2  0
  4 24  1  0
  5  6  1  0
  5 25  1  0
  6  7  2  0
  6 43  1  0
  7  8  1  0
  7 26  1  0
  8  9  1  0
  9 10  2  3
  9 27  1  0
 11 10  1  1
 11 19  1  0
 11 20  1  0
 11 12  1  0
 12 13  1  0
 12 28  1  0
 12 29  1  0
 13 18  1  0
 13 14  1  0
 13 30  1  1
 14 15  1  0
 14 31  1  0
 14 32  1  0
 15 16  1  0
 15 20  1  0
 15 33  1  6
 16 17  1  0
 16 34  1  0
 16 35  1  0
 17 18  1  0
 17 19  1  0
 17 36  1  6
 18 37  1  0
 18 38  1  0
 19 39  1  0
 19 40  1  0
 20 41  1  0
 20 42  1  0
M  CHG  1   6   1
M  END
>  <i_m_ct_stereo_status>  (402) 
1

>  <s_m_source_file>  (402) 
/var/tmp/pbs.5076255.sched01/tmpk5ywl0l3/150lwq6_0yz.sdf

>  <i_m_source_file_index>  (402) 
11

>  <i_lp_mmshare_version>  (402) 
48012

>  <i_f3d_flags>  (402) 
0

>  <s_epik_input>  (402) 
W0NIM11PYzFbY0hdW2NIXW5bY0hdYzEvW0NIXT1OL0MyM1tDSDJdW0NAQEhdNFtDSDJdW0NASF0oW0NIMl0zKVtDSDJdW0NAQEhdKFtDSDJdNClbQ0gyXTI=

>  <s_epik_cmdline>  (402) 
J2VwaWtfcHl0aG9uJywgJy1waHQnLCAnMi4wJywgJy1waCcsICc3LjAnLCAnLXRuJywgJzgnLCAnLW1hJywgJzIwMCcsICctaW1hZScsICc8aW5maWxlLm1hZT4nLCAnLW9tYWUnLCAnPG91dGZpbGUubWFlPic=

>  <r_epik_Ionization_Penalty>  (402) 
2.10282

>  <r_epik_Ionization_Penalty_Charging>  (402) 
2.10282

>  <r_epik_Ionization_Penalty_Neutral>  (402) 
0

>  <r_epik_State_Penalty>  (402) 
2.23912

>  <r_epik_Charging_Adjusted_Penalty>  (402) 
4.34194

>  <i_epik_Tot_Q>  (402) 
1

>  <i_epik_Tot_abs_Q>  (402) 
1

>  <s_epik_Chemistry_Notes>  (402) 
This compound has an imine and may undergo hydrolysis.

>  <s_lp_Force_Field>  (402) 
OPLS3e

>  <r_lp_Energy>  (402) 
45.7622

>  <b_lp_Chiralities_Consistent>  (402) 
1

>  <s_lp_Variant>  (402) 
96:0-4

>  <s_i_glide_gridfile>  (402) 
pfpi4k_grid

>  <i_i_glide_lignum>  (402) 
11

>  <i_i_glide_rotatable_bonds>  (402) 
3

>  <r_i_docking_score>  (402) 
-3.0184

>  <r_i_glide_ligand_efficiency>  (402) 
-0.15092

>  <r_i_glide_ligand_efficiency_sa>  (402) 
-0.40966

>  <r_i_glide_ligand_efficiency_ln>  (402) 
-0.755406

>  <r_i_glide_gscore>  (402) 
-3.0184

>  <r_i_glide_lipo>  (402) 
-0.569759

>  <r_i_glide_hbond>  (402) 
-0.0652205

>  <r_i_glide_metal>  (402) 
-0

>  <r_i_glide_rewards>  (402) 
-1.72047

>  <r_i_glide_evdw>  (402) 
-7.26711

>  <r_i_glide_ecoul>  (402) 
-4.73219

>  <r_i_glide_erotb>  (402) 
0.486191

>  <r_i_glide_esite>  (402) 
-0.0759609

>  <r_i_glide_emodel>  (402) 
-12.8696

>  <r_i_glide_energy>  (402) 
-11.9993

>  <r_i_glide_einternal>  (402) 
0.114824

>  <r_i_glide_intrahb_reward>  (402) 
-0

>  <i_i_glide_confnum>  (402) 
5

>  <i_i_glide_posenum>  (402) 
9

>  <r_i_glide_eff_state_penalty>  (402) 
0

>  <ligand_id>  (402) 
96

>  <original_smiles>  (402) 
COc1ccncc1C=NC12CC3CC(CC(C3)C1)C2

>  <smiles>  (402) 
[H]C(=NC12C([H])([H])C3([H])C([H])([H])C([H])(C([H])([H])C([H])(C3([H])[H])C1([H])[H])C2([H])[H])c1c(OC([H])([H])[H])c([H])c([H])[n+]([H])c1[H]

$$$$
97:0:0
     RDKit          3D

 20 21  0  0  1  0  0  0  0  0999 V2000
   -3.8613    3.6905    2.2554 C   0  0  0  0  0  0  0  0  0  0  0  0
   -2.4774    3.9139    2.8817 C   0  0  0  0  0  0  0  0  0  0  0  0
   -1.8824    2.6585    3.4847 C   0  0  0  0  0  0  0  0  0  0  0  0
   -2.1823    2.1946    4.7192 C   0  0  0  0  0  0  0  0  0  0  0  0
   -1.5511    0.9753    5.1823 C   0  0  0  0  0  0  0  0  0  0  0  0
   -1.7877    0.4146    6.2563 O   0  0  0  0  0  0  0  0  0  0  0  0
   -0.6050    0.3678    4.3046 N   0  0  0  0  0  0  0  0  0  0  0  0
    0.1071   -0.7634    4.5177 N   0  0  0  0  0  0  0  0  0  0  0  0
    0.8489   -0.8844    3.4186 C   0  0  0  0  0  0  0  0  0  0  0  0
    0.6109    0.1493    2.4647 C   0  0  0  0  0  0  0  0  0  0  0  0
   -0.3307    0.9254    3.0784 C   0  0  0  0  0  0  0  0  0  0  0  0
   -0.9617    2.0514    2.6545 O   0  0  0  0  0  0  0  0  0  0  0  0
   -4.2488    4.6203    1.8347 H   0  0  0  0  0  0  0  0  0  0  0  0
   -4.5844    3.3439    2.9917 H   0  0  0  0  0  0  0  0  0  0  0  0
   -3.8203    2.9557    1.4508 H   0  0  0  0  0  0  0  0  0  0  0  0
   -1.7886    4.2987    2.1299 H   0  0  0  0  0  0  0  0  0  0  0  0
   -2.5394    4.6691    3.6613 H   0  0  0  0  0  0  0  0  0  0  0  0
   -2.9149    2.6939    5.3411 H   0  0  0  0  0  0  0  0  0  0  0  0
    1.5220   -1.7278    3.3425 H   0  0  0  0  0  0  0  0  0  0  0  0
    1.0378    0.2998    1.4822 H   0  0  0  0  0  0  0  0  0  0  0  0
  1  2  1  0
  1 13  1  0
  1 14  1  0
  1 15  1  0
  2  3  1  0
  2 16  1  0
  2 17  1  0
  3 12  1  0
  3  4  2  0
  4  5  1  0
  4 18  1  0
  5  6  2  0
  5  7  1  0
  7 11  1  0
  7  8  1  0
  8  9  2  0
  9 10  1  0
  9 19  1  0
 10 11  2  0
 10 20  1  0
 11 12  1  0
M  END
>  <i_m_ct_stereo_status>  (403) 
1

>  <s_m_source_file>  (403) 
/var/tmp/pbs.5076255.sched01/tmpk5ywl0l3/150lwq6_0yz.sdf

>  <i_m_source_file_index>  (403) 
12

>  <i_lp_mmshare_version>  (403) 
48012

>  <i_f3d_flags>  (403) 
0

>  <s_epik_input>  (403) 
Tz1jMVtjSF1jKFtDSDJdW0NIM10pb2MobjEyKVtjSF1bY0hdbjI=

>  <s_epik_cmdline>  (403) 
J2VwaWtfcHl0aG9uJywgJy1waHQnLCAnMi4wJywgJy1waCcsICc3LjAnLCAnLXRuJywgJzgnLCAnLW1hJywgJzIwMCcsICctaW1hZScsICc8aW5maWxlLm1hZT4nLCAnLW9tYWUnLCAnPG91dGZpbGUubWFlPic=

>  <r_lp_tautomer_probability>  (403) 
1

>  <r_epik_Ionization_Penalty>  (403) 
2.73828e-07

>  <r_epik_Ionization_Penalty_Charging>  (403) 
0

>  <r_epik_Ionization_Penalty_Neutral>  (403) 
2.73828e-07

>  <r_epik_State_Penalty>  (403) 
-0

>  <r_epik_Charging_Adjusted_Penalty>  (403) 
0

>  <i_epik_Tot_Q>  (403) 
0

>  <i_epik_Tot_abs_Q>  (403) 
0

>  <s_lp_Force_Field>  (403) 
OPLS3e

>  <r_lp_Energy>  (403) 
6.68147

>  <b_lp_Chiralities_Consistent>  (403) 
1

>  <s_lp_Variant>  (403) 
97:0-1

>  <s_i_glide_gridfile>  (403) 
pfpi4k_grid

>  <i_i_glide_lignum>  (403) 
12

>  <i_i_glide_rotatable_bonds>  (403) 
1

>  <r_i_docking_score>  (403) 
-3.95719

>  <r_i_glide_ligand_efficiency>  (403) 
-0.329766

>  <r_i_glide_ligand_efficiency_sa>  (403) 
-0.754976

>  <r_i_glide_ligand_efficiency_ln>  (403) 
-1.13552

>  <r_i_glide_gscore>  (403) 
-3.95719

>  <r_i_glide_lipo>  (403) 
-0.277355

>  <r_i_glide_hbond>  (403) 
-0.158433

>  <r_i_glide_metal>  (403) 
-0

>  <r_i_glide_rewards>  (403) 
-2.25

>  <r_i_glide_evdw>  (403) 
-16.0345

>  <r_i_glide_ecoul>  (403) 
-3.00127

>  <r_i_glide_erotb>  (403) 
0

>  <r_i_glide_esite>  (403) 
-0.0194913

>  <r_i_glide_emodel>  (403) 
-24.2386

>  <r_i_glide_energy>  (403) 
-19.0357

>  <r_i_glide_einternal>  (403) 
0.0905864

>  <r_i_glide_intrahb_reward>  (403) 
-0

>  <i_i_glide_confnum>  (403) 
2

>  <i_i_glide_posenum>  (403) 
1

>  <r_i_glide_eff_state_penalty>  (403) 
0

>  <ligand_id>  (403) 
97

>  <original_smiles>  (403) 
CCc1cc(=O)n2nccc2o1

>  <smiles>  (403) 
[H]c1nn2c(=O)c([H])c(C([H])([H])C([H])([H])[H])oc2c1[H]

$$$$
97:0:1
     RDKit          3D

 20 21  0  0  1  0  0  0  0  0999 V2000
    3.4090   -0.3846   -4.6938 C   0  0  0  0  0  0  0  0  0  0  0  0
    3.0563   -1.7511   -4.0828 C   0  0  0  0  0  0  0  0  0  0  0  0
    3.5890   -1.9544   -2.6751 C   0  0  0  0  0  0  0  0  0  0  0  0
    4.5200   -1.1733   -2.0767 C   0  0  0  0  0  0  0  0  0  0  0  0
    4.9364   -1.4811   -0.7275 C   0  0  0  0  0  0  0  0  0  0  0  0
    5.8014   -0.8718   -0.0967 O   0  0  0  0  0  0  0  0  0  0  0  0
    4.3154   -2.6007   -0.1034 N   0  0  0  0  0  0  0  0  0  0  0  0
    4.5488   -3.0829    1.1377 N   0  0  0  0  0  0  0  0  0  0  0  0
    3.7341   -4.1286    1.2371 C   0  0  0  0  0  0  0  0  0  0  0  0
    2.9595   -4.3449    0.0576 C   0  0  0  0  0  0  0  0  0  0  0  0
    3.3707   -3.3422   -0.7714 C   0  0  0  0  0  0  0  0  0  0  0  0
    3.0012   -3.0370   -2.0463 O   0  0  0  0  0  0  0  0  0  0  0  0
    3.0118   -0.2805   -5.7025 H   0  0  0  0  0  0  0  0  0  0  0  0
    4.4877   -0.2497   -4.7514 H   0  0  0  0  0  0  0  0  0  0  0  0
    2.9982    0.4271   -4.0925 H   0  0  0  0  0  0  0  0  0  0  0  0
    1.9738   -1.8754   -4.0650 H   0  0  0  0  0  0  0  0  0  0  0  0
    3.4394   -2.5529   -4.7126 H   0  0  0  0  0  0  0  0  0  0  0  0
    4.9644   -0.3227   -2.5728 H   0  0  0  0  0  0  0  0  0  0  0  0
    3.7354   -4.6959    2.1590 H   0  0  0  0  0  0  0  0  0  0  0  0
    2.2351   -5.1161   -0.1566 H   0  0  0  0  0  0  0  0  0  0  0  0
  1  2  1  0
  1 13  1  0
  1 14  1  0
  1 15  1  0
  2  3  1  0
  2 16  1  0
  2 17  1  0
  3 12  1  0
  3  4  2  0
  4  5  1  0
  4 18  1  0
  5  6  2  0
  5  7  1  0
  7 11  1  0
  7  8  1  0
  8  9  2  0
  9 10  1  0
  9 19  1  0
 10 11  2  0
 10 20  1  0
 11 12  1  0
M  END
>  <i_m_ct_stereo_status>  (404) 
1

>  <s_m_source_file>  (404) 
/var/tmp/pbs.5076255.sched01/tmpk5ywl0l3/150lwq6_0yz.sdf

>  <i_m_source_file_index>  (404) 
12

>  <i_lp_mmshare_version>  (404) 
48012

>  <i_f3d_flags>  (404) 
0

>  <s_epik_input>  (404) 
Tz1jMVtjSF1jKFtDSDJdW0NIM10pb2MobjEyKVtjSF1bY0hdbjI=

>  <s_epik_cmdline>  (404) 
J2VwaWtfcHl0aG9uJywgJy1waHQnLCAnMi4wJywgJy1waCcsICc3LjAnLCAnLXRuJywgJzgnLCAnLW1hJywgJzIwMCcsICctaW1hZScsICc8aW5maWxlLm1hZT4nLCAnLW9tYWUnLCAnPG91dGZpbGUubWFlPic=

>  <r_lp_tautomer_probability>  (404) 
1

>  <r_epik_Ionization_Penalty>  (404) 
2.73828e-07

>  <r_epik_Ionization_Penalty_Charging>  (404) 
0

>  <r_epik_Ionization_Penalty_Neutral>  (404) 
2.73828e-07

>  <r_epik_State_Penalty>  (404) 
-0

>  <r_epik_Charging_Adjusted_Penalty>  (404) 
0

>  <i_epik_Tot_Q>  (404) 
0

>  <i_epik_Tot_abs_Q>  (404) 
0

>  <s_lp_Force_Field>  (404) 
OPLS3e

>  <r_lp_Energy>  (404) 
6.68147

>  <b_lp_Chiralities_Consistent>  (404) 
1

>  <s_lp_Variant>  (404) 
97:0-1

>  <s_i_glide_gridfile>  (404) 
pfpi4k_grid

>  <i_i_glide_lignum>  (404) 
12

>  <i_i_glide_rotatable_bonds>  (404) 
1

>  <r_i_docking_score>  (404) 
-3.6541

>  <r_i_glide_ligand_efficiency>  (404) 
-0.304508

>  <r_i_glide_ligand_efficiency_sa>  (404) 
-0.69715

>  <r_i_glide_ligand_efficiency_ln>  (404) 
-1.04855

>  <r_i_glide_gscore>  (404) 
-3.6541

>  <r_i_glide_lipo>  (404) 
-0.4333

>  <r_i_glide_hbond>  (404) 
0

>  <r_i_glide_metal>  (404) 
-0

>  <r_i_glide_rewards>  (404) 
-2.25

>  <r_i_glide_evdw>  (404) 
-19.5696

>  <r_i_glide_ecoul>  (404) 
0.0959218

>  <r_i_glide_erotb>  (404) 
0

>  <r_i_glide_esite>  (404) 
-0.0067075

>  <r_i_glide_emodel>  (404) 
-24.0789

>  <r_i_glide_energy>  (404) 
-19.4737

>  <r_i_glide_einternal>  (404) 
0.434773

>  <r_i_glide_intrahb_reward>  (404) 
-0

>  <i_i_glide_confnum>  (404) 
1

>  <i_i_glide_posenum>  (404) 
32

>  <r_i_glide_eff_state_penalty>  (404) 
0

>  <ligand_id>  (404) 
97

>  <original_smiles>  (404) 
CCc1cc(=O)n2nccc2o1

>  <smiles>  (404) 
[H]c1nn2c(=O)c([H])c(C([H])([H])C([H])([H])[H])oc2c1[H]

$$$$
97:0:2
     RDKit          3D

 20 21  0  0  1  0  0  0  0  0999 V2000
    3.5309    0.6940   -5.0478 C   0  0  0  0  0  0  0  0  0  0  0  0
    3.0344   -0.7109   -4.6986 C   0  0  0  0  0  0  0  0  0  0  0  0
    3.4398   -1.2142   -3.3286 C   0  0  0  0  0  0  0  0  0  0  0  0
    4.4165   -0.6824   -2.5646 C   0  0  0  0  0  0  0  0  0  0  0  0
    4.7003   -1.2705   -1.2756 C   0  0  0  0  0  0  0  0  0  0  0  0
    5.6095   -0.9146   -0.5294 O   0  0  0  0  0  0  0  0  0  0  0  0
    3.8888   -2.3615   -0.8651 N   0  0  0  0  0  0  0  0  0  0  0  0
    3.9675   -3.0499    0.2924 N   0  0  0  0  0  0  0  0  0  0  0  0
    3.0032   -3.9573    0.1918 C   0  0  0  0  0  0  0  0  0  0  0  0
    2.2782   -3.8581   -1.0387 C   0  0  0  0  0  0  0  0  0  0  0  0
    2.8989   -2.8367   -1.6923 C   0  0  0  0  0  0  0  0  0  0  0  0
    2.6711   -2.2955   -2.9214 O   0  0  0  0  0  0  0  0  0  0  0  0
    3.1967    0.9889   -6.0420 H   0  0  0  0  0  0  0  0  0  0  0  0
    4.6113    0.7680   -5.0325 H   0  0  0  0  0  0  0  0  0  0  0  0
    3.1369    1.4029   -4.3275 H   0  0  0  0  0  0  0  0  0  0  0  0
    1.9491   -0.7252   -4.7585 H   0  0  0  0  0  0  0  0  0  0  0  0
    3.4134   -1.4109   -5.4374 H   0  0  0  0  0  0  0  0  0  0  0  0
    4.9997    0.1745   -2.8829 H   0  0  0  0  0  0  0  0  0  0  0  0
    2.8656   -4.6438    1.0145 H   0  0  0  0  0  0  0  0  0  0  0  0
    1.4629   -4.4464   -1.4279 H   0  0  0  0  0  0  0  0  0  0  0  0
  1  2  1  0
  1 13  1  0
  1 14  1  0
  1 15  1  0
  2  3  1  0
  2 16  1  0
  2 17  1  0
  3 12  1  0
  3  4  2  0
  4  5  1  0
  4 18  1  0
  5  6  2  0
  5  7  1  0
  7 11  1  0
  7  8  1  0
  8  9  2  0
  9 10  1  0
  9 19  1  0
 10 11  2  0
 10 20  1  0
 11 12  1  0
M  END
>  <i_m_ct_stereo_status>  (405) 
1

>  <s_m_source_file>  (405) 
/var/tmp/pbs.5076255.sched01/tmpk5ywl0l3/150lwq6_0yz.sdf

>  <i_m_source_file_index>  (405) 
12

>  <i_lp_mmshare_version>  (405) 
48012

>  <i_f3d_flags>  (405) 
0

>  <s_epik_input>  (405) 
Tz1jMVtjSF1jKFtDSDJdW0NIM10pb2MobjEyKVtjSF1bY0hdbjI=

>  <s_epik_cmdline>  (405) 
J2VwaWtfcHl0aG9uJywgJy1waHQnLCAnMi4wJywgJy1waCcsICc3LjAnLCAnLXRuJywgJzgnLCAnLW1hJywgJzIwMCcsICctaW1hZScsICc8aW5maWxlLm1hZT4nLCAnLW9tYWUnLCAnPG91dGZpbGUubWFlPic=

>  <r_lp_tautomer_probability>  (405) 
1

>  <r_epik_Ionization_Penalty>  (405) 
2.73828e-07

>  <r_epik_Ionization_Penalty_Charging>  (405) 
0

>  <r_epik_Ionization_Penalty_Neutral>  (405) 
2.73828e-07

>  <r_epik_State_Penalty>  (405) 
-0

>  <r_epik_Charging_Adjusted_Penalty>  (405) 
0

>  <i_epik_Tot_Q>  (405) 
0

>  <i_epik_Tot_abs_Q>  (405) 
0

>  <s_lp_Force_Field>  (405) 
OPLS3e

>  <r_lp_Energy>  (405) 
6.68147

>  <b_lp_Chiralities_Consistent>  (405) 
1

>  <s_lp_Variant>  (405) 
97:0-1

>  <s_i_glide_gridfile>  (405) 
pfpi4k_grid

>  <i_i_glide_lignum>  (405) 
12

>  <i_i_glide_rotatable_bonds>  (405) 
1

>  <r_i_docking_score>  (405) 
-3.55084

>  <r_i_glide_ligand_efficiency>  (405) 
-0.295903

>  <r_i_glide_ligand_efficiency_sa>  (405) 
-0.677449

>  <r_i_glide_ligand_efficiency_ln>  (405) 
-1.01892

>  <r_i_glide_gscore>  (405) 
-3.55084

>  <r_i_glide_lipo>  (405) 
-0.365711

>  <r_i_glide_hbond>  (405) 
0

>  <r_i_glide_metal>  (405) 
-0

>  <r_i_glide_rewards>  (405) 
-2.25

>  <r_i_glide_evdw>  (405) 
-17.0302

>  <r_i_glide_ecoul>  (405) 
-0.325735

>  <r_i_glide_erotb>  (405) 
0

>  <r_i_glide_esite>  (405) 
-0.0347569

>  <r_i_glide_emodel>  (405) 
-21.798

>  <r_i_glide_energy>  (405) 
-17.356

>  <r_i_glide_einternal>  (405) 
0.430521

>  <r_i_glide_intrahb_reward>  (405) 
-0

>  <i_i_glide_confnum>  (405) 
1

>  <i_i_glide_posenum>  (405) 
24

>  <r_i_glide_eff_state_penalty>  (405) 
0

>  <ligand_id>  (405) 
97

>  <original_smiles>  (405) 
CCc1cc(=O)n2nccc2o1

>  <smiles>  (405) 
[H]c1nn2c(=O)c([H])c(C([H])([H])C([H])([H])[H])oc2c1[H]

$$$$
99:0:0
     RDKit          3D

 46 51  0  0  1  0  0  0  0  0999 V2000
    2.7849   -6.8436    4.1395 C   0  0  0  0  0  0  0  0  0  0  0  0
    2.9865   -5.4908    3.5630 N   0  0  1  0  0  0  0  0  0  0  0  0
    3.0409   -4.3744    4.5635 C   0  0  0  0  0  0  0  0  0  0  0  0
    4.1391   -3.3636    4.0633 C   0  0  0  0  0  0  0  0  0  0  0  0
    4.3192   -3.7701    2.5777 C   0  0  2  0  0  0  0  0  0  0  0  0
    5.6304   -3.7729    1.8464 C   0  0  0  0  0  0  0  0  0  0  0  0
    5.9974   -5.0326    1.3555 C   0  0  0  0  0  0  0  0  0  0  0  0
    7.1313   -5.1039    0.5218 C   0  0  0  0  0  0  0  0  0  0  0  0
    7.7944   -3.8946    0.1872 C   0  0  0  0  0  0  0  0  0  0  0  0
    7.3000   -2.6371    0.6126 C   0  0  0  0  0  0  0  0  0  0  0  0
    7.8896   -1.4862    0.1816 O   0  0  0  0  0  0  0  0  0  0  0  0
    6.1534   -2.5499    1.4395 C   0  0  0  0  0  0  0  0  0  0  0  0
    5.4063   -1.4194    1.6271 O   0  0  0  0  0  0  0  0  0  0  0  0
    4.0422   -1.6061    1.1719 C   0  0  1  0  0  0  0  0  0  0  0  0
    3.9881   -1.6941   -0.3440 C   0  0  0  0  0  0  0  0  0  0  0  0
    4.4959   -0.7557   -1.2553 C   0  0  0  0  0  0  0  0  0  0  0  0
    4.3363   -0.9920   -2.6421 C   0  0  0  0  0  0  0  0  0  0  0  0
    3.6867   -2.1577   -3.1024 C   0  0  0  0  0  0  0  0  0  0  0  0
    3.1805   -3.0879   -2.1743 C   0  0  0  0  0  0  0  0  0  0  0  0
    3.3653   -2.8442   -0.7984 C   0  0  0  0  0  0  0  0  0  0  0  0
    2.9384   -3.6597    0.3402 C   0  0  0  0  0  0  0  0  0  0  0  0
    2.2723   -4.6985    0.3131 O   0  0  0  0  0  0  0  0  0  0  0  0
    3.3417   -2.9467    1.6531 C   0  0  1  0  0  0  0  0  0  0  0  0
    2.1409   -2.6151    2.3353 O   0  0  0  0  0  0  0  0  0  0  0  0
    4.8902   -6.0292    1.7149 C   0  0  0  0  0  0  0  0  0  0  0  0
    4.2431   -5.2560    2.8541 C   0  0  2  0  0  0  0  0  0  0  0  0
    3.5620   -7.0964    4.8650 H   0  0  0  0  0  0  0  0  0  0  0  0
    2.7886   -7.6011    3.3591 H   0  0  0  0  0  0  0  0  0  0  0  0
    1.8240   -6.9044    4.6497 H   0  0  0  0  0  0  0  0  0  0  0  0
    2.0598   -3.9175    4.6633 H   0  0  0  0  0  0  0  0  0  0  0  0
    3.3030   -4.7501    5.5546 H   0  0  0  0  0  0  0  0  0  0  0  0
    3.8498   -2.3191    4.2043 H   0  0  0  0  0  0  0  0  0  0  0  0
    5.0588   -3.5130    4.6324 H   0  0  0  0  0  0  0  0  0  0  0  0
    7.4363   -6.0487    0.0945 H   0  0  0  0  0  0  0  0  0  0  0  0
    8.6422   -3.9244   -0.4807 H   0  0  0  0  0  0  0  0  0  0  0  0
    7.6622   -0.7399    0.7211 H   0  0  0  0  0  0  0  0  0  0  0  0
    3.4749   -0.7351    1.5011 H   0  0  0  0  0  0  0  0  0  0  0  0
    4.9706    0.1392   -0.8855 H   0  0  0  0  0  0  0  0  0  0  0  0
    4.6915   -0.2687   -3.3589 H   0  0  0  0  0  0  0  0  0  0  0  0
    3.5702   -2.3386   -4.1645 H   0  0  0  0  0  0  0  0  0  0  0  0
    2.6611   -3.9651   -2.5201 H   0  0  0  0  0  0  0  0  0  0  0  0
    1.6503   -2.0163    1.7890 H   0  0  0  0  0  0  0  0  0  0  0  0
    4.2176   -6.1593    0.8677 H   0  0  0  0  0  0  0  0  0  0  0  0
    5.2837   -7.0040    2.0131 H   0  0  0  0  0  0  0  0  0  0  0  0
    4.9755   -5.4985    3.6316 H   0  0  0  0  0  0  0  0  0  0  0  0
    2.2347   -5.2951    2.9142 H   0  0  0  0  0  0  0  0  0  0  0  0
  1  2  1  0
  1 27  1  0
  1 28  1  0
  1 29  1  0
  2 26  1  0
  2  3  1  0
  2 46  1  6
  3  4  1  0
  3 30  1  0
  3 31  1  0
  5  4  1  1
  4 32  1  0
  4 33  1  0
  5 23  1  0
  5 26  1  0
  5  6  1  0
  6 12  1  0
  6  7  2  0
  7  8  1  0
  7 25  1  0
  8  9  2  0
  8 34  1  0
  9 10  1  0
  9 35  1  0
 10 11  1  0
 10 12  2  0
 11 36  1  0
 12 13  1  0
 13 14  1  0
 14 23  1  0
 14 15  1  0
 14 37  1  1
 15 20  2  0
 15 16  1  0
 16 17  2  0
 16 38  1  0
 17 18  1  0
 17 39  1  0
 18 19  2  0
 18 40  1  0
 19 20  1  0
 19 41  1  0
 20 21  1  0
 21 22  2  0
 21 23  1  0
 23 24  1  1
 24 42  1  0
 25 26  1  0
 25 43  1  0
 25 44  1  0
 26 45  1  1
M  CHG  1   2   1
M  END
>  <i_m_ct_stereo_status>  (406) 
1

>  <s_m_source_file>  (406) 
/var/tmp/pbs.5076255.sched01/tmpk5ywl0l3/150lwq6_0yz.sdf

>  <i_m_source_file_index>  (406) 
14

>  <i_lp_mmshare_version>  (406) 
48012

>  <i_f3d_flags>  (406) 
0

>  <s_epik_input>  (406) 
W0NIMl0xW0NIMl1OKFtDSDNdKVtDQEhdMltDSDJdYyhjM1tDQF0xMjQpW2NIXVtjSF1jKFtPSF0pYzNPW0NASF01YzZjKEMoPU8pW0NAQF00NVtPSF0pW2NIXVtjSF1bY0hdW2NIXTY=

>  <s_epik_cmdline>  (406) 
J2VwaWtfcHl0aG9uJywgJy1waHQnLCAnMi4wJywgJy1waCcsICc3LjAnLCAnLXRuJywgJzgnLCAnLW1hJywgJzIwMCcsICctaW1hZScsICc8aW5maWxlLm1hZT4nLCAnLW9tYWUnLCAnPG91dGZpbGUubWFlPic=

>  <r_lp_tautomer_probability>  (406) 
1

>  <r_epik_Ionization_Penalty>  (406) 
0.0353495

>  <r_epik_Ionization_Penalty_Charging>  (406) 
0.0288489

>  <r_epik_Ionization_Penalty_Neutral>  (406) 
0.00650061

>  <r_epik_State_Penalty>  (406) 
0.0282713

>  <r_epik_Charging_Adjusted_Penalty>  (406) 
0.0571202

>  <i_epik_Tot_Q>  (406) 
1

>  <i_epik_Tot_abs_Q>  (406) 
1

>  <s_lp_Force_Field>  (406) 
OPLS3e

>  <r_lp_Energy>  (406) 
87.3749

>  <b_lp_Chiralities_Consistent>  (406) 
1

>  <s_lp_Variant>  (406) 
99:0-1

>  <s_i_glide_gridfile>  (406) 
pfpi4k_grid

>  <i_i_glide_lignum>  (406) 
14

>  <i_i_glide_rotatable_bonds>  (406) 
2

>  <r_i_docking_score>  (406) 
-3.6988

>  <r_i_glide_ligand_efficiency>  (406) 
-0.142262

>  <r_i_glide_ligand_efficiency_sa>  (406) 
-0.42145

>  <r_i_glide_ligand_efficiency_ln>  (406) 
-0.868652

>  <r_i_glide_gscore>  (406) 
-3.6988

>  <r_i_glide_lipo>  (406) 
-0.781073

>  <r_i_glide_hbond>  (406) 
-0.00750096

>  <r_i_glide_metal>  (406) 
-0

>  <r_i_glide_rewards>  (406) 
-1.02008

>  <r_i_glide_evdw>  (406) 
-19.0143

>  <r_i_glide_ecoul>  (406) 
-6.13933

>  <r_i_glide_erotb>  (406) 
0

>  <r_i_glide_esite>  (406) 
-0.0185309

>  <r_i_glide_emodel>  (406) 
-30.2921

>  <r_i_glide_energy>  (406) 
-25.1536

>  <r_i_glide_einternal>  (406) 
2.15492

>  <r_i_glide_intrahb_reward>  (406) 
-0

>  <i_i_glide_confnum>  (406) 
1

>  <i_i_glide_posenum>  (406) 
18

>  <r_i_glide_eff_state_penalty>  (406) 
0

>  <ligand_id>  (406) 
99

>  <original_smiles>  (406) 
CN1CCC23c4c(ccc(O)c4OC4c5ccccc5C(=O)C42O)CC13

>  <smiles>  (406) 
[H]Oc1c([H])c([H])c2c3c1OC1([H])c4c([H])c([H])c([H])c([H])c4C(=O)C1(O[H])C31C([H])([H])C([H])([H])[N+]([H])(C([H])([H])[H])C1([H])C2([H])[H]

$$$$
99:0:1
     RDKit          3D

 46 51  0  0  1  0  0  0  0  0999 V2000
    3.0489   -7.4735    3.8722 C   0  0  0  0  0  0  0  0  0  0  0  0
    3.1731   -6.0611    3.4376 N   0  0  1  0  0  0  0  0  0  0  0  0
    3.1675   -5.0573    4.5502 C   0  0  0  0  0  0  0  0  0  0  0  0
    4.2070   -3.9355    4.1628 C   0  0  0  0  0  0  0  0  0  0  0  0
    4.4072   -4.1730    2.6406 C   0  0  2  0  0  0  0  0  0  0  0  0
    5.7143   -4.0349    1.9173 C   0  0  0  0  0  0  0  0  0  0  0  0
    6.1544   -5.2148    1.3020 C   0  0  0  0  0  0  0  0  0  0  0  0
    7.2944   -5.1416    0.4870 C   0  0  0  0  0  0  0  0  0  0  0  0
    7.8828   -3.8695    0.2652 C   0  0  0  0  0  0  0  0  0  0  0  0
    7.3060   -2.6865    0.8054 C   0  0  0  0  0  0  0  0  0  0  0  0
    7.8259   -1.4662    0.4797 O   0  0  0  0  0  0  0  0  0  0  0  0
    6.1655   -2.7488    1.6413 C   0  0  0  0  0  0  0  0  0  0  0  0
    5.3575   -1.6860    1.9487 O   0  0  0  0  0  0  0  0  0  0  0  0
    4.0083   -1.8915    1.4679 C   0  0  1  0  0  0  0  0  0  0  0  0
    3.9622   -1.8258   -0.0469 C   0  0  0  0  0  0  0  0  0  0  0  0
    4.4228   -0.7689   -0.8501 C   0  0  0  0  0  0  0  0  0  0  0  0
    4.2879   -0.8720   -2.2566 C   0  0  0  0  0  0  0  0  0  0  0  0
    3.6943   -2.0144   -2.8397 C   0  0  0  0  0  0  0  0  0  0  0  0
    3.2361   -3.0630   -2.0182 C   0  0  0  0  0  0  0  0  0  0  0  0
    3.3984   -2.9579   -0.6229 C   0  0  0  0  0  0  0  0  0  0  0  0
    3.0121   -3.9038    0.4247 C   0  0  0  0  0  0  0  0  0  0  0  0
    2.4080   -4.9757    0.2967 O   0  0  0  0  0  0  0  0  0  0  0  0
    3.3776   -3.3138    1.8048 C   0  0  1  0  0  0  0  0  0  0  0  0
    2.1591   -3.1438    2.5093 O   0  0  0  0  0  0  0  0  0  0  0  0
    5.0999   -6.3011    1.5557 C   0  0  0  0  0  0  0  0  0  0  0  0
    4.4118   -5.6819    2.7613 C   0  0  2  0  0  0  0  0  0  0  0  0
    3.8374   -7.7594    4.5721 H   0  0  0  0  0  0  0  0  0  0  0  0
    3.0892   -8.1444    3.0148 H   0  0  0  0  0  0  0  0  0  0  0  0
    2.0892   -7.6343    4.3681 H   0  0  0  0  0  0  0  0  0  0  0  0
    2.1615   -4.6637    4.6926 H   0  0  0  0  0  0  0  0  0  0  0  0
    3.4528   -5.5118    5.5009 H   0  0  0  0  0  0  0  0  0  0  0  0
    3.8703   -2.9275    4.4169 H   0  0  0  0  0  0  0  0  0  0  0  0
    5.1376   -4.1010    4.7147 H   0  0  0  0  0  0  0  0  0  0  0  0
    7.6647   -6.0309   -0.0002 H   0  0  0  0  0  0  0  0  0  0  0  0
    8.7297   -3.7803   -0.3903 H   0  0  0  0  0  0  0  0  0  0  0  0
    7.5167   -0.7640    1.0376 H   0  0  0  0  0  0  0  0  0  0  0  0
    3.3844   -1.0943    1.8776 H   0  0  0  0  0  0  0  0  0  0  0  0
    4.8469    0.1085   -0.3841 H   0  0  0  0  0  0  0  0  0  0  0  0
    4.6155   -0.0606   -2.8899 H   0  0  0  0  0  0  0  0  0  0  0  0
    3.5804   -2.0861   -3.9119 H   0  0  0  0  0  0  0  0  0  0  0  0
    2.7580   -3.9192   -2.4601 H   0  0  0  0  0  0  0  0  0  0  0  0
    2.3322   -2.6785    3.3116 H   0  0  0  0  0  0  0  0  0  0  0  0
    4.4386   -6.3826    0.6933 H   0  0  0  0  0  0  0  0  0  0  0  0
    5.5485   -7.2756    1.7589 H   0  0  0  0  0  0  0  0  0  0  0  0
    5.1632   -5.9590    3.5095 H   0  0  0  0  0  0  0  0  0  0  0  0
    2.4091   -5.8388    2.8093 H   0  0  0  0  0  0  0  0  0  0  0  0
  1  2  1  0
  1 27  1  0
  1 28  1  0
  1 29  1  0
  2 26  1  0
  2  3  1  0
  2 46  1  6
  3  4  1  0
  3 30  1  0
  3 31  1  0
  5  4  1  1
  4 32  1  0
  4 33  1  0
  5 23  1  0
  5 26  1  0
  5  6  1  0
  6 12  1  0
  6  7  2  0
  7  8  1  0
  7 25  1  0
  8  9  2  0
  8 34  1  0
  9 10  1  0
  9 35  1  0
 10 11  1  0
 10 12  2  0
 11 36  1  0
 12 13  1  0
 13 14  1  0
 14 23  1  0
 14 15  1  0
 14 37  1  1
 15 20  2  0
 15 16  1  0
 16 17  2  0
 16 38  1  0
 17 18  1  0
 17 39  1  0
 18 19  2  0
 18 40  1  0
 19 20  1  0
 19 41  1  0
 20 21  1  0
 21 22  2  0
 21 23  1  0
 23 24  1  1
 24 42  1  0
 25 26  1  0
 25 43  1  0
 25 44  1  0
 26 45  1  1
M  CHG  1   2   1
M  END
>  <i_m_ct_stereo_status>  (407) 
1

>  <s_m_source_file>  (407) 
/var/tmp/pbs.5076255.sched01/tmpk5ywl0l3/150lwq6_0yz.sdf

>  <i_m_source_file_index>  (407) 
14

>  <i_lp_mmshare_version>  (407) 
48012

>  <i_f3d_flags>  (407) 
0

>  <s_epik_input>  (407) 
W0NIMl0xW0NIMl1OKFtDSDNdKVtDQEhdMltDSDJdYyhjM1tDQF0xMjQpW2NIXVtjSF1jKFtPSF0pYzNPW0NASF01YzZjKEMoPU8pW0NAQF00NVtPSF0pW2NIXVtjSF1bY0hdW2NIXTY=

>  <s_epik_cmdline>  (407) 
J2VwaWtfcHl0aG9uJywgJy1waHQnLCAnMi4wJywgJy1waCcsICc3LjAnLCAnLXRuJywgJzgnLCAnLW1hJywgJzIwMCcsICctaW1hZScsICc8aW5maWxlLm1hZT4nLCAnLW9tYWUnLCAnPG91dGZpbGUubWFlPic=

>  <r_lp_tautomer_probability>  (407) 
1

>  <r_epik_Ionization_Penalty>  (407) 
0.0353495

>  <r_epik_Ionization_Penalty_Charging>  (407) 
0.0288489

>  <r_epik_Ionization_Penalty_Neutral>  (407) 
0.00650061

>  <r_epik_State_Penalty>  (407) 
0.0282713

>  <r_epik_Charging_Adjusted_Penalty>  (407) 
0.0571202

>  <i_epik_Tot_Q>  (407) 
1

>  <i_epik_Tot_abs_Q>  (407) 
1

>  <s_lp_Force_Field>  (407) 
OPLS3e

>  <r_lp_Energy>  (407) 
87.3749

>  <b_lp_Chiralities_Consistent>  (407) 
1

>  <s_lp_Variant>  (407) 
99:0-1

>  <s_i_glide_gridfile>  (407) 
pfpi4k_grid

>  <i_i_glide_lignum>  (407) 
14

>  <i_i_glide_rotatable_bonds>  (407) 
2

>  <r_i_docking_score>  (407) 
-3.31053

>  <r_i_glide_ligand_efficiency>  (407) 
-0.127328

>  <r_i_glide_ligand_efficiency_sa>  (407) 
-0.377209

>  <r_i_glide_ligand_efficiency_ln>  (407) 
-0.777466

>  <r_i_glide_gscore>  (407) 
-3.31053

>  <r_i_glide_lipo>  (407) 
-0.6867

>  <r_i_glide_hbond>  (407) 
0

>  <r_i_glide_metal>  (407) 
-0

>  <r_i_glide_rewards>  (407) 
-1.02008

>  <r_i_glide_evdw>  (407) 
-20.2224

>  <r_i_glide_ecoul>  (407) 
-3.846

>  <r_i_glide_erotb>  (407) 
0

>  <r_i_glide_esite>  (407) 
-0.0157243

>  <r_i_glide_emodel>  (407) 
-29.5487

>  <r_i_glide_energy>  (407) 
-24.0684

>  <r_i_glide_einternal>  (407) 
0.206988

>  <r_i_glide_intrahb_reward>  (407) 
-0

>  <i_i_glide_confnum>  (407) 
1

>  <i_i_glide_posenum>  (407) 
8

>  <r_i_glide_eff_state_penalty>  (407) 
0

>  <ligand_id>  (407) 
99

>  <original_smiles>  (407) 
CN1CCC23c4c(ccc(O)c4OC4c5ccccc5C(=O)C42O)CC13

>  <smiles>  (407) 
[H]Oc1c([H])c([H])c2c3c1OC1([H])c4c([H])c([H])c([H])c([H])c4C(=O)C1(O[H])C31C([H])([H])C([H])([H])[N+]([H])(C([H])([H])[H])C1([H])C2([H])[H]

$$$$
99:0:2
     RDKit          3D

 46 51  0  0  1  0  0  0  0  0999 V2000
    2.9274   -6.5390    4.5697 C   0  0  0  0  0  0  0  0  0  0  0  0
    3.1652   -5.2540    3.8655 N   0  0  1  0  0  0  0  0  0  0  0  0
    3.3591   -4.0704    4.7648 C   0  0  0  0  0  0  0  0  0  0  0  0
    4.4786   -3.1732    4.1082 C   0  0  0  0  0  0  0  0  0  0  0  0
    4.5287   -3.7054    2.6475 C   0  0  2  0  0  0  0  0  0  0  0  0
    5.7816   -3.8609    1.8335 C   0  0  0  0  0  0  0  0  0  0  0  0
    6.0432   -5.1805    1.4378 C   0  0  0  0  0  0  0  0  0  0  0  0
    7.1171   -5.3895    0.5603 C   0  0  0  0  0  0  0  0  0  0  0  0
    7.8406   -4.2634    0.0931 C   0  0  0  0  0  0  0  0  0  0  0  0
    7.4459   -2.9420    0.4214 C   0  0  0  0  0  0  0  0  0  0  0  0
    8.0869   -1.8926   -0.1742 O   0  0  0  0  0  0  0  0  0  0  0  0
    6.3501   -2.7122    1.2873 C   0  0  0  0  0  0  0  0  0  0  0  0
    5.6806   -1.5251    1.4344 O   0  0  0  0  0  0  0  0  0  0  0  0
    4.2816   -1.6458    1.0869 C   0  0  1  0  0  0  0  0  0  0  0  0
    4.1161   -1.8566   -0.4048 C   0  0  0  0  0  0  0  0  0  0  0  0
    4.6180   -1.0387   -1.4290 C   0  0  0  0  0  0  0  0  0  0  0  0
    4.3486   -1.3766   -2.7738 C   0  0  0  0  0  0  0  0  0  0  0  0
    3.5930   -2.5293   -3.0830 C   0  0  0  0  0  0  0  0  0  0  0  0
    3.0948   -3.3412   -2.0424 C   0  0  0  0  0  0  0  0  0  0  0  0
    3.3926   -2.9980   -0.7126 C   0  0  0  0  0  0  0  0  0  0  0  0
    3.0039   -3.6844    0.5129 C   0  0  0  0  0  0  0  0  0  0  0  0
    2.3047   -4.6993    0.6178 O   0  0  0  0  0  0  0  0  0  0  0  0
    3.5289   -2.8951    1.7295 C   0  0  1  0  0  0  0  0  0  0  0  0
    2.3915   -2.4524    2.4548 O   0  0  0  0  0  0  0  0  0  0  0  0
    4.9010   -6.0662    1.9522 C   0  0  0  0  0  0  0  0  0  0  0  0
    4.3801   -5.1572    3.0551 C   0  0  2  0  0  0  0  0  0  0  0  0
    3.7358   -6.7848    5.2640 H   0  0  0  0  0  0  0  0  0  0  0  0
    2.8255   -7.3548    3.8531 H   0  0  0  0  0  0  0  0  0  0  0  0
    1.9979   -6.4859    5.1422 H   0  0  0  0  0  0  0  0  0  0  0  0
    2.4161   -3.5372    4.8847 H   0  0  0  0  0  0  0  0  0  0  0  0
    3.6710   -4.3739    5.7662 H   0  0  0  0  0  0  0  0  0  0  0  0
    4.2749   -2.1022    4.1848 H   0  0  0  0  0  0  0  0  0  0  0  0
    5.4288   -3.3489    4.6247 H   0  0  0  0  0  0  0  0  0  0  0  0
    7.3353   -6.3808    0.1892 H   0  0  0  0  0  0  0  0  0  0  0  0
    8.6311   -4.4158   -0.6205 H   0  0  0  0  0  0  0  0  0  0  0  0
    8.8828   -2.1429   -0.6266 H   0  0  0  0  0  0  0  0  0  0  0  0
    3.7809   -0.7169    1.3736 H   0  0  0  0  0  0  0  0  0  0  0  0
    5.2008   -0.1754   -1.1731 H   0  0  0  0  0  0  0  0  0  0  0  0
    4.7151   -0.7437   -3.5683 H   0  0  0  0  0  0  0  0  0  0  0  0
    3.3951   -2.7846   -4.1136 H   0  0  0  0  0  0  0  0  0  0  0  0
    2.4804   -4.2014   -2.2528 H   0  0  0  0  0  0  0  0  0  0  0  0
    2.6716   -1.8301    3.1065 H   0  0  0  0  0  0  0  0  0  0  0  0
    4.1662   -6.2295    1.1639 H   0  0  0  0  0  0  0  0  0  0  0  0
    5.2533   -7.0340    2.3164 H   0  0  0  0  0  0  0  0  0  0  0  0
    5.1571   -5.3803    3.7961 H   0  0  0  0  0  0  0  0  0  0  0  0
    2.3811   -5.0550    3.2525 H   0  0  0  0  0  0  0  0  0  0  0  0
  1  2  1  0
  1 27  1  0
  1 28  1  0
  1 29  1  0
  2 26  1  0
  2  3  1  0
  2 46  1  6
  3  4  1  0
  3 30  1  0
  3 31  1  0
  5  4  1  1
  4 32  1  0
  4 33  1  0
  5 23  1  0
  5 26  1  0
  5  6  1  0
  6 12  1  0
  6  7  2  0
  7  8  1  0
  7 25  1  0
  8  9  2  0
  8 34  1  0
  9 10  1  0
  9 35  1  0
 10 11  1  0
 10 12  2  0
 11 36  1  0
 12 13  1  0
 13 14  1  0
 14 23  1  0
 14 15  1  0
 14 37  1  1
 15 20  2  0
 15 16  1  0
 16 17  2  0
 16 38  1  0
 17 18  1  0
 17 39  1  0
 18 19  2  0
 18 40  1  0
 19 20  1  0
 19 41  1  0
 20 21  1  0
 21 22  2  0
 21 23  1  0
 23 24  1  1
 24 42  1  0
 25 26  1  0
 25 43  1  0
 25 44  1  0
 26 45  1  1
M  CHG  1   2   1
M  END
>  <i_m_ct_stereo_status>  (408) 
1

>  <s_m_source_file>  (408) 
/var/tmp/pbs.5076255.sched01/tmpk5ywl0l3/150lwq6_0yz.sdf

>  <i_m_source_file_index>  (408) 
14

>  <i_lp_mmshare_version>  (408) 
48012

>  <i_f3d_flags>  (408) 
0

>  <s_epik_input>  (408) 
W0NIMl0xW0NIMl1OKFtDSDNdKVtDQEhdMltDSDJdYyhjM1tDQF0xMjQpW2NIXVtjSF1jKFtPSF0pYzNPW0NASF01YzZjKEMoPU8pW0NAQF00NVtPSF0pW2NIXVtjSF1bY0hdW2NIXTY=

>  <s_epik_cmdline>  (408) 
J2VwaWtfcHl0aG9uJywgJy1waHQnLCAnMi4wJywgJy1waCcsICc3LjAnLCAnLXRuJywgJzgnLCAnLW1hJywgJzIwMCcsICctaW1hZScsICc8aW5maWxlLm1hZT4nLCAnLW9tYWUnLCAnPG91dGZpbGUubWFlPic=

>  <r_lp_tautomer_probability>  (408) 
1

>  <r_epik_Ionization_Penalty>  (408) 
0.0353495

>  <r_epik_Ionization_Penalty_Charging>  (408) 
0.0288489

>  <r_epik_Ionization_Penalty_Neutral>  (408) 
0.00650061

>  <r_epik_State_Penalty>  (408) 
0.0282713

>  <r_epik_Charging_Adjusted_Penalty>  (408) 
0.0571202

>  <i_epik_Tot_Q>  (408) 
1

>  <i_epik_Tot_abs_Q>  (408) 
1

>  <s_lp_Force_Field>  (408) 
OPLS3e

>  <r_lp_Energy>  (408) 
87.3749

>  <b_lp_Chiralities_Consistent>  (408) 
1

>  <s_lp_Variant>  (408) 
99:0-1

>  <s_i_glide_gridfile>  (408) 
pfpi4k_grid

>  <i_i_glide_lignum>  (408) 
14

>  <i_i_glide_rotatable_bonds>  (408) 
2

>  <r_i_docking_score>  (408) 
-3.30165

>  <r_i_glide_ligand_efficiency>  (408) 
-0.126987

>  <r_i_glide_ligand_efficiency_sa>  (408) 
-0.376197

>  <r_i_glide_ligand_efficiency_ln>  (408) 
-0.775382

>  <r_i_glide_gscore>  (408) 
-3.30165

>  <r_i_glide_lipo>  (408) 
-0.77124

>  <r_i_glide_hbond>  (408) 
-0.00743996

>  <r_i_glide_metal>  (408) 
-0

>  <r_i_glide_rewards>  (408) 
-1.02008

>  <r_i_glide_evdw>  (408) 
-19.927

>  <r_i_glide_ecoul>  (408) 
-3.28166

>  <r_i_glide_erotb>  (408) 
0

>  <r_i_glide_esite>  (408) 
-0.014291

>  <r_i_glide_emodel>  (408) 
-28.6898

>  <r_i_glide_energy>  (408) 
-23.2086

>  <r_i_glide_einternal>  (408) 
0.234363

>  <r_i_glide_intrahb_reward>  (408) 
-0

>  <i_i_glide_confnum>  (408) 
1

>  <i_i_glide_posenum>  (408) 
24

>  <r_i_glide_eff_state_penalty>  (408) 
0

>  <ligand_id>  (408) 
99

>  <original_smiles>  (408) 
CN1CCC23c4c(ccc(O)c4OC4c5ccccc5C(=O)C42O)CC13

>  <smiles>  (408) 
[H]Oc1c([H])c([H])c2c3c1OC1([H])c4c([H])c([H])c([H])c([H])c4C(=O)C1(O[H])C31C([H])([H])C([H])([H])[N+]([H])(C([H])([H])[H])C1([H])C2([H])[H]

$$$$
99:1:0
     RDKit          3D

 45 50  0  0  1  0  0  0  0  0999 V2000
    3.3495   -3.4621    5.4526 C   0  0  0  0  0  0  0  0  0  0  0  0
    3.5259   -2.6756    4.2385 N   0  0  0  0  0  0  0  0  0  0  0  0
    4.0438   -1.3157    4.5249 C   0  0  0  0  0  0  0  0  0  0  0  0
    5.0905   -0.9601    3.4136 C   0  0  0  0  0  0  0  0  0  0  0  0
    4.8458   -2.0597    2.3658 C   0  0  2  0  0  0  0  0  0  0  0  0
    5.9464   -2.7665    1.6085 C   0  0  0  0  0  0  0  0  0  0  0  0
    5.9990   -4.1512    1.8226 C   0  0  0  0  0  0  0  0  0  0  0  0
    6.9247   -4.9050    1.0751 C   0  0  0  0  0  0  0  0  0  0  0  0
    7.7190   -4.2171    0.1256 C   0  0  0  0  0  0  0  0  0  0  0  0
    7.5228   -2.8363   -0.1503 C   0  0  0  0  0  0  0  0  0  0  0  0
    8.1842   -2.2632   -1.1955 O   0  0  0  0  0  0  0  0  0  0  0  0
    6.5783   -2.0765    0.5812 C   0  0  0  0  0  0  0  0  0  0  0  0
    6.0900   -0.8425    0.2248 O   0  0  0  0  0  0  0  0  0  0  0  0
    4.6514   -0.8373    0.0859 C   0  0  1  0  0  0  0  0  0  0  0  0
    4.2359   -1.5851   -1.1633 C   0  0  0  0  0  0  0  0  0  0  0  0
    4.6496   -1.3113   -2.4771 C   0  0  0  0  0  0  0  0  0  0  0  0
    4.1677   -2.1309   -3.5223 C   0  0  0  0  0  0  0  0  0  0  0  0
    3.2625   -3.1794   -3.2510 C   0  0  0  0  0  0  0  0  0  0  0  0
    2.8464   -3.4399   -1.9256 C   0  0  0  0  0  0  0  0  0  0  0  0
    3.3677   -2.6326   -0.8988 C   0  0  0  0  0  0  0  0  0  0  0  0
    3.0821   -2.7050    0.5321 C   0  0  0  0  0  0  0  0  0  0  0  0
    2.3460   -3.4999    1.1068 O   0  0  0  0  0  0  0  0  0  0  0  0
    3.8438   -1.5637    1.2456 C   0  0  1  0  0  0  0  0  0  0  0  0
    2.8734   -0.6534    1.7419 O   0  0  0  0  0  0  0  0  0  0  0  0
    4.8749   -4.5127    2.7854 C   0  0  0  0  0  0  0  0  0  0  0  0
    4.6006   -3.1458    3.3998 C   0  0  2  0  0  0  0  0  0  0  0  0
    2.5794   -3.0242    6.0911 H   0  0  0  0  0  0  0  0  0  0  0  0
    4.2679   -3.5377    6.0345 H   0  0  0  0  0  0  0  0  0  0  0  0
    3.0313   -4.4723    5.1946 H   0  0  0  0  0  0  0  0  0  0  0  0
    3.2093   -0.6126    4.5353 H   0  0  0  0  0  0  0  0  0  0  0  0
    4.5165   -1.2559    5.5099 H   0  0  0  0  0  0  0  0  0  0  0  0
    4.9766    0.0472    3.0232 H   0  0  0  0  0  0  0  0  0  0  0  0
    6.0964   -1.0215    3.8195 H   0  0  0  0  0  0  0  0  0  0  0  0
    6.9867   -5.9767    1.1958 H   0  0  0  0  0  0  0  0  0  0  0  0
    8.4105   -4.7714   -0.4840 H   0  0  0  0  0  0  0  0  0  0  0  0
    8.8905   -2.7600   -1.5863 H   0  0  0  0  0  0  0  0  0  0  0  0
    4.3107    0.1969    0.0003 H   0  0  0  0  0  0  0  0  0  0  0  0
    5.3457   -0.5099   -2.6648 H   0  0  0  0  0  0  0  0  0  0  0  0
    4.5039   -1.9490   -4.5308 H   0  0  0  0  0  0  0  0  0  0  0  0
    2.9030   -3.8100   -4.0545 H   0  0  0  0  0  0  0  0  0  0  0  0
    2.1508   -4.2373   -1.7096 H   0  0  0  0  0  0  0  0  0  0  0  0
    2.2299   -0.5090    1.0600 H   0  0  0  0  0  0  0  0  0  0  0  0
    4.0252   -4.8943    2.2295 H   0  0  0  0  0  0  0  0  0  0  0  0
    5.1850   -5.2529    3.5213 H   0  0  0  0  0  0  0  0  0  0  0  0
    5.4522   -3.1246    4.0921 H   0  0  0  0  0  0  0  0  0  0  0  0
  1  2  1  0
  1 27  1  0
  1 28  1  0
  1 29  1  0
  2 26  1  0
  2  3  1  0
  3  4  1  0
  3 30  1  0
  3 31  1  0
  5  4  1  1
  4 32  1  0
  4 33  1  0
  5 23  1  0
  5 26  1  0
  5  6  1  0
  6 12  1  0
  6  7  2  0
  7  8  1  0
  7 25  1  0
  8  9  2  0
  8 34  1  0
  9 10  1  0
  9 35  1  0
 10 11  1  0
 10 12  2  0
 11 36  1  0
 12 13  1  0
 13 14  1  0
 14 23  1  0
 14 15  1  0
 14 37  1  6
 15 20  2  0
 15 16  1  0
 16 17  2  0
 16 38  1  0
 17 18  1  0
 17 39  1  0
 18 19  2  0
 18 40  1  0
 19 20  1  0
 19 41  1  0
 20 21  1  0
 21 22  2  0
 21 23  1  0
 23 24  1  1
 24 42  1  0
 25 26  1  0
 25 43  1  0
 25 44  1  0
 26 45  1  1
M  END
>  <i_m_ct_stereo_status>  (409) 
1

>  <s_m_source_file>  (409) 
/var/tmp/pbs.5076255.sched01/tmpk5ywl0l3/150lwq6_0yz.sdf

>  <i_m_source_file_index>  (409) 
15

>  <i_lp_mmshare_version>  (409) 
48012

>  <i_f3d_flags>  (409) 
0

>  <s_epik_input>  (409) 
W0NIMl0xW0NIMl1OKFtDSDNdKVtDQEhdMltDSDJdYyhjM1tDQF0xMjQpW2NIXVtjSF1jKFtPSF0pYzNPW0NASF01YzZjKEMoPU8pW0NAQF00NVtPSF0pW2NIXVtjSF1bY0hdW2NIXTY=

>  <s_epik_cmdline>  (409) 
J2VwaWtfcHl0aG9uJywgJy1waHQnLCAnMi4wJywgJy1waCcsICc3LjAnLCAnLXRuJywgJzgnLCAnLW1hJywgJzIwMCcsICctaW1hZScsICc8aW5maWxlLm1hZT4nLCAnLW9tYWUnLCAnPG91dGZpbGUubWFlPic=

>  <r_lp_tautomer_probability>  (409) 
1

>  <r_epik_Ionization_Penalty>  (409) 
1.80547

>  <r_epik_Ionization_Penalty_Charging>  (409) 
0

>  <r_epik_Ionization_Penalty_Neutral>  (409) 
1.80547

>  <r_epik_State_Penalty>  (409) 
1.92358

>  <r_epik_Charging_Adjusted_Penalty>  (409) 
1.92358

>  <i_epik_Tot_Q>  (409) 
0

>  <i_epik_Tot_abs_Q>  (409) 
0

>  <s_lp_Force_Field>  (409) 
OPLS3e

>  <r_lp_Energy>  (409) 
78.6301

>  <b_lp_Chiralities_Consistent>  (409) 
1

>  <s_lp_Variant>  (409) 
99:0-2

>  <s_i_glide_gridfile>  (409) 
pfpi4k_grid

>  <i_i_glide_lignum>  (409) 
15

>  <i_i_glide_rotatable_bonds>  (409) 
2

>  <r_i_docking_score>  (409) 
-3.88638

>  <r_i_glide_ligand_efficiency>  (409) 
-0.149476

>  <r_i_glide_ligand_efficiency_sa>  (409) 
-0.442822

>  <r_i_glide_ligand_efficiency_ln>  (409) 
-0.912703

>  <r_i_glide_gscore>  (409) 
-3.88638

>  <r_i_glide_lipo>  (409) 
-1.12039

>  <r_i_glide_hbond>  (409) 
0

>  <r_i_glide_metal>  (409) 
-0

>  <r_i_glide_rewards>  (409) 
-1.02696

>  <r_i_glide_evdw>  (409) 
-22.6136

>  <r_i_glide_ecoul>  (409) 
-3.82862

>  <r_i_glide_erotb>  (409) 
0

>  <r_i_glide_esite>  (409) 
-0.0340635

>  <r_i_glide_emodel>  (409) 
-32.704

>  <r_i_glide_energy>  (409) 
-26.4422

>  <r_i_glide_einternal>  (409) 
2.06419

>  <r_i_glide_intrahb_reward>  (409) 
-0

>  <i_i_glide_confnum>  (409) 
2

>  <i_i_glide_posenum>  (409) 
11

>  <r_i_glide_eff_state_penalty>  (409) 
0

>  <ligand_id>  (409) 
99

>  <original_smiles>  (409) 
CN1CCC23c4c(ccc(O)c4OC4c5ccccc5C(=O)C42O)CC13

>  <smiles>  (409) 
[H]Oc1c([H])c([H])c2c3c1OC1([H])c4c([H])c([H])c([H])c([H])c4C(=O)C1(O[H])C31C([H])([H])C([H])([H])N(C([H])([H])[H])C1([H])C2([H])[H]

$$$$
99:1:1
     RDKit          3D

 45 50  0  0  1  0  0  0  0  0999 V2000
    2.7704   -4.9267    4.8408 C   0  0  0  0  0  0  0  0  0  0  0  0
    3.0300   -3.8822    3.8594 N   0  0  0  0  0  0  0  0  0  0  0  0
    3.4042   -2.6010    4.5001 C   0  0  0  0  0  0  0  0  0  0  0  0
    4.5555   -1.9637    3.6444 C   0  0  0  0  0  0  0  0  0  0  0  0
    4.5260   -2.8054    2.3546 C   0  0  2  0  0  0  0  0  0  0  0  0
    5.7617   -3.2726    1.6375 C   0  0  0  0  0  0  0  0  0  0  0  0
    5.8999   -4.6622    1.5678 C   0  0  0  0  0  0  0  0  0  0  0  0
    6.9585   -5.1859    0.8034 C   0  0  0  0  0  0  0  0  0  0  0  0
    7.8032   -4.2734    0.1184 C   0  0  0  0  0  0  0  0  0  0  0  0
    7.5337   -2.8833    0.1119 C   0  0  0  0  0  0  0  0  0  0  0  0
    8.2694   -2.0773   -0.7056 O   0  0  0  0  0  0  0  0  0  0  0  0
    6.4587   -2.3441    0.8664 C   0  0  0  0  0  0  0  0  0  0  0  0
    5.9239   -1.0848    0.7123 O   0  0  0  0  0  0  0  0  0  0  0  0
    4.5094   -1.1175    0.3846 C   0  0  1  0  0  0  0  0  0  0  0  0
    4.3084   -1.5917   -1.0376 C   0  0  0  0  0  0  0  0  0  0  0  0
    4.8621   -1.0266   -2.1954 C   0  0  0  0  0  0  0  0  0  0  0  0
    4.5684   -1.6145   -3.4460 C   0  0  0  0  0  0  0  0  0  0  0  0
    3.7248   -2.7402   -3.5339 C   0  0  0  0  0  0  0  0  0  0  0  0
    3.1556   -3.2768   -2.3648 C   0  0  0  0  0  0  0  0  0  0  0  0
    3.4803   -2.6969   -1.1280 C   0  0  0  0  0  0  0  0  0  0  0  0
    3.0382   -3.1047    0.1973 C   0  0  0  0  0  0  0  0  0  0  0  0
    2.3022   -4.0575    0.4626 O   0  0  0  0  0  0  0  0  0  0  0  0
    3.6202   -2.1224    1.2450 C   0  0  1  0  0  0  0  0  0  0  0  0
    2.5307   -1.3853    1.7824 O   0  0  0  0  0  0  0  0  0  0  0  0
    4.6880   -5.2839    2.2501 C   0  0  0  0  0  0  0  0  0  0  0  0
    4.2344   -4.1024    3.0933 C   0  0  2  0  0  0  0  0  0  0  0  0
    1.8965   -4.6780    5.4453 H   0  0  0  0  0  0  0  0  0  0  0  0
    3.6157   -5.0823    5.5130 H   0  0  0  0  0  0  0  0  0  0  0  0
    2.5646   -5.8685    4.3331 H   0  0  0  0  0  0  0  0  0  0  0  0
    2.5298   -1.9533    4.5429 H   0  0  0  0  0  0  0  0  0  0  0  0
    3.7503   -2.7383    5.5264 H   0  0  0  0  0  0  0  0  0  0  0  0
    4.4222   -0.8947    3.4712 H   0  0  0  0  0  0  0  0  0  0  0  0
    5.5074   -2.0833    4.1689 H   0  0  0  0  0  0  0  0  0  0  0  0
    7.0857   -6.2540    0.6932 H   0  0  0  0  0  0  0  0  0  0  0  0
    8.5888   -4.6572   -0.5103 H   0  0  0  0  0  0  0  0  0  0  0  0
    9.0752   -2.4551   -1.0479 H   0  0  0  0  0  0  0  0  0  0  0  0
    4.1168   -0.0985    0.4666 H   0  0  0  0  0  0  0  0  0  0  0  0
    5.5017   -0.1634   -2.1195 H   0  0  0  0  0  0  0  0  0  0  0  0
    4.9997   -1.1897   -4.3406 H   0  0  0  0  0  0  0  0  0  0  0  0
    3.5117   -3.1876   -4.4928 H   0  0  0  0  0  0  0  0  0  0  0  0
    2.4718   -4.1076   -2.4144 H   0  0  0  0  0  0  0  0  0  0  0  0
    1.9957   -1.0709    1.0608 H   0  0  0  0  0  0  0  0  0  0  0  0
    3.9500   -5.5713    1.5065 H   0  0  0  0  0  0  0  0  0  0  0  0
    4.9570   -6.1555    2.8419 H   0  0  0  0  0  0  0  0  0  0  0  0
    4.9921   -4.2011    3.8825 H   0  0  0  0  0  0  0  0  0  0  0  0
  1  2  1  0
  1 27  1  0
  1 28  1  0
  1 29  1  0
  2 26  1  0
  2  3  1  0
  3  4  1  0
  3 30  1  0
  3 31  1  0
  5  4  1  1
  4 32  1  0
  4 33  1  0
  5 23  1  0
  5 26  1  0
  5  6  1  0
  6 12  1  0
  6  7  2  0
  7  8  1  0
  7 25  1  0
  8  9  2  0
  8 34  1  0
  9 10  1  0
  9 35  1  0
 10 11  1  0
 10 12  2  0
 11 36  1  0
 12 13  1  0
 13 14  1  0
 14 23  1  0
 14 15  1  0
 14 37  1  6
 15 20  2  0
 15 16  1  0
 16 17  2  0
 16 38  1  0
 17 18  1  0
 17 39  1  0
 18 19  2  0
 18 40  1  0
 19 20  1  0
 19 41  1  0
 20 21  1  0
 21 22  2  0
 21 23  1  0
 23 24  1  1
 24 42  1  0
 25 26  1  0
 25 43  1  0
 25 44  1  0
 26 45  1  1
M  END
>  <i_m_ct_stereo_status>  (410) 
1

>  <s_m_source_file>  (410) 
/var/tmp/pbs.5076255.sched01/tmpk5ywl0l3/150lwq6_0yz.sdf

>  <i_m_source_file_index>  (410) 
15

>  <i_lp_mmshare_version>  (410) 
48012

>  <i_f3d_flags>  (410) 
0

>  <s_epik_input>  (410) 
W0NIMl0xW0NIMl1OKFtDSDNdKVtDQEhdMltDSDJdYyhjM1tDQF0xMjQpW2NIXVtjSF1jKFtPSF0pYzNPW0NASF01YzZjKEMoPU8pW0NAQF00NVtPSF0pW2NIXVtjSF1bY0hdW2NIXTY=

>  <s_epik_cmdline>  (410) 
J2VwaWtfcHl0aG9uJywgJy1waHQnLCAnMi4wJywgJy1waCcsICc3LjAnLCAnLXRuJywgJzgnLCAnLW1hJywgJzIwMCcsICctaW1hZScsICc8aW5maWxlLm1hZT4nLCAnLW9tYWUnLCAnPG91dGZpbGUubWFlPic=

>  <r_lp_tautomer_probability>  (410) 
1

>  <r_epik_Ionization_Penalty>  (410) 
1.80547

>  <r_epik_Ionization_Penalty_Charging>  (410) 
0

>  <r_epik_Ionization_Penalty_Neutral>  (410) 
1.80547

>  <r_epik_State_Penalty>  (410) 
1.92358

>  <r_epik_Charging_Adjusted_Penalty>  (410) 
1.92358

>  <i_epik_Tot_Q>  (410) 
0

>  <i_epik_Tot_abs_Q>  (410) 
0

>  <s_lp_Force_Field>  (410) 
OPLS3e

>  <r_lp_Energy>  (410) 
78.6301

>  <b_lp_Chiralities_Consistent>  (410) 
1

>  <s_lp_Variant>  (410) 
99:0-2

>  <s_i_glide_gridfile>  (410) 
pfpi4k_grid

>  <i_i_glide_lignum>  (410) 
15

>  <i_i_glide_rotatable_bonds>  (410) 
2

>  <r_i_docking_score>  (410) 
-3.72295

>  <r_i_glide_ligand_efficiency>  (410) 
-0.14319

>  <r_i_glide_ligand_efficiency_sa>  (410) 
-0.424201

>  <r_i_glide_ligand_efficiency_ln>  (410) 
-0.874323

>  <r_i_glide_gscore>  (410) 
-3.72295

>  <r_i_glide_lipo>  (410) 
-0.953633

>  <r_i_glide_hbond>  (410) 
0

>  <r_i_glide_metal>  (410) 
-0

>  <r_i_glide_rewards>  (410) 
-1.02696

>  <r_i_glide_evdw>  (410) 
-20.0088

>  <r_i_glide_ecoul>  (410) 
-4.80458

>  <r_i_glide_erotb>  (410) 
0

>  <r_i_glide_esite>  (410) 
-0.0212354

>  <r_i_glide_emodel>  (410) 
-30.7922

>  <r_i_glide_energy>  (410) 
-24.8134

>  <r_i_glide_einternal>  (410) 
1.99725

>  <r_i_glide_intrahb_reward>  (410) 
-0

>  <i_i_glide_confnum>  (410) 
1

>  <i_i_glide_posenum>  (410) 
7

>  <r_i_glide_eff_state_penalty>  (410) 
0

>  <ligand_id>  (410) 
99

>  <original_smiles>  (410) 
CN1CCC23c4c(ccc(O)c4OC4c5ccccc5C(=O)C42O)CC13

>  <smiles>  (410) 
[H]Oc1c([H])c([H])c2c3c1OC1([H])c4c([H])c([H])c([H])c([H])c4C(=O)C1(O[H])C31C([H])([H])C([H])([H])N(C([H])([H])[H])C1([H])C2([H])[H]

$$$$
99:1:2
     RDKit          3D

 45 50  0  0  1  0  0  0  0  0999 V2000
    4.1459   -2.6765    5.9663 C   0  0  0  0  0  0  0  0  0  0  0  0
    4.1009   -2.0287    4.6613 N   0  0  0  0  0  0  0  0  0  0  0  0
    4.6462   -0.6525    4.7060 C   0  0  0  0  0  0  0  0  0  0  0  0
    5.4889   -0.4278    3.3993 C   0  0  0  0  0  0  0  0  0  0  0  0
    5.0815   -1.6428    2.5331 C   0  0  2  0  0  0  0  0  0  0  0  0
    6.0437   -2.4341    1.6815 C   0  0  0  0  0  0  0  0  0  0  0  0
    6.1414   -3.7890    2.0298 C   0  0  0  0  0  0  0  0  0  0  0  0
    6.9511   -4.6160    1.2295 C   0  0  0  0  0  0  0  0  0  0  0  0
    7.5764   -4.0373    0.0963 C   0  0  0  0  0  0  0  0  0  0  0  0
    7.3090   -2.6986   -0.3042 C   0  0  0  0  0  0  0  0  0  0  0  0
    7.7721   -2.2605   -1.5079 O   0  0  0  0  0  0  0  0  0  0  0  0
    6.4958   -1.8603    0.5016 C   0  0  0  0  0  0  0  0  0  0  0  0
    5.9440   -0.6728    0.1000 O   0  0  0  0  0  0  0  0  0  0  0  0
    4.4942   -0.6862    0.2003 C   0  0  1  0  0  0  0  0  0  0  0  0
    3.9044   -1.5776   -0.8788 C   0  0  0  0  0  0  0  0  0  0  0  0
    4.0985   -1.4532   -2.2665 C   0  0  0  0  0  0  0  0  0  0  0  0
    3.4446   -2.3754   -3.1160 C   0  0  0  0  0  0  0  0  0  0  0  0
    2.6106   -3.3783   -2.5760 C   0  0  0  0  0  0  0  0  0  0  0  0
    2.4447   -3.5041   -1.1820 C   0  0  0  0  0  0  0  0  0  0  0  0
    3.1046   -2.5855   -0.3530 C   0  0  0  0  0  0  0  0  0  0  0  0
    3.0340   -2.4765    1.1083 C   0  0  0  0  0  0  0  0  0  0  0  0
    2.3891   -3.1863    1.8743 O   0  0  0  0  0  0  0  0  0  0  0  0
    3.8987   -1.2682    1.5490 C   0  0  1  0  0  0  0  0  0  0  0  0
    3.0096   -0.3013    2.1015 O   0  0  0  0  0  0  0  0  0  0  0  0
    5.2063   -4.0350    3.2110 C   0  0  0  0  0  0  0  0  0  0  0  0
    5.0103   -2.6052    3.7052 C   0  0  2  0  0  0  0  0  0  0  0  0
    3.4891   -2.1657    6.6749 H   0  0  0  0  0  0  0  0  0  0  0  0
    5.1538   -2.6877    6.3918 H   0  0  0  0  0  0  0  0  0  0  0  0
    3.8076   -3.7062    5.8816 H   0  0  0  0  0  0  0  0  0  0  0  0
    3.8180    0.0530    4.7761 H   0  0  0  0  0  0  0  0  0  0  0  0
    5.2781   -0.4831    5.5820 H   0  0  0  0  0  0  0  0  0  0  0  0
    5.2948    0.5296    2.9270 H   0  0  0  0  0  0  0  0  0  0  0  0
    6.5516   -0.4305    3.6298 H   0  0  0  0  0  0  0  0  0  0  0  0
    7.0667   -5.6644    1.4710 H   0  0  0  0  0  0  0  0  0  0  0  0
    8.1972   -4.6412   -0.5408 H   0  0  0  0  0  0  0  0  0  0  0  0
    8.2705   -2.8924   -2.0005 H   0  0  0  0  0  0  0  0  0  0  0  0
    4.1530    0.3383    0.0717 H   0  0  0  0  0  0  0  0  0  0  0  0
    4.7345   -0.6777   -2.6657 H   0  0  0  0  0  0  0  0  0  0  0  0
    3.5864   -2.3239   -4.1848 H   0  0  0  0  0  0  0  0  0  0  0  0
    2.1269   -4.0757   -3.2382 H   0  0  0  0  0  0  0  0  0  0  0  0
    1.8197   -4.2786   -0.7740 H   0  0  0  0  0  0  0  0  0  0  0  0
    3.5128    0.4540    2.3643 H   0  0  0  0  0  0  0  0  0  0  0  0
    4.2794   -4.4792    2.8598 H   0  0  0  0  0  0  0  0  0  0  0  0
    5.6577   -4.6791    3.9620 H   0  0  0  0  0  0  0  0  0  0  0  0
    5.9515   -2.5259    4.2507 H   0  0  0  0  0  0  0  0  0  0  0  0
  1  2  1  0
  1 27  1  0
  1 28  1  0
  1 29  1  0
  2 26  1  0
  2  3  1  0
  3  4  1  0
  3 30  1  0
  3 31  1  0
  5  4  1  1
  4 32  1  0
  4 33  1  0
  5 23  1  0
  5 26  1  0
  5  6  1  0
  6 12  1  0
  6  7  2  0
  7  8  1  0
  7 25  1  0
  8  9  2  0
  8 34  1  0
  9 10  1  0
  9 35  1  0
 10 11  1  0
 10 12  2  0
 11 36  1  0
 12 13  1  0
 13 14  1  0
 14 23  1  0
 14 15  1  0
 14 37  1  6
 15 20  2  0
 15 16  1  0
 16 17  2  0
 16 38  1  0
 17 18  1  0
 17 39  1  0
 18 19  2  0
 18 40  1  0
 19 20  1  0
 19 41  1  0
 20 21  1  0
 21 22  2  0
 21 23  1  0
 23 24  1  1
 24 42  1  0
 25 26  1  0
 25 43  1  0
 25 44  1  0
 26 45  1  1
M  END
>  <i_m_ct_stereo_status>  (411) 
1

>  <s_m_source_file>  (411) 
/var/tmp/pbs.5076255.sched01/tmpk5ywl0l3/150lwq6_0yz.sdf

>  <i_m_source_file_index>  (411) 
15

>  <i_lp_mmshare_version>  (411) 
48012

>  <i_f3d_flags>  (411) 
0

>  <s_epik_input>  (411) 
W0NIMl0xW0NIMl1OKFtDSDNdKVtDQEhdMltDSDJdYyhjM1tDQF0xMjQpW2NIXVtjSF1jKFtPSF0pYzNPW0NASF01YzZjKEMoPU8pW0NAQF00NVtPSF0pW2NIXVtjSF1bY0hdW2NIXTY=

>  <s_epik_cmdline>  (411) 
J2VwaWtfcHl0aG9uJywgJy1waHQnLCAnMi4wJywgJy1waCcsICc3LjAnLCAnLXRuJywgJzgnLCAnLW1hJywgJzIwMCcsICctaW1hZScsICc8aW5maWxlLm1hZT4nLCAnLW9tYWUnLCAnPG91dGZpbGUubWFlPic=

>  <r_lp_tautomer_probability>  (411) 
1

>  <r_epik_Ionization_Penalty>  (411) 
1.80547

>  <r_epik_Ionization_Penalty_Charging>  (411) 
0

>  <r_epik_Ionization_Penalty_Neutral>  (411) 
1.80547

>  <r_epik_State_Penalty>  (411) 
1.92358

>  <r_epik_Charging_Adjusted_Penalty>  (411) 
1.92358

>  <i_epik_Tot_Q>  (411) 
0

>  <i_epik_Tot_abs_Q>  (411) 
0

>  <s_lp_Force_Field>  (411) 
OPLS3e

>  <r_lp_Energy>  (411) 
78.6301

>  <b_lp_Chiralities_Consistent>  (411) 
1

>  <s_lp_Variant>  (411) 
99:0-2

>  <s_i_glide_gridfile>  (411) 
pfpi4k_grid

>  <i_i_glide_lignum>  (411) 
15

>  <i_i_glide_rotatable_bonds>  (411) 
2

>  <r_i_docking_score>  (411) 
-3.53908

>  <r_i_glide_ligand_efficiency>  (411) 
-0.136118

>  <r_i_glide_ligand_efficiency_sa>  (411) 
-0.40325

>  <r_i_glide_ligand_efficiency_ln>  (411) 
-0.83114

>  <r_i_glide_gscore>  (411) 
-3.53908

>  <r_i_glide_lipo>  (411) 
-1.02336

>  <r_i_glide_hbond>  (411) 
0

>  <r_i_glide_metal>  (411) 
-0

>  <r_i_glide_rewards>  (411) 
-1.02696

>  <r_i_glide_evdw>  (411) 
-19.9626

>  <r_i_glide_ecoul>  (411) 
-3.10239

>  <r_i_glide_erotb>  (411) 
0

>  <r_i_glide_esite>  (411) 
-0.0252723

>  <r_i_glide_emodel>  (411) 
-29.8399

>  <r_i_glide_energy>  (411) 
-23.065

>  <r_i_glide_einternal>  (411) 
0.0345902

>  <r_i_glide_intrahb_reward>  (411) 
-0

>  <i_i_glide_confnum>  (411) 
2

>  <i_i_glide_posenum>  (411) 
40

>  <r_i_glide_eff_state_penalty>  (411) 
0

>  <ligand_id>  (411) 
99

>  <original_smiles>  (411) 
CN1CCC23c4c(ccc(O)c4OC4c5ccccc5C(=O)C42O)CC13

>  <smiles>  (411) 
[H]Oc1c([H])c([H])c2c3c1OC1([H])c4c([H])c([H])c([H])c([H])c4C(=O)C1(O[H])C31C([H])([H])C([H])([H])N(C([H])([H])[H])C1([H])C2([H])[H]

$$$$
100:0:0
     RDKit          3D

 58 62  0  0  1  0  0  0  0  0999 V2000
    1.8464    0.4644    1.8702 C   0  0  0  0  0  0  0  0  0  0  0  0
    3.0713   -0.2795    2.4908 C   0  0  2  0  0  0  0  0  0  0  0  0
    4.1675   -0.2383    1.3910 C   0  0  0  0  0  0  0  0  0  0  0  0
    3.8414   -1.1291    0.1912 C   0  0  1  0  0  0  0  0  0  0  0  0
    4.9526   -1.2064   -0.7057 O   0  0  0  0  0  0  0  0  0  0  0  0
    4.8160   -2.4307   -1.4136 C   0  0  0  0  0  0  0  0  0  0  0  0
    4.4373   -3.4047   -0.3076 C   0  0  1  0  0  0  0  0  0  0  0  0
    5.7269   -3.8822    0.3886 C   0  0  0  0  0  0  0  0  0  0  0  0
    5.4848   -4.3960    1.7947 C   0  0  0  0  0  0  0  0  0  0  0  0
    4.8041   -3.3139    2.6279 C   0  0  0  0  0  0  0  0  0  0  0  0
    3.3857   -2.9270    2.1010 C   0  0  2  0  0  0  0  0  0  0  0  0
    2.5113   -4.2029    2.1527 C   0  0  0  0  0  0  0  0  0  0  0  0
    3.4768   -2.5622    0.5703 C   0  0  1  0  0  0  0  0  0  0  0  0
    2.6782   -1.7445    2.9361 C   0  0  1  0  0  0  0  0  0  0  0  0
    2.5822   -1.8299    4.5320 C   0  0  1  0  0  0  0  0  0  0  0  0
    2.3110   -3.2528    5.1027 C   0  0  0  0  0  0  0  0  0  0  0  0
    3.9663   -1.4019    5.1772 C   0  0  0  0  0  0  0  0  0  0  0  0
    4.6870   -0.2357    4.4696 C   0  0  0  0  0  0  0  0  0  0  0  0
    3.6114    0.4921    3.7218 C   0  0  0  0  0  0  0  0  0  0  0  0
    2.8528    1.2425    4.5433 C   0  0  0  0  0  0  0  0  0  0  0  0
    1.5797    0.6804    4.9799 C   0  0  0  0  0  0  0  0  0  0  0  0
    0.6747    1.4243    5.3202 O   0  0  0  0  0  0  0  0  0  0  0  0
    1.3952   -0.8918    5.0891 C   0  0  1  0  0  0  0  0  0  0  0  0
   -0.0487   -1.3193    4.6483 C   0  0  0  0  0  0  0  0  0  0  0  0
   -1.1641   -1.1413    5.7006 C   0  0  0  0  0  0  0  0  0  0  0  0
   -1.0338   -0.3509    6.6465 O   0  0  0  0  0  0  0  0  0  0  0  0
   -2.1937   -1.8560    5.5902 O   0  0  0  0  0  0  0  0  0  0  0  0
    1.5036   -0.0102    0.9660 H   0  0  0  0  0  0  0  0  0  0  0  0
    2.0987    1.4851    1.6167 H   0  0  0  0  0  0  0  0  0  0  0  0
    0.9636    0.5016    2.4955 H   0  0  0  0  0  0  0  0  0  0  0  0
    4.2873    0.7781    1.0318 H   0  0  0  0  0  0  0  0  0  0  0  0
    5.1505   -0.5191    1.7522 H   0  0  0  0  0  0  0  0  0  0  0  0
    3.0219   -0.6928   -0.3887 H   0  0  0  0  0  0  0  0  0  0  0  0
    4.0226   -2.3462   -2.1605 H   0  0  0  0  0  0  0  0  0  0  0  0
    5.7519   -2.6843   -1.9185 H   0  0  0  0  0  0  0  0  0  0  0  0
    3.9240   -4.2744   -0.7287 H   0  0  0  0  0  0  0  0  0  0  0  0
    6.1816   -4.6668   -0.2029 H   0  0  0  0  0  0  0  0  0  0  0  0
    6.4587   -3.0602    0.4272 H   0  0  0  0  0  0  0  0  0  0  0  0
    4.9040   -5.3157    1.7692 H   0  0  0  0  0  0  0  0  0  0  0  0
    6.4380   -4.6649    2.2502 H   0  0  0  0  0  0  0  0  0  0  0  0
    4.7669   -3.6828    3.6461 H   0  0  0  0  0  0  0  0  0  0  0  0
    5.4649   -2.4567    2.6459 H   0  0  0  0  0  0  0  0  0  0  0  0
    1.4433   -3.9699    2.1726 H   0  0  0  0  0  0  0  0  0  0  0  0
    2.7278   -4.8262    3.0222 H   0  0  0  0  0  0  0  0  0  0  0  0
    2.6732   -4.8539    1.2832 H   0  0  0  0  0  0  0  0  0  0  0  0
    2.4746   -2.6929    0.1477 H   0  0  0  0  0  0  0  0  0  0  0  0
    1.6385   -1.8528    2.6246 H   0  0  0  0  0  0  0  0  0  0  0  0
    2.1275   -3.2070    6.1773 H   0  0  0  0  0  0  0  0  0  0  0  0
    3.1632   -3.9157    4.9886 H   0  0  0  0  0  0  0  0  0  0  0  0
    1.4635   -3.7541    4.6437 H   0  0  0  0  0  0  0  0  0  0  0  0
    3.7813   -1.1331    6.2201 H   0  0  0  0  0  0  0  0  0  0  0  0
    4.6668   -2.2348    5.2462 H   0  0  0  0  0  0  0  0  0  0  0  0
    5.1439    0.4202    5.2077 H   0  0  0  0  0  0  0  0  0  0  0  0
    5.4827   -0.5788    3.8252 H   0  0  0  0  0  0  0  0  0  0  0  0
    3.3791    1.7128    5.3773 H   0  0  0  0  0  0  0  0  0  0  0  0
    1.4031   -1.0644    6.1650 H   0  0  0  0  0  0  0  0  0  0  0  0
   -0.3549   -0.8064    3.7467 H   0  0  0  0  0  0  0  0  0  0  0  0
   -0.0942   -2.3708    4.3871 H   0  0  0  0  0  0  0  0  0  0  0  0
  2  1  1  6
  1 28  1  0
  1 29  1  0
  1 30  1  0
  2 14  1  0
  2 19  1  0
  2  3  1  0
  3  4  1  0
  3 31  1  0
  3 32  1  0
  4 13  1  0
  4  5  1  0
  4 33  1  6
  5  6  1  0
  6  7  1  0
  6 34  1  0
  6 35  1  0
  7 13  1  0
  7  8  1  0
  7 36  1  6
  8  9  1  0
  8 37  1  0
  8 38  1  0
  9 10  1  0
  9 39  1  0
  9 40  1  0
 10 11  1  0
 10 41  1  0
 10 42  1  0
 11 12  1  6
 11 13  1  0
 11 14  1  0
 12 43  1  0
 12 44  1  0
 12 45  1  0
 13 46  1  6
 14 15  1  0
 14 47  1  6
 15 23  1  0
 15 16  1  6
 15 17  1  0
 16 48  1  0
 16 49  1  0
 16 50  1  0
 17 18  1  0
 17 51  1  0
 17 52  1  0
 18 19  1  0
 18 53  1  0
 18 54  1  0
 19 20  2  0
 20 21  1  0
 20 55  1  0
 21 22  2  0
 21 23  1  0
 23 24  1  0
 23 56  1  1
 24 25  1  0
 24 57  1  0
 24 58  1  0
 25 26  2  0
 25 27  1  0
M  CHG  1  27  -1
M  END
>  <i_m_ct_stereo_status>  (412) 
1

>  <s_m_source_file>  (412) 
/var/tmp/pbs.5076255.sched01/tmpk5ywl0l3/150lwq6_0yz.sdf

>  <i_m_source_file_index>  (412) 
16

>  <i_lp_mmshare_version>  (412) 
48012

>  <i_f3d_flags>  (412) 
0

>  <s_epik_input>  (412) 
W0NIMl0xW0NIMl1bQ0gyXVtDQEBIXTJbQ0gyXU9bQ0BIXShbQ0gyXTMpW0NAQEhdMltDQF0xKFtDSDNdKVtDQEhdKFtDQF0zNFtDSDNdKVtDQEBdNShbQ0gzXSlbQ0gyXVtDSDJdQzQ9W0NIXUMoPU8pW0NASF01W0NIMl1DKD1PKVtPSF0=

>  <s_epik_cmdline>  (412) 
J2VwaWtfcHl0aG9uJywgJy1waHQnLCAnMi4wJywgJy1waCcsICc3LjAnLCAnLXRuJywgJzgnLCAnLW1hJywgJzIwMCcsICctaW1hZScsICc8aW5maWxlLm1hZT4nLCAnLW9tYWUnLCAnPG91dGZpbGUubWFlPic=

>  <r_epik_Ionization_Penalty>  (412) 
0.00617961

>  <r_epik_Ionization_Penalty_Charging>  (412) 
0.00617961

>  <r_epik_Ionization_Penalty_Neutral>  (412) 
4.69247e-11

>  <r_epik_State_Penalty>  (412) 
0.00455799

>  <r_epik_Charging_Adjusted_Penalty>  (412) 
0.0107376

>  <i_epik_Tot_Q>  (412) 
-1

>  <i_epik_Tot_abs_Q>  (412) 
1

>  <s_lp_Force_Field>  (412) 
OPLS3e

>  <r_lp_Energy>  (412) 
98.9545

>  <b_lp_Chiralities_Consistent>  (412) 
1

>  <s_lp_Variant>  (412) 
100:0-1

>  <s_i_glide_gridfile>  (412) 
pfpi4k_grid

>  <i_i_glide_lignum>  (412) 
16

>  <i_i_glide_rotatable_bonds>  (412) 
2

>  <r_i_docking_score>  (412) 
-3.19287

>  <r_i_glide_ligand_efficiency>  (412) 
-0.118254

>  <r_i_glide_ligand_efficiency_sa>  (412) 
-0.354763

>  <r_i_glide_ligand_efficiency_ln>  (412) 
-0.743246

>  <r_i_glide_gscore>  (412) 
-3.19287

>  <r_i_glide_lipo>  (412) 
-0.326509

>  <r_i_glide_hbond>  (412) 
-0.126708

>  <r_i_glide_metal>  (412) 
-0

>  <r_i_glide_rewards>  (412) 
-0.876206

>  <r_i_glide_evdw>  (412) 
-22.7967

>  <r_i_glide_ecoul>  (412) 
-5.3865

>  <r_i_glide_erotb>  (412) 
0.139877

>  <r_i_glide_esite>  (412) 
-0.0555074

>  <r_i_glide_emodel>  (412) 
-36.1772

>  <r_i_glide_energy>  (412) 
-28.1832

>  <r_i_glide_einternal>  (412) 
0.944789

>  <r_i_glide_intrahb_reward>  (412) 
-0

>  <i_i_glide_confnum>  (412) 
5

>  <i_i_glide_posenum>  (412) 
1

>  <r_i_glide_eff_state_penalty>  (412) 
0

>  <ligand_id>  (412) 
100

>  <original_smiles>  (412) 
CC12CC3OCC4CCCC(C)(C43)C1C1(C)CCC2=CC(=O)C1CC(=O)O

>  <smiles>  (412) 
[H]C1=C2C([H])([H])C([H])([H])C(C([H])([H])[H])(C([H])(C([H])([H])C(=O)[O-])C1=O)C1([H])C2(C([H])([H])[H])C([H])([H])C2([H])OC([H])([H])C3([H])C([H])([H])C([H])([H])C([H])([H])C1(C([H])([H])[H])C23[H]

$$$$
100:0:1
     RDKit          3D

 58 62  0  0  1  0  0  0  0  0999 V2000
    1.5553    0.8564    1.7573 C   0  0  0  0  0  0  0  0  0  0  0  0
    2.6596    0.2331    2.6668 C   0  0  2  0  0  0  0  0  0  0  0  0
    3.8793    0.0043    1.7231 C   0  0  0  0  0  0  0  0  0  0  0  0
    3.6483   -1.1037    0.6990 C   0  0  1  0  0  0  0  0  0  0  0  0
    4.8340   -1.4139   -0.0248 O   0  0  0  0  0  0  0  0  0  0  0  0
    4.7126   -2.7523   -0.4784 C   0  0  0  0  0  0  0  0  0  0  0  0
    4.1442   -3.4662    0.7503 C   0  0  1  0  0  0  0  0  0  0  0  0
    5.3106   -3.8326    1.6894 C   0  0  0  0  0  0  0  0  0  0  0  0
    4.8745   -4.0388    3.1324 C   0  0  0  0  0  0  0  0  0  0  0  0
    4.1711   -2.7750    3.6320 C   0  0  0  0  0  0  0  0  0  0  0  0
    2.8603   -2.4533    2.8614 C   0  0  2  0  0  0  0  0  0  0  0  0
    1.8900   -3.6582    3.0630 C   0  0  0  0  0  0  0  0  0  0  0  0
    3.1502   -2.4217    1.3105 C   0  0  1  0  0  0  0  0  0  0  0  0
    2.1463   -1.1039    3.3444 C   0  0  1  0  0  0  0  0  0  0  0  0
    1.8566   -0.8563    4.9020 C   0  0  1  0  0  0  0  0  0  0  0  0
    1.4146   -2.1087    5.7022 C   0  0  0  0  0  0  0  0  0  0  0  0
    3.1674   -0.3414    5.6189 C   0  0  0  0  0  0  0  0  0  0  0  0
    4.0119    0.6422    4.7801 C   0  0  0  0  0  0  0  0  0  0  0  0
    3.0665    1.2370    3.7700 C   0  0  0  0  0  0  0  0  0  0  0  0
    2.2463    2.1499    4.3206 C   0  0  0  0  0  0  0  0  0  0  0  0
    0.9078    1.6890    4.7480 C   0  0  0  0  0  0  0  0  0  0  0  0
   -0.0060    2.4883    4.9127 O   0  0  0  0  0  0  0  0  0  0  0  0
    0.6592    0.1887    5.0988 C   0  0  1  0  0  0  0  0  0  0  0  0
   -0.7422   -0.2751    4.5589 C   0  0  0  0  0  0  0  0  0  0  0  0
   -1.7216   -0.6656    5.6641 C   0  0  0  0  0  0  0  0  0  0  0  0
   -2.0836    0.2045    6.4798 O   0  0  0  0  0  0  0  0  0  0  0  0
   -2.1325   -1.8494    5.6760 O   0  0  0  0  0  0  0  0  0  0  0  0
    1.2904    0.2028    0.9336 H   0  0  0  0  0  0  0  0  0  0  0  0
    1.8915    1.7950    1.3202 H   0  0  0  0  0  0  0  0  0  0  0  0
    0.6104    1.0556    2.2541 H   0  0  0  0  0  0  0  0  0  0  0  0
    4.1157    0.9242    1.1885 H   0  0  0  0  0  0  0  0  0  0  0  0
    4.7927   -0.2346    2.2587 H   0  0  0  0  0  0  0  0  0  0  0  0
    2.9369   -0.7660   -0.0534 H   0  0  0  0  0  0  0  0  0  0  0  0
    4.0249   -2.8111   -1.3242 H   0  0  0  0  0  0  0  0  0  0  0  0
    5.6834   -3.1387   -0.7895 H   0  0  0  0  0  0  0  0  0  0  0  0
    3.6189   -4.3731    0.4527 H   0  0  0  0  0  0  0  0  0  0  0  0
    5.7885   -4.7431    1.3291 H   0  0  0  0  0  0  0  0  0  0  0  0
    6.0802   -3.0594    1.6611 H   0  0  0  0  0  0  0  0  0  0  0  0
    4.2430   -4.9211    3.2350 H   0  0  0  0  0  0  0  0  0  0  0  0
    5.7519   -4.2337    3.7480 H   0  0  0  0  0  0  0  0  0  0  0  0
    3.9941   -2.9123    4.6925 H   0  0  0  0  0  0  0  0  0  0  0  0
    4.8782   -1.9565    3.5507 H   0  0  0  0  0  0  0  0  0  0  0  0
    0.8482   -3.3822    2.8946 H   0  0  0  0  0  0  0  0  0  0  0  0
    1.9563   -4.0896    4.0606 H   0  0  0  0  0  0  0  0  0  0  0  0
    2.1078   -4.4804    2.3805 H   0  0  0  0  0  0  0  0  0  0  0  0
    2.1984   -2.5953    0.8054 H   0  0  0  0  0  0  0  0  0  0  0  0
    1.1679   -1.2326    2.8941 H   0  0  0  0  0  0  0  0  0  0  0  0
    1.1168   -1.8393    6.7173 H   0  0  0  0  0  0  0  0  0  0  0  0
    2.2157   -2.8320    5.8262 H   0  0  0  0  0  0  0  0  0  0  0  0
    0.5687   -2.6183    5.2438 H   0  0  0  0  0  0  0  0  0  0  0  0
    2.8829    0.1504    6.5529 H   0  0  0  0  0  0  0  0  0  0  0  0
    3.8136   -1.1577    5.9367 H   0  0  0  0  0  0  0  0  0  0  0  0
    4.4407    1.4175    5.4149 H   0  0  0  0  0  0  0  0  0  0  0  0
    4.8523    0.1448    4.3107 H   0  0  0  0  0  0  0  0  0  0  0  0
    2.6788    2.7653    5.1006 H   0  0  0  0  0  0  0  0  0  0  0  0
    0.5356    0.2651    6.1788 H   0  0  0  0  0  0  0  0  0  0  0  0
   -1.2305    0.4974    3.9645 H   0  0  0  0  0  0  0  0  0  0  0  0
   -0.6512   -1.1291    3.8900 H   0  0  0  0  0  0  0  0  0  0  0  0
  2  1  1  6
  1 28  1  0
  1 29  1  0
  1 30  1  0
  2 14  1  0
  2 19  1  0
  2  3  1  0
  3  4  1  0
  3 31  1  0
  3 32  1  0
  4 13  1  0
  4  5  1  0
  4 33  1  6
  5  6  1  0
  6  7  1  0
  6 34  1  0
  6 35  1  0
  7 13  1  0
  7  8  1  0
  7 36  1  6
  8  9  1  0
  8 37  1  0
  8 38  1  0
  9 10  1  0
  9 39  1  0
  9 40  1  0
 10 11  1  0
 10 41  1  0
 10 42  1  0
 11 12  1  6
 11 13  1  0
 11 14  1  0
 12 43  1  0
 12 44  1  0
 12 45  1  0
 13 46  1  6
 14 15  1  0
 14 47  1  6
 15 23  1  0
 15 16  1  1
 15 17  1  0
 16 48  1  0
 16 49  1  0
 16 50  1  0
 17 18  1  0
 17 51  1  0
 17 52  1  0
 18 19  1  0
 18 53  1  0
 18 54  1  0
 19 20  2  0
 20 21  1  0
 20 55  1  0
 21 22  2  0
 21 23  1  0
 23 24  1  0
 23 56  1  1
 24 25  1  0
 24 57  1  0
 24 58  1  0
 25 26  2  0
 25 27  1  0
M  CHG  1  27  -1
M  END
>  <i_m_ct_stereo_status>  (413) 
1

>  <s_m_source_file>  (413) 
/var/tmp/pbs.5076255.sched01/tmpk5ywl0l3/150lwq6_0yz.sdf

>  <i_m_source_file_index>  (413) 
16

>  <i_lp_mmshare_version>  (413) 
48012

>  <i_f3d_flags>  (413) 
0

>  <s_epik_input>  (413) 
W0NIMl0xW0NIMl1bQ0gyXVtDQEBIXTJbQ0gyXU9bQ0BIXShbQ0gyXTMpW0NAQEhdMltDQF0xKFtDSDNdKVtDQEhdKFtDQF0zNFtDSDNdKVtDQEBdNShbQ0gzXSlbQ0gyXVtDSDJdQzQ9W0NIXUMoPU8pW0NASF01W0NIMl1DKD1PKVtPSF0=

>  <s_epik_cmdline>  (413) 
J2VwaWtfcHl0aG9uJywgJy1waHQnLCAnMi4wJywgJy1waCcsICc3LjAnLCAnLXRuJywgJzgnLCAnLW1hJywgJzIwMCcsICctaW1hZScsICc8aW5maWxlLm1hZT4nLCAnLW9tYWUnLCAnPG91dGZpbGUubWFlPic=

>  <r_epik_Ionization_Penalty>  (413) 
0.00617961

>  <r_epik_Ionization_Penalty_Charging>  (413) 
0.00617961

>  <r_epik_Ionization_Penalty_Neutral>  (413) 
4.69247e-11

>  <r_epik_State_Penalty>  (413) 
0.00455799

>  <r_epik_Charging_Adjusted_Penalty>  (413) 
0.0107376

>  <i_epik_Tot_Q>  (413) 
-1

>  <i_epik_Tot_abs_Q>  (413) 
1

>  <s_lp_Force_Field>  (413) 
OPLS3e

>  <r_lp_Energy>  (413) 
98.9545

>  <b_lp_Chiralities_Consistent>  (413) 
1

>  <s_lp_Variant>  (413) 
100:0-1

>  <s_i_glide_gridfile>  (413) 
pfpi4k_grid

>  <i_i_glide_lignum>  (413) 
16

>  <i_i_glide_rotatable_bonds>  (413) 
2

>  <r_i_docking_score>  (413) 
-3.1647

>  <r_i_glide_ligand_efficiency>  (413) 
-0.117211

>  <r_i_glide_ligand_efficiency_sa>  (413) 
-0.351633

>  <r_i_glide_ligand_efficiency_ln>  (413) 
-0.73669

>  <r_i_glide_gscore>  (413) 
-3.1647

>  <r_i_glide_lipo>  (413) 
-0.119952

>  <r_i_glide_hbond>  (413) 
-0.2

>  <r_i_glide_metal>  (413) 
-0

>  <r_i_glide_rewards>  (413) 
-0.876206

>  <r_i_glide_evdw>  (413) 
-21.7709

>  <r_i_glide_ecoul>  (413) 
-6.25114

>  <r_i_glide_erotb>  (413) 
0.139877

>  <r_i_glide_esite>  (413) 
-0.0822049

>  <r_i_glide_emodel>  (413) 
-36.3215

>  <r_i_glide_energy>  (413) 
-28.022

>  <r_i_glide_einternal>  (413) 
1.07626

>  <r_i_glide_intrahb_reward>  (413) 
-0

>  <i_i_glide_confnum>  (413) 
2

>  <i_i_glide_posenum>  (413) 
15

>  <r_i_glide_eff_state_penalty>  (413) 
0

>  <ligand_id>  (413) 
100

>  <original_smiles>  (413) 
CC12CC3OCC4CCCC(C)(C43)C1C1(C)CCC2=CC(=O)C1CC(=O)O

>  <smiles>  (413) 
[H]C1=C2C([H])([H])C([H])([H])C(C([H])([H])[H])(C([H])(C([H])([H])C(=O)[O-])C1=O)C1([H])C2(C([H])([H])[H])C([H])([H])C2([H])OC([H])([H])C3([H])C([H])([H])C([H])([H])C([H])([H])C1(C([H])([H])[H])C23[H]

$$$$
100:0:2
     RDKit          3D

 58 62  0  0  1  0  0  0  0  0999 V2000
    2.7930   -4.9017    0.2455 C   0  0  0  0  0  0  0  0  0  0  0  0
    3.6977   -4.2138    1.3092 C   0  0  2  0  0  0  0  0  0  0  0  0
    3.3914   -4.9561    2.6423 C   0  0  0  0  0  0  0  0  0  0  0  0
    1.9917   -4.6531    3.1709 C   0  0  1  0  0  0  0  0  0  0  0  0
    1.7934   -5.1996    4.4701 O   0  0  0  0  0  0  0  0  0  0  0  0
    0.8017   -4.4172    5.1137 C   0  0  0  0  0  0  0  0  0  0  0  0
    1.2029   -2.9902    4.7375 C   0  0  1  0  0  0  0  0  0  0  0  0
    2.2743   -2.5031    5.7270 C   0  0  0  0  0  0  0  0  0  0  0  0
    3.1267   -1.3711    5.1729 C   0  0  0  0  0  0  0  0  0  0  0  0
    3.7784   -1.8235    3.8622 C   0  0  0  0  0  0  0  0  0  0  0  0
    2.7508   -2.1320    2.7353 C   0  0  2  0  0  0  0  0  0  0  0  0
    1.9466   -0.8240    2.4587 C   0  0  0  0  0  0  0  0  0  0  0  0
    1.6826   -3.1536    3.2780 C   0  0  1  0  0  0  0  0  0  0  0  0
    3.4134   -2.6538    1.3707 C   0  0  1  0  0  0  0  0  0  0  0  0
    4.6227   -1.8481    0.7043 C   0  0  1  0  0  0  0  0  0  0  0  0
    4.5153   -0.3082    0.8137 C   0  0  0  0  0  0  0  0  0  0  0  0
    5.9794   -2.1948    1.4362 C   0  0  0  0  0  0  0  0  0  0  0  0
    6.1228   -3.6731    1.8477 C   0  0  0  0  0  0  0  0  0  0  0  0
    5.1854   -4.4407    0.9661 C   0  0  0  0  0  0  0  0  0  0  0  0
    5.6789   -4.5633   -0.2729 C   0  0  0  0  0  0  0  0  0  0  0  0
    5.2550   -3.5887   -1.2876 C   0  0  0  0  0  0  0  0  0  0  0  0
    5.4043   -3.8566   -2.4726 O   0  0  0  0  0  0  0  0  0  0  0  0
    4.7394   -2.1734   -0.8686 C   0  0  1  0  0  0  0  0  0  0  0  0
    3.5126   -1.7441   -1.7478 C   0  0  0  0  0  0  0  0  0  0  0  0
    3.8648   -1.3221   -3.1902 C   0  0  0  0  0  0  0  0  0  0  0  0
    4.2091   -0.1342   -3.3503 O   0  0  0  0  0  0  0  0  0  0  0  0
    3.7709   -2.1641   -4.1095 O   0  0  0  0  0  0  0  0  0  0  0  0
    1.7433   -4.8103    0.4865 H   0  0  0  0  0  0  0  0  0  0  0  0
    3.0204   -5.9627    0.1626 H   0  0  0  0  0  0  0  0  0  0  0  0
    2.8767   -4.4844   -0.7519 H   0  0  0  0  0  0  0  0  0  0  0  0
    3.5004   -6.0347    2.5045 H   0  0  0  0  0  0  0  0  0  0  0  0
    4.0986   -4.7263    3.4331 H   0  0  0  0  0  0  0  0  0  0  0  0
    1.2383   -5.1279    2.5386 H   0  0  0  0  0  0  0  0  0  0  0  0
   -0.1828   -4.6700    4.7188 H   0  0  0  0  0  0  0  0  0  0  0  0
    0.8056   -4.5993    6.1870 H   0  0  0  0  0  0  0  0  0  0  0  0
    0.3393   -2.3273    4.7827 H   0  0  0  0  0  0  0  0  0  0  0  0
    1.7918   -2.1715    6.6453 H   0  0  0  0  0  0  0  0  0  0  0  0
    2.9283   -3.3308    6.0118 H   0  0  0  0  0  0  0  0  0  0  0  0
    2.5395   -0.4647    5.0398 H   0  0  0  0  0  0  0  0  0  0  0  0
    3.9007   -1.1189    5.8961 H   0  0  0  0  0  0  0  0  0  0  0  0
    4.4734   -1.0425    3.5769 H   0  0  0  0  0  0  0  0  0  0  0  0
    4.3846   -2.6941    4.0863 H   0  0  0  0  0  0  0  0  0  0  0  0
    1.4856   -0.8236    1.4693 H   0  0  0  0  0  0  0  0  0  0  0  0
    2.5668    0.0687    2.5308 H   0  0  0  0  0  0  0  0  0  0  0  0
    1.1382   -0.6722    3.1766 H   0  0  0  0  0  0  0  0  0  0  0  0
    0.7961   -3.0181    2.6621 H   0  0  0  0  0  0  0  0  0  0  0  0
    2.6034   -2.5048    0.6581 H   0  0  0  0  0  0  0  0  0  0  0  0
    5.3107    0.1404    0.2161 H   0  0  0  0  0  0  0  0  0  0  0  0
    4.6582    0.0712    1.8223 H   0  0  0  0  0  0  0  0  0  0  0  0
    3.5641    0.0888    0.4684 H   0  0  0  0  0  0  0  0  0  0  0  0
    6.8112   -1.9285    0.7782 H   0  0  0  0  0  0  0  0  0  0  0  0
    6.1460   -1.5845    2.3219 H   0  0  0  0  0  0  0  0  0  0  0  0
    7.1494   -4.0090    1.7039 H   0  0  0  0  0  0  0  0  0  0  0  0
    5.8962   -3.8195    2.8946 H   0  0  0  0  0  0  0  0  0  0  0  0
    6.7566   -4.6598   -0.3232 H   0  0  0  0  0  0  0  0  0  0  0  0
    5.5530   -1.5321   -1.2144 H   0  0  0  0  0  0  0  0  0  0  0  0
    2.7537   -2.5200   -1.7786 H   0  0  0  0  0  0  0  0  0  0  0  0
    3.0116   -0.8807   -1.3245 H   0  0  0  0  0  0  0  0  0  0  0  0
  2  1  1  6
  1 28  1  0
  1 29  1  0
  1 30  1  0
  2 14  1  0
  2 19  1  0
  2  3  1  0
  3  4  1  0
  3 31  1  0
  3 32  1  0
  4 13  1  0
  4  5  1  0
  4 33  1  6
  5  6  1  0
  6  7  1  0
  6 34  1  0
  6 35  1  0
  7 13  1  0
  7  8  1  0
  7 36  1  6
  8  9  1  0
  8 37  1  0
  8 38  1  0
  9 10  1  0
  9 39  1  0
  9 40  1  0
 10 11  1  0
 10 41  1  0
 10 42  1  0
 11 12  1  6
 11 13  1  0
 11 14  1  0
 12 43  1  0
 12 44  1  0
 12 45  1  0
 13 46  1  6
 14 15  1  0
 14 47  1  6
 15 23  1  0
 15 16  1  6
 15 17  1  0
 16 48  1  0
 16 49  1  0
 16 50  1  0
 17 18  1  0
 17 51  1  0
 17 52  1  0
 18 19  1  0
 18 53  1  0
 18 54  1  0
 19 20  2  0
 20 21  1  0
 20 55  1  0
 21 22  2  0
 21 23  1  0
 23 24  1  0
 23 56  1  6
 24 25  1  0
 24 57  1  0
 24 58  1  0
 25 26  2  0
 25 27  1  0
M  CHG  1  27  -1
M  END
>  <i_m_ct_stereo_status>  (414) 
1

>  <s_m_source_file>  (414) 
/var/tmp/pbs.5076255.sched01/tmpk5ywl0l3/150lwq6_0yz.sdf

>  <i_m_source_file_index>  (414) 
16

>  <i_lp_mmshare_version>  (414) 
48012

>  <i_f3d_flags>  (414) 
0

>  <s_epik_input>  (414) 
W0NIMl0xW0NIMl1bQ0gyXVtDQEBIXTJbQ0gyXU9bQ0BIXShbQ0gyXTMpW0NAQEhdMltDQF0xKFtDSDNdKVtDQEhdKFtDQF0zNFtDSDNdKVtDQEBdNShbQ0gzXSlbQ0gyXVtDSDJdQzQ9W0NIXUMoPU8pW0NASF01W0NIMl1DKD1PKVtPSF0=

>  <s_epik_cmdline>  (414) 
J2VwaWtfcHl0aG9uJywgJy1waHQnLCAnMi4wJywgJy1waCcsICc3LjAnLCAnLXRuJywgJzgnLCAnLW1hJywgJzIwMCcsICctaW1hZScsICc8aW5maWxlLm1hZT4nLCAnLW9tYWUnLCAnPG91dGZpbGUubWFlPic=

>  <r_epik_Ionization_Penalty>  (414) 
0.00617961

>  <r_epik_Ionization_Penalty_Charging>  (414) 
0.00617961

>  <r_epik_Ionization_Penalty_Neutral>  (414) 
4.69247e-11

>  <r_epik_State_Penalty>  (414) 
0.00455799

>  <r_epik_Charging_Adjusted_Penalty>  (414) 
0.0107376

>  <i_epik_Tot_Q>  (414) 
-1

>  <i_epik_Tot_abs_Q>  (414) 
1

>  <s_lp_Force_Field>  (414) 
OPLS3e

>  <r_lp_Energy>  (414) 
98.9545

>  <b_lp_Chiralities_Consistent>  (414) 
1

>  <s_lp_Variant>  (414) 
100:0-1

>  <s_i_glide_gridfile>  (414) 
pfpi4k_grid

>  <i_i_glide_lignum>  (414) 
16

>  <i_i_glide_rotatable_bonds>  (414) 
2

>  <r_i_docking_score>  (414) 
-2.96046

>  <r_i_glide_ligand_efficiency>  (414) 
-0.109647

>  <r_i_glide_ligand_efficiency_sa>  (414) 
-0.32894

>  <r_i_glide_ligand_efficiency_ln>  (414) 
-0.689146

>  <r_i_glide_gscore>  (414) 
-2.96046

>  <r_i_glide_lipo>  (414) 
-0.451928

>  <r_i_glide_hbond>  (414) 
-0.137186

>  <r_i_glide_metal>  (414) 
-0

>  <r_i_glide_rewards>  (414) 
-1.04749

>  <r_i_glide_evdw>  (414) 
-25.8778

>  <r_i_glide_ecoul>  (414) 
-1.13225

>  <r_i_glide_erotb>  (414) 
0.139877

>  <r_i_glide_esite>  (414) 
0

>  <r_i_glide_emodel>  (414) 
-33.9188

>  <r_i_glide_energy>  (414) 
-27.0101

>  <r_i_glide_einternal>  (414) 
1.81889

>  <r_i_glide_intrahb_reward>  (414) 
-0

>  <i_i_glide_confnum>  (414) 
5

>  <i_i_glide_posenum>  (414) 
3

>  <r_i_glide_eff_state_penalty>  (414) 
0

>  <ligand_id>  (414) 
100

>  <original_smiles>  (414) 
CC12CC3OCC4CCCC(C)(C43)C1C1(C)CCC2=CC(=O)C1CC(=O)O

>  <smiles>  (414) 
[H]C1=C2C([H])([H])C([H])([H])C(C([H])([H])[H])(C([H])(C([H])([H])C(=O)[O-])C1=O)C1([H])C2(C([H])([H])[H])C([H])([H])C2([H])OC([H])([H])C3([H])C([H])([H])C([H])([H])C([H])([H])C1(C([H])([H])[H])C23[H]

$$$$
102:0:0
     RDKit          3D

 56 60  0  0  1  0  0  0  0  0999 V2000
   -2.5426    3.0197    3.2718 C   0  0  0  0  0  0  0  0  0  0  0  0
   -1.4704    2.7990    4.3310 C   0  0  0  0  0  0  0  0  0  0  0  0
   -0.9046    1.5729    4.5225 C   0  0  0  0  0  0  0  0  0  0  0  0
   -0.4656    1.1572    5.7782 O   0  0  0  0  0  0  0  0  0  0  0  0
   -0.5699    1.8451    7.0695 C   0  0  1  0  0  0  0  0  0  0  0  0
    0.8229    2.3467    7.5451 C   0  0  0  0  0  0  0  0  0  0  0  0
    1.4024    3.3569    6.5301 C   0  0  2  0  0  0  0  0  0  0  0  0
    0.1247    4.2670    6.0642 C   0  0  2  0  0  0  0  0  0  0  0  0
   -0.8521    4.2997    7.1211 O   0  0  0  0  0  0  0  0  0  0  0  0
   -1.4896    3.0391    7.3907 C   0  0  1  0  0  0  0  0  0  0  0  0
   -2.9864    2.9286    7.0685 C   0  0  0  0  0  0  0  0  0  0  0  0
   -0.8769    4.1443    4.8339 C   0  0  1  0  0  0  0  0  0  0  0  0
   -0.4500    4.9573    3.7551 O   0  0  0  0  0  0  0  0  0  0  0  0
    2.6596    2.8057    5.6097 C   0  0  2  0  0  0  0  0  0  0  0  0
    2.9718    3.7157    4.3788 C   0  0  0  0  0  0  0  0  0  0  0  0
    2.1803    3.1129    3.1798 C   0  0  0  0  0  0  0  0  0  0  0  0
    1.4297    1.9833    3.9192 C   0  0  1  0  0  0  0  0  0  0  0  0
    0.2255    1.1542    3.4754 C   0  0  2  0  0  0  0  0  0  0  0  0
   -0.1565    1.4756    2.0218 C   0  0  0  0  0  0  0  0  0  0  0  0
    0.7701   -0.3099    3.4856 C   0  0  0  0  0  0  0  0  0  0  0  0
    2.3289   -0.4205    3.1729 C   0  0  0  0  0  0  0  0  0  0  0  0
    3.2895    0.5922    3.9381 C   0  0  0  0  0  0  0  0  0  0  0  0
    2.4144    1.3901    4.9505 C   0  0  1  0  0  0  0  0  0  0  0  0
    2.2607    0.2459    6.0304 C   0  0  0  0  0  0  0  0  0  0  0  0
   -3.4395    3.4128    3.7456 H   0  0  0  0  0  0  0  0  0  0  0  0
   -2.8215    2.0936    2.7903 H   0  0  0  0  0  0  0  0  0  0  0  0
   -2.2343    3.7117    2.4894 H   0  0  0  0  0  0  0  0  0  0  0  0
   -0.8739    1.0492    7.7555 H   0  0  0  0  0  0  0  0  0  0  0  0
    0.6920    2.8727    8.4934 H   0  0  0  0  0  0  0  0  0  0  0  0
    1.5025    1.5813    7.8850 H   0  0  0  0  0  0  0  0  0  0  0  0
    1.9453    4.0550    7.1698 H   0  0  0  0  0  0  0  0  0  0  0  0
    0.5131    5.2856    6.0266 H   0  0  0  0  0  0  0  0  0  0  0  0
   -1.5119    3.0307    8.4813 H   0  0  0  0  0  0  0  0  0  0  0  0
   -3.3317    1.8943    7.1206 H   0  0  0  0  0  0  0  0  0  0  0  0
   -3.2670    3.3303    6.0977 H   0  0  0  0  0  0  0  0  0  0  0  0
   -3.5493    3.4926    7.8128 H   0  0  0  0  0  0  0  0  0  0  0  0
   -1.7611    4.7047    5.1273 H   0  0  0  0  0  0  0  0  0  0  0  0
   -0.1844    4.4090    3.0289 H   0  0  0  0  0  0  0  0  0  0  0  0
    3.5436    2.7514    6.2469 H   0  0  0  0  0  0  0  0  0  0  0  0
    2.7005    4.7562    4.5687 H   0  0  0  0  0  0  0  0  0  0  0  0
    4.0401    3.6918    4.1586 H   0  0  0  0  0  0  0  0  0  0  0  0
    1.5340    3.8512    2.7124 H   0  0  0  0  0  0  0  0  0  0  0  0
    2.8363    2.7722    2.3816 H   0  0  0  0  0  0  0  0  0  0  0  0
    0.8917    2.7535    4.3535 H   0  0  0  0  0  0  0  0  0  0  0  0
    0.6261    1.1908    1.3202 H   0  0  0  0  0  0  0  0  0  0  0  0
   -0.3278    2.5359    1.8684 H   0  0  0  0  0  0  0  0  0  0  0  0
   -1.0585    0.9437    1.7229 H   0  0  0  0  0  0  0  0  0  0  0  0
    0.5402   -0.7783    4.4403 H   0  0  0  0  0  0  0  0  0  0  0  0
    0.2176   -0.9141    2.7655 H   0  0  0  0  0  0  0  0  0  0  0  0
    2.6424   -1.4398    3.4016 H   0  0  0  0  0  0  0  0  0  0  0  0
    2.4813   -0.2990    2.0997 H   0  0  0  0  0  0  0  0  0  0  0  0
    4.0974    0.0511    4.4407 H   0  0  0  0  0  0  0  0  0  0  0  0
    3.8396    1.2028    3.2260 H   0  0  0  0  0  0  0  0  0  0  0  0
    2.5391   -0.7543    5.6932 H   0  0  0  0  0  0  0  0  0  0  0  0
    1.2914    0.0508    6.4573 H   0  0  0  0  0  0  0  0  0  0  0  0
    2.9643    0.4321    6.8438 H   0  0  0  0  0  0  0  0  0  0  0  0
  1  2  1  0
  1 25  1  0
  1 26  1  0
  1 27  1  0
  2 12  1  0
  2  3  2  3
  3 18  1  0
  3  4  1  0
  4  5  1  0
  5 10  1  0
  5  6  1  0
  5 28  1  1
  6  7  1  0
  6 29  1  0
  6 30  1  0
  7  8  1  0
  7 14  1  0
  7 31  1  1
  8  9  1  0
  8 12  1  0
  8 32  1  6
  9 10  1  0
 10 11  1  0
 10 33  1  1
 11 34  1  0
 11 35  1  0
 11 36  1  0
 12 13  1  0
 12 37  1  1
 13 38  1  0
 14 23  1  0
 14 15  1  0
 14 39  1  1
 15 16  1  0
 15 40  1  0
 15 41  1  0
 16 17  1  0
 16 42  1  0
 16 43  1  0
 17 23  1  0
 17 18  1  0
 17 44  1  1
 18 19  1  6
 18 20  1  0
 19 45  1  0
 19 46  1  0
 19 47  1  0
 20 21  1  0
 20 48  1  0
 20 49  1  0
 21 22  1  0
 21 50  1  0
 21 51  1  0
 22 23  1  0
 22 52  1  0
 22 53  1  0
 23 24  1  1
 24 54  1  0
 24 55  1  0
 24 56  1  0
M  END
>  <i_m_ct_stereo_status>  (415) 
1

>  <s_m_source_file>  (415) 
/var/tmp/pbs.5076255.sched01/tmpk5ywl0l3/150lwq6_0yz.sdf

>  <i_m_source_file_index>  (415) 
18

>  <i_lp_mmshare_version>  (415) 
48012

>  <i_f3d_flags>  (415) 
0

>  <s_epik_input>  (415) 
W0NIM11DMTJDLzM9QyhcW0NIM10pW0NASF0oW09IXSlbQ0BASF00W0NAQEhdKFtDSDJdW0NASF0oTzMpW0NAQEhdKE80KVtDSDNdKVtDQEhdNVtDQEBdKFtDSDNdKShbQ0BIXTFbQ0gyXVtDSDJdNSlbQ0gyXVtDSDJdW0NIMl0y

>  <s_epik_cmdline>  (415) 
J2VwaWtfcHl0aG9uJywgJy1waHQnLCAnMi4wJywgJy1waCcsICc3LjAnLCAnLXRuJywgJzgnLCAnLW1hJywgJzIwMCcsICctaW1hZScsICc8aW5maWxlLm1hZT4nLCAnLW9tYWUnLCAnPG91dGZpbGUubWFlPic=

>  <r_lp_tautomer_probability>  (415) 
1

>  <r_epik_Ionization_Penalty>  (415) 
7.7911e-07

>  <r_epik_Ionization_Penalty_Charging>  (415) 
0

>  <r_epik_Ionization_Penalty_Neutral>  (415) 
7.7911e-07

>  <r_epik_State_Penalty>  (415) 
-0

>  <r_epik_Charging_Adjusted_Penalty>  (415) 
0

>  <i_epik_Tot_Q>  (415) 
0

>  <i_epik_Tot_abs_Q>  (415) 
0

>  <s_lp_Force_Field>  (415) 
OPLS3e

>  <r_lp_Energy>  (415) 
246.698

>  <b_lp_Chiralities_Consistent>  (415) 
1

>  <s_lp_Variant>  (415) 
102:0-1

>  <s_i_glide_gridfile>  (415) 
pfpi4k_grid

>  <i_i_glide_lignum>  (415) 
18

>  <i_i_glide_rotatable_bonds>  (415) 
1

>  <r_i_docking_score>  (415) 
-2.93279

>  <r_i_glide_ligand_efficiency>  (415) 
-0.1222

>  <r_i_glide_ligand_efficiency_sa>  (415) 
-0.352484

>  <r_i_glide_ligand_efficiency_ln>  (415) 
-0.701951

>  <r_i_glide_gscore>  (415) 
-2.93279

>  <r_i_glide_lipo>  (415) 
-0.198882

>  <r_i_glide_hbond>  (415) 
0

>  <r_i_glide_metal>  (415) 
-0

>  <r_i_glide_rewards>  (415) 
-1.1422

>  <r_i_glide_evdw>  (415) 
-22.5754

>  <r_i_glide_ecoul>  (415) 
-3.08624

>  <r_i_glide_erotb>  (415) 
0

>  <r_i_glide_esite>  (415) 
0

>  <r_i_glide_emodel>  (415) 
-29.5432

>  <r_i_glide_energy>  (415) 
-25.6616

>  <r_i_glide_einternal>  (415) 
1.09728

>  <r_i_glide_intrahb_reward>  (415) 
-0

>  <i_i_glide_confnum>  (415) 
2

>  <i_i_glide_posenum>  (415) 
6

>  <r_i_glide_eff_state_penalty>  (415) 
0

>  <ligand_id>  (415) 
102

>  <original_smiles>  (415) 
CC1=C2OC3CC(C(OC3C)C1O)C1CCC3C2(C)CCCC13C

>  <smiles>  (415) 
[H]OC1([H])C(C([H])([H])[H])=C2OC3([H])C([H])([H])C([H])(C1([H])OC3([H])C([H])([H])[H])C1([H])C([H])([H])C([H])([H])C3([H])C2(C([H])([H])[H])C([H])([H])C([H])([H])C([H])([H])C13C([H])([H])[H]

$$$$
102:0:1
     RDKit          3D

 56 60  0  0  1  0  0  0  0  0999 V2000
    0.2766    1.3399    1.9397 C   0  0  0  0  0  0  0  0  0  0  0  0
    0.0969    1.7601    3.3917 C   0  0  0  0  0  0  0  0  0  0  0  0
   -0.1146    0.8222    4.3547 C   0  0  0  0  0  0  0  0  0  0  0  0
   -0.8980    1.0843    5.4728 O   0  0  0  0  0  0  0  0  0  0  0  0
   -1.6711    2.2881    5.7924 C   0  0  1  0  0  0  0  0  0  0  0  0
   -1.0227    3.0655    6.9708 C   0  0  0  0  0  0  0  0  0  0  0  0
    0.4010    3.5213    6.5860 C   0  0  2  0  0  0  0  0  0  0  0  0
    0.2722    4.0059    5.0264 C   0  0  2  0  0  0  0  0  0  0  0  0
   -1.0718    4.4581    4.7739 O   0  0  0  0  0  0  0  0  0  0  0  0
   -2.0602    3.4122    4.8085 C   0  0  1  0  0  0  0  0  0  0  0  0
   -2.7433    3.0495    3.4793 C   0  0  0  0  0  0  0  0  0  0  0  0
    0.5253    3.2377    3.6583 C   0  0  1  0  0  0  0  0  0  0  0  0
    1.8523    3.4766    3.2357 O   0  0  0  0  0  0  0  0  0  0  0  0
    1.6380    2.6997    7.3132 C   0  0  2  0  0  0  0  0  0  0  0  0
    3.0299    2.9403    6.6420 C   0  0  0  0  0  0  0  0  0  0  0  0
    3.2223    1.7809    5.6170 C   0  0  0  0  0  0  0  0  0  0  0  0
    1.8526    1.0836    5.7707 C   0  0  1  0  0  0  0  0  0  0  0  0
    1.1852    0.0485    4.8680 C   0  0  2  0  0  0  0  0  0  0  0  0
    2.1293   -0.3805    3.7241 C   0  0  0  0  0  0  0  0  0  0  0  0
    1.0031   -1.1877    5.8059 C   0  0  0  0  0  0  0  0  0  0  0  0
    2.1204   -1.3099    6.9362 C   0  0  0  0  0  0  0  0  0  0  0  0
    2.4838    0.0163    7.7365 C   0  0  0  0  0  0  0  0  0  0  0  0
    1.4914    1.1261    7.2731 C   0  0  1  0  0  0  0  0  0  0  0  0
    0.2289    0.6215    8.0791 C   0  0  0  0  0  0  0  0  0  0  0  0
   -0.4476    1.8650    1.3164 H   0  0  0  0  0  0  0  0  0  0  0  0
    0.0894    0.2759    1.8075 H   0  0  0  0  0  0  0  0  0  0  0  0
    1.2692    1.5695    1.5541 H   0  0  0  0  0  0  0  0  0  0  0  0
   -2.6116    1.8812    6.1663 H   0  0  0  0  0  0  0  0  0  0  0  0
   -1.6156    3.9618    7.1601 H   0  0  0  0  0  0  0  0  0  0  0  0
   -1.1200    2.6085    7.9439 H   0  0  0  0  0  0  0  0  0  0  0  0
    0.4960    4.4780    7.1023 H   0  0  0  0  0  0  0  0  0  0  0  0
    0.8756    4.9138    4.9720 H   0  0  0  0  0  0  0  0  0  0  0  0
   -2.8782    3.8998    5.3390 H   0  0  0  0  0  0  0  0  0  0  0  0
   -3.3410    2.1447    3.5942 H   0  0  0  0  0  0  0  0  0  0  0  0
   -2.0650    2.9068    2.6432 H   0  0  0  0  0  0  0  0  0  0  0  0
   -3.4182    3.8481    3.1768 H   0  0  0  0  0  0  0  0  0  0  0  0
   -0.0062    3.8069    2.8948 H   0  0  0  0  0  0  0  0  0  0  0  0
    1.8158    3.7455    2.3295 H   0  0  0  0  0  0  0  0  0  0  0  0
    1.6860    3.0237    8.3543 H   0  0  0  0  0  0  0  0  0  0  0  0
    3.0782    3.9217    6.1649 H   0  0  0  0  0  0  0  0  0  0  0  0
    3.8234    2.9014    7.3917 H   0  0  0  0  0  0  0  0  0  0  0  0
    3.4189    2.1598    4.6160 H   0  0  0  0  0  0  0  0  0  0  0  0
    4.0810    1.1546    5.8516 H   0  0  0  0  0  0  0  0  0  0  0  0
    1.4787    1.9277    5.2972 H   0  0  0  0  0  0  0  0  0  0  0  0
    3.0028   -0.9071    4.1036 H   0  0  0  0  0  0  0  0  0  0  0  0
    2.5100    0.4589    3.1481 H   0  0  0  0  0  0  0  0  0  0  0  0
    1.6208   -1.0565    3.0393 H   0  0  0  0  0  0  0  0  0  0  0  0
    0.0126   -1.1620    6.2552 H   0  0  0  0  0  0  0  0  0  0  0  0
    0.9870   -2.1034    5.2130 H   0  0  0  0  0  0  0  0  0  0  0  0
    1.7952   -2.0701    7.6469 H   0  0  0  0  0  0  0  0  0  0  0  0
    3.0327   -1.7008    6.4859 H   0  0  0  0  0  0  0  0  0  0  0  0
    2.4201   -0.1564    8.8146 H   0  0  0  0  0  0  0  0  0  0  0  0
    3.5379    0.2569    7.6162 H   0  0  0  0  0  0  0  0  0  0  0  0
    0.3048   -0.3915    8.4761 H   0  0  0  0  0  0  0  0  0  0  0  0
   -0.7253    0.5770    7.5849 H   0  0  0  0  0  0  0  0  0  0  0  0
    0.1207    1.2253    8.9816 H   0  0  0  0  0  0  0  0  0  0  0  0
  1  2  1  0
  1 25  1  0
  1 26  1  0
  1 27  1  0
  2 12  1  0
  2  3  2  3
  3 18  1  0
  3  4  1  0
  4  5  1  0
  5 10  1  0
  5  6  1  0
  5 28  1  1
  6  7  1  0
  6 29  1  0
  6 30  1  0
  7  8  1  0
  7 14  1  0
  7 31  1  1
  8  9  1  0
  8 12  1  0
  8 32  1  1
  9 10  1  0
 10 11  1  0
 10 33  1  1
 11 34  1  0
 11 35  1  0
 11 36  1  0
 12 13  1  0
 12 37  1  6
 13 38  1  0
 14 23  1  0
 14 15  1  0
 14 39  1  1
 15 16  1  0
 15 40  1  0
 15 41  1  0
 16 17  1  0
 16 42  1  0
 16 43  1  0
 17 23  1  0
 17 18  1  0
 17 44  1  6
 18 19  1  6
 18 20  1  0
 19 45  1  0
 19 46  1  0
 19 47  1  0
 20 21  1  0
 20 48  1  0
 20 49  1  0
 21 22  1  0
 21 50  1  0
 21 51  1  0
 22 23  1  0
 22 52  1  0
 22 53  1  0
 23 24  1  6
 24 54  1  0
 24 55  1  0
 24 56  1  0
M  END
>  <i_m_ct_stereo_status>  (416) 
1

>  <s_m_source_file>  (416) 
/var/tmp/pbs.5076255.sched01/tmpk5ywl0l3/150lwq6_0yz.sdf

>  <i_m_source_file_index>  (416) 
18

>  <i_lp_mmshare_version>  (416) 
48012

>  <i_f3d_flags>  (416) 
0

>  <s_epik_input>  (416) 
W0NIM11DMTJDLzM9QyhcW0NIM10pW0NASF0oW09IXSlbQ0BASF00W0NAQEhdKFtDSDJdW0NASF0oTzMpW0NAQEhdKE80KVtDSDNdKVtDQEhdNVtDQEBdKFtDSDNdKShbQ0BIXTFbQ0gyXVtDSDJdNSlbQ0gyXVtDSDJdW0NIMl0y

>  <s_epik_cmdline>  (416) 
J2VwaWtfcHl0aG9uJywgJy1waHQnLCAnMi4wJywgJy1waCcsICc3LjAnLCAnLXRuJywgJzgnLCAnLW1hJywgJzIwMCcsICctaW1hZScsICc8aW5maWxlLm1hZT4nLCAnLW9tYWUnLCAnPG91dGZpbGUubWFlPic=

>  <r_lp_tautomer_probability>  (416) 
1

>  <r_epik_Ionization_Penalty>  (416) 
7.7911e-07

>  <r_epik_Ionization_Penalty_Charging>  (416) 
0

>  <r_epik_Ionization_Penalty_Neutral>  (416) 
7.7911e-07

>  <r_epik_State_Penalty>  (416) 
-0

>  <r_epik_Charging_Adjusted_Penalty>  (416) 
0

>  <i_epik_Tot_Q>  (416) 
0

>  <i_epik_Tot_abs_Q>  (416) 
0

>  <s_lp_Force_Field>  (416) 
OPLS3e

>  <r_lp_Energy>  (416) 
246.698

>  <b_lp_Chiralities_Consistent>  (416) 
1

>  <s_lp_Variant>  (416) 
102:0-1

>  <s_i_glide_gridfile>  (416) 
pfpi4k_grid

>  <i_i_glide_lignum>  (416) 
18

>  <i_i_glide_rotatable_bonds>  (416) 
1

>  <r_i_docking_score>  (416) 
-2.4714

>  <r_i_glide_ligand_efficiency>  (416) 
-0.102975

>  <r_i_glide_ligand_efficiency_sa>  (416) 
-0.297031

>  <r_i_glide_ligand_efficiency_ln>  (416) 
-0.591519

>  <r_i_glide_gscore>  (416) 
-2.4714

>  <r_i_glide_lipo>  (416) 
-0.0134096

>  <r_i_glide_hbond>  (416) 
0

>  <r_i_glide_metal>  (416) 
-0

>  <r_i_glide_rewards>  (416) 
-1.1422

>  <r_i_glide_evdw>  (416) 
-19.4718

>  <r_i_glide_ecoul>  (416) 
-2.28129

>  <r_i_glide_erotb>  (416) 
0

>  <r_i_glide_esite>  (416) 
0

>  <r_i_glide_emodel>  (416) 
-25.1157

>  <r_i_glide_energy>  (416) 
-21.7531

>  <r_i_glide_einternal>  (416) 
0.856742

>  <r_i_glide_intrahb_reward>  (416) 
-0

>  <i_i_glide_confnum>  (416) 
1

>  <i_i_glide_posenum>  (416) 
8

>  <r_i_glide_eff_state_penalty>  (416) 
0

>  <ligand_id>  (416) 
102

>  <original_smiles>  (416) 
CC1=C2OC3CC(C(OC3C)C1O)C1CCC3C2(C)CCCC13C

>  <smiles>  (416) 
[H]OC1([H])C(C([H])([H])[H])=C2OC3([H])C([H])([H])C([H])(C1([H])OC3([H])C([H])([H])[H])C1([H])C([H])([H])C([H])([H])C3([H])C2(C([H])([H])[H])C([H])([H])C([H])([H])C([H])([H])C13C([H])([H])[H]

$$$$
102:0:2
     RDKit          3D

 56 60  0  0  1  0  0  0  0  0999 V2000
    0.3746    4.9428    5.2965 C   0  0  0  0  0  0  0  0  0  0  0  0
    0.2437    3.4259    5.3797 C   0  0  0  0  0  0  0  0  0  0  0  0
    0.1439    2.6827    4.2443 C   0  0  0  0  0  0  0  0  0  0  0  0
   -0.5960    1.5076    4.2061 O   0  0  0  0  0  0  0  0  0  0  0  0
   -1.4277    0.9059    5.2488 C   0  0  1  0  0  0  0  0  0  0  0  0
   -0.7635   -0.3895    5.7893 C   0  0  0  0  0  0  0  0  0  0  0  0
    0.6055   -0.0656    6.4254 C   0  0  2  0  0  0  0  0  0  0  0  0
    0.3694    1.3459    7.2229 C   0  0  2  0  0  0  0  0  0  0  0  0
   -1.0093    1.4372    7.6240 O   0  0  0  0  0  0  0  0  0  0  0  0
   -1.9338    1.6007    6.5347 C   0  0  1  0  0  0  0  0  0  0  0  0
   -2.6604    2.9516    6.4253 C   0  0  0  0  0  0  0  0  0  0  0  0
    0.5998    2.8617    6.7898 C   0  0  1  0  0  0  0  0  0  0  0  0
    1.8989    3.2579    7.1807 O   0  0  0  0  0  0  0  0  0  0  0  0
    1.9267   -0.5559    5.5606 C   0  0  2  0  0  0  0  0  0  0  0  0
    3.2666    0.0970    6.0355 C   0  0  0  0  0  0  0  0  0  0  0  0
    3.4805    1.3531    5.1352 C   0  0  0  0  0  0  0  0  0  0  0  0
    2.1610    1.3091    4.3343 C   0  0  1  0  0  0  0  0  0  0  0  0
    1.5122    2.3918    3.4754 C   0  0  2  0  0  0  0  0  0  0  0  0
    2.4208    3.6350    3.3587 C   0  0  0  0  0  0  0  0  0  0  0  0
    1.4466    1.7328    2.0631 C   0  0  0  0  0  0  0  0  0  0  0  0
    2.6182    0.6928    1.7720 C   0  0  0  0  0  0  0  0  0  0  0  0
    2.9485   -0.3602    2.9146 C   0  0  0  0  0  0  0  0  0  0  0  0
    1.8733   -0.1792    4.0274 C   0  0  1  0  0  0  0  0  0  0  0  0
    0.6834   -0.8966    3.2773 C   0  0  0  0  0  0  0  0  0  0  0  0
   -0.4059    5.4078    5.8979 H   0  0  0  0  0  0  0  0  0  0  0  0
    0.2475    5.2914    4.2714 H   0  0  0  0  0  0  0  0  0  0  0  0
    1.3345    5.2996    5.6678 H   0  0  0  0  0  0  0  0  0  0  0  0
   -2.3228    0.6034    4.7018 H   0  0  0  0  0  0  0  0  0  0  0  0
   -1.3915   -0.7931    6.5775 H   0  0  0  0  0  0  0  0  0  0  0  0
   -0.7912   -1.2433    5.1306 H   0  0  0  0  0  0  0  0  0  0  0  0
    0.6623   -0.7736    7.2539 H   0  0  0  0  0  0  0  0  0  0  0  0
    0.9129    1.2242    8.1613 H   0  0  0  0  0  0  0  0  0  0  0  0
   -2.7517    0.9531    6.8552 H   0  0  0  0  0  0  0  0  0  0  0  0
   -3.1971    3.0324    5.4784 H   0  0  0  0  0  0  0  0  0  0  0  0
   -2.0137    3.8180    6.5200 H   0  0  0  0  0  0  0  0  0  0  0  0
   -3.3966    3.0382    7.2244 H   0  0  0  0  0  0  0  0  0  0  0  0
    0.0067    3.4652    7.4781 H   0  0  0  0  0  0  0  0  0  0  0  0
    2.5205    2.7875    6.6507 H   0  0  0  0  0  0  0  0  0  0  0  0
    2.0052   -1.6403    5.6558 H   0  0  0  0  0  0  0  0  0  0  0  0
    3.2326    0.3471    7.0981 H   0  0  0  0  0  0  0  0  0  0  0  0
    4.0949   -0.6006    5.8926 H   0  0  0  0  0  0  0  0  0  0  0  0
    3.6233    2.2559    5.7225 H   0  0  0  0  0  0  0  0  0  0  0  0
    4.3803    1.2823    4.5268 H   0  0  0  0  0  0  0  0  0  0  0  0
    1.7079    1.5724    5.2284 H   0  0  0  0  0  0  0  0  0  0  0  0
    3.3407    3.4094    2.8235 H   0  0  0  0  0  0  0  0  0  0  0  0
    2.7220    4.0374    4.3221 H   0  0  0  0  0  0  0  0  0  0  0  0
    1.9175    4.4244    2.8022 H   0  0  0  0  0  0  0  0  0  0  0  0
    0.4772    1.2595    1.9148 H   0  0  0  0  0  0  0  0  0  0  0  0
    1.4573    2.5104    1.2985 H   0  0  0  0  0  0  0  0  0  0  0  0
    2.3646    0.1501    0.8610 H   0  0  0  0  0  0  0  0  0  0  0  0
    3.5266    1.2469    1.5407 H   0  0  0  0  0  0  0  0  0  0  0  0
    2.9478   -1.3762    2.5103 H   0  0  0  0  0  0  0  0  0  0  0  0
    3.9806   -0.2548    3.2407 H   0  0  0  0  0  0  0  0  0  0  0  0
    0.8336   -1.0582    2.2070 H   0  0  0  0  0  0  0  0  0  0  0  0
   -0.2876   -0.4331    3.2689 H   0  0  0  0  0  0  0  0  0  0  0  0
    0.5769   -1.9126    3.6579 H   0  0  0  0  0  0  0  0  0  0  0  0
  1  2  1  0
  1 25  1  0
  1 26  1  0
  1 27  1  0
  2 12  1  0
  2  3  2  3
  3 18  1  0
  3  4  1  0
  4  5  1  0
  5 10  1  0
  5  6  1  0
  5 28  1  6
  6  7  1  0
  6 29  1  0
  6 30  1  0
  7  8  1  0
  7 14  1  0
  7 31  1  1
  8  9  1  0
  8 12  1  0
  8 32  1  1
  9 10  1  0
 10 11  1  0
 10 33  1  1
 11 34  1  0
 11 35  1  0
 11 36  1  0
 12 13  1  0
 12 37  1  1
 13 38  1  0
 14 23  1  0
 14 15  1  0
 14 39  1  6
 15 16  1  0
 15 40  1  0
 15 41  1  0
 16 17  1  0
 16 42  1  0
 16 43  1  0
 17 23  1  0
 17 18  1  0
 17 44  1  1
 18 19  1  6
 18 20  1  0
 19 45  1  0
 19 46  1  0
 19 47  1  0
 20 21  1  0
 20 48  1  0
 20 49  1  0
 21 22  1  0
 21 50  1  0
 21 51  1  0
 22 23  1  0
 22 52  1  0
 22 53  1  0
 23 24  1  6
 24 54  1  0
 24 55  1  0
 24 56  1  0
M  END
>  <i_m_ct_stereo_status>  (417) 
1

>  <s_m_source_file>  (417) 
/var/tmp/pbs.5076255.sched01/tmpk5ywl0l3/150lwq6_0yz.sdf

>  <i_m_source_file_index>  (417) 
18

>  <i_lp_mmshare_version>  (417) 
48012

>  <i_f3d_flags>  (417) 
0

>  <s_epik_input>  (417) 
W0NIM11DMTJDLzM9QyhcW0NIM10pW0NASF0oW09IXSlbQ0BASF00W0NAQEhdKFtDSDJdW0NASF0oTzMpW0NAQEhdKE80KVtDSDNdKVtDQEhdNVtDQEBdKFtDSDNdKShbQ0BIXTFbQ0gyXVtDSDJdNSlbQ0gyXVtDSDJdW0NIMl0y

>  <s_epik_cmdline>  (417) 
J2VwaWtfcHl0aG9uJywgJy1waHQnLCAnMi4wJywgJy1waCcsICc3LjAnLCAnLXRuJywgJzgnLCAnLW1hJywgJzIwMCcsICctaW1hZScsICc8aW5maWxlLm1hZT4nLCAnLW9tYWUnLCAnPG91dGZpbGUubWFlPic=

>  <r_lp_tautomer_probability>  (417) 
1

>  <r_epik_Ionization_Penalty>  (417) 
7.7911e-07

>  <r_epik_Ionization_Penalty_Charging>  (417) 
0

>  <r_epik_Ionization_Penalty_Neutral>  (417) 
7.7911e-07

>  <r_epik_State_Penalty>  (417) 
-0

>  <r_epik_Charging_Adjusted_Penalty>  (417) 
0

>  <i_epik_Tot_Q>  (417) 
0

>  <i_epik_Tot_abs_Q>  (417) 
0

>  <s_lp_Force_Field>  (417) 
OPLS3e

>  <r_lp_Energy>  (417) 
246.698

>  <b_lp_Chiralities_Consistent>  (417) 
1

>  <s_lp_Variant>  (417) 
102:0-1

>  <s_i_glide_gridfile>  (417) 
pfpi4k_grid

>  <i_i_glide_lignum>  (417) 
18

>  <i_i_glide_rotatable_bonds>  (417) 
1

>  <r_i_docking_score>  (417) 
-2.37775

>  <r_i_glide_ligand_efficiency>  (417) 
-0.0990729

>  <r_i_glide_ligand_efficiency_sa>  (417) 
-0.285776

>  <r_i_glide_ligand_efficiency_ln>  (417) 
-0.569105

>  <r_i_glide_gscore>  (417) 
-2.37775

>  <r_i_glide_lipo>  (417) 
-0.17539

>  <r_i_glide_hbond>  (417) 
0

>  <r_i_glide_metal>  (417) 
-0

>  <r_i_glide_rewards>  (417) 
-1.1422

>  <r_i_glide_evdw>  (417) 
-21.7239

>  <r_i_glide_ecoul>  (417) 
0.17357

>  <r_i_glide_erotb>  (417) 
0

>  <r_i_glide_esite>  (417) 
0

>  <r_i_glide_emodel>  (417) 
-25.2253

>  <r_i_glide_energy>  (417) 
-21.5503

>  <r_i_glide_einternal>  (417) 
0.0101542

>  <r_i_glide_intrahb_reward>  (417) 
-0

>  <i_i_glide_confnum>  (417) 
1

>  <i_i_glide_posenum>  (417) 
32

>  <r_i_glide_eff_state_penalty>  (417) 
0

>  <ligand_id>  (417) 
102

>  <original_smiles>  (417) 
CC1=C2OC3CC(C(OC3C)C1O)C1CCC3C2(C)CCCC13C

>  <smiles>  (417) 
[H]OC1([H])C(C([H])([H])[H])=C2OC3([H])C([H])([H])C([H])(C1([H])OC3([H])C([H])([H])[H])C1([H])C([H])([H])C([H])([H])C3([H])C2(C([H])([H])[H])C([H])([H])C([H])([H])C([H])([H])C13C([H])([H])[H]

$$$$
102:1:0
     RDKit          3D

 56 60  0  0  1  0  0  0  0  0999 V2000
    7.7672   -4.8878    0.5033 C   0  0  0  0  0  0  0  0  0  0  0  0
    6.3952   -4.2548    0.2522 C   0  0  0  0  0  0  0  0  0  0  0  0
    5.2171   -4.9344    0.3651 C   0  0  0  0  0  0  0  0  0  0  0  0
    4.0309   -4.7429   -0.3233 O   0  0  0  0  0  0  0  0  0  0  0  0
    3.6043   -3.6398   -1.1402 C   0  0  1  0  0  0  0  0  0  0  0  0
    2.9443   -2.6225   -0.2471 C   0  0  0  0  0  0  0  0  0  0  0  0
    3.9551   -2.1746    0.7672 C   0  0  2  0  0  0  0  0  0  0  0  0
    5.3078   -1.8672   -0.0271 C   0  0  2  0  0  0  0  0  0  0  0  0
    5.0774   -1.7064   -1.4307 O   0  0  0  0  0  0  0  0  0  0  0  0
    4.5104   -2.8491   -2.0810 C   0  0  1  0  0  0  0  0  0  0  0  0
    5.4770   -3.6656   -2.9254 C   0  0  0  0  0  0  0  0  0  0  0  0
    6.5418   -2.7776   -0.0612 C   0  0  1  0  0  0  0  0  0  0  0  0
    7.4832   -2.1496    0.8009 O   0  0  0  0  0  0  0  0  0  0  0  0
    3.8035   -2.7880    2.2398 C   0  0  2  0  0  0  0  0  0  0  0  0
    5.0862   -2.6890    3.0654 C   0  0  0  0  0  0  0  0  0  0  0  0
    5.5786   -4.1392    3.2952 C   0  0  0  0  0  0  0  0  0  0  0  0
    4.5441   -5.1437    2.7774 C   0  0  2  0  0  0  0  0  0  0  0  0
    4.9111   -5.9766    1.4960 C   0  0  2  0  0  0  0  0  0  0  0  0
    6.0523   -6.9703    1.8135 C   0  0  0  0  0  0  0  0  0  0  0  0
    3.6829   -6.8891    1.1654 C   0  0  0  0  0  0  0  0  0  0  0  0
    2.3437   -6.4832    1.8126 C   0  0  0  0  0  0  0  0  0  0  0  0
    2.1726   -4.9694    1.8371 C   0  0  0  0  0  0  0  0  0  0  0  0
    3.2869   -4.2455    2.6470 C   0  0  2  0  0  0  0  0  0  0  0  0
    2.6660   -4.1094    4.0750 C   0  0  0  0  0  0  0  0  0  0  0  0
    8.1594   -4.7611    1.5115 H   0  0  0  0  0  0  0  0  0  0  0  0
    8.4904   -4.4429   -0.1794 H   0  0  0  0  0  0  0  0  0  0  0  0
    7.7750   -5.9374    0.2278 H   0  0  0  0  0  0  0  0  0  0  0  0
    2.8156   -4.0411   -1.7693 H   0  0  0  0  0  0  0  0  0  0  0  0
    2.6962   -1.7722   -0.8904 H   0  0  0  0  0  0  0  0  0  0  0  0
    1.9868   -2.8776    0.1788 H   0  0  0  0  0  0  0  0  0  0  0  0
    3.6030   -1.1662    0.9594 H   0  0  0  0  0  0  0  0  0  0  0  0
    5.6037   -0.8672    0.2907 H   0  0  0  0  0  0  0  0  0  0  0  0
    3.8444   -2.3987   -2.8104 H   0  0  0  0  0  0  0  0  0  0  0  0
    4.9575   -4.3996   -3.5412 H   0  0  0  0  0  0  0  0  0  0  0  0
    6.1823   -4.2116   -2.3152 H   0  0  0  0  0  0  0  0  0  0  0  0
    6.0754   -3.0179   -3.5586 H   0  0  0  0  0  0  0  0  0  0  0  0
    7.0560   -2.6888   -1.0137 H   0  0  0  0  0  0  0  0  0  0  0  0
    7.1180   -2.1177    1.6541 H   0  0  0  0  0  0  0  0  0  0  0  0
    3.0950   -2.0909    2.7055 H   0  0  0  0  0  0  0  0  0  0  0  0
    5.8316   -2.0241    2.6397 H   0  0  0  0  0  0  0  0  0  0  0  0
    4.8650   -2.2378    4.0370 H   0  0  0  0  0  0  0  0  0  0  0  0
    6.5304   -4.3179    2.8219 H   0  0  0  0  0  0  0  0  0  0  0  0
    5.7466   -4.2831    4.3621 H   0  0  0  0  0  0  0  0  0  0  0  0
    4.3815   -5.8700    3.5805 H   0  0  0  0  0  0  0  0  0  0  0  0
    5.7346   -7.7269    2.5354 H   0  0  0  0  0  0  0  0  0  0  0  0
    6.9268   -6.5127    2.2644 H   0  0  0  0  0  0  0  0  0  0  0  0
    6.3527   -7.5063    0.9184 H   0  0  0  0  0  0  0  0  0  0  0  0
    3.5700   -6.9660    0.0909 H   0  0  0  0  0  0  0  0  0  0  0  0
    3.8551   -7.9202    1.4713 H   0  0  0  0  0  0  0  0  0  0  0  0
    1.5244   -6.9311    1.2489 H   0  0  0  0  0  0  0  0  0  0  0  0
    2.2685   -6.8846    2.8269 H   0  0  0  0  0  0  0  0  0  0  0  0
    2.0835   -4.7236    0.7935 H   0  0  0  0  0  0  0  0  0  0  0  0
    1.2034   -4.7359    2.2577 H   0  0  0  0  0  0  0  0  0  0  0  0
    2.3255   -5.0715    4.4539 H   0  0  0  0  0  0  0  0  0  0  0  0
    1.8058   -3.4377    4.0782 H   0  0  0  0  0  0  0  0  0  0  0  0
    3.3649   -3.7209    4.8151 H   0  0  0  0  0  0  0  0  0  0  0  0
  1  2  1  0
  1 25  1  0
  1 26  1  0
  1 27  1  0
  2 12  1  0
  2  3  2  3
  3 18  1  0
  3  4  1  0
  4  5  1  0
  5 10  1  0
  5  6  1  0
  5 28  1  6
  6  7  1  0
  6 29  1  0
  6 30  1  0
  7  8  1  0
  7 14  1  0
  7 31  1  1
  8  9  1  0
  8 12  1  0
  8 32  1  1
  9 10  1  0
 10 11  1  0
 10 33  1  6
 11 34  1  0
 11 35  1  0
 11 36  1  0
 12 13  1  0
 12 37  1  6
 13 38  1  0
 14 23  1  0
 14 15  1  0
 14 39  1  1
 15 16  1  0
 15 40  1  0
 15 41  1  0
 16 17  1  0
 16 42  1  0
 16 43  1  0
 17 23  1  0
 17 18  1  0
 17 44  1  1
 18 19  1  1
 18 20  1  0
 19 45  1  0
 19 46  1  0
 19 47  1  0
 20 21  1  0
 20 48  1  0
 20 49  1  0
 21 22  1  0
 21 50  1  0
 21 51  1  0
 22 23  1  0
 22 52  1  0
 22 53  1  0
 23 24  1  1
 24 54  1  0
 24 55  1  0
 24 56  1  0
M  END
>  <i_m_ct_stereo_status>  (418) 
1

>  <s_m_source_file>  (418) 
/var/tmp/pbs.5076255.sched01/tmpk5ywl0l3/150lwq6_0yz.sdf

>  <i_m_source_file_index>  (418) 
19

>  <i_lp_mmshare_version>  (418) 
48012

>  <i_f3d_flags>  (418) 
2

>  <s_epik_input>  (418) 
W0NIM11DMTJDLzM9QyhcW0NIM10pW0NASF0oW09IXSlbQ0BASF00W0NAQEhdKFtDSDJdW0NASF0oTzMpW0NAQEhdKE80KVtDSDNdKVtDQEhdNVtDQEBdKFtDSDNdKShbQ0BIXTFbQ0gyXVtDSDJdNSlbQ0gyXVtDSDJdW0NIMl0y

>  <s_epik_cmdline>  (418) 
J2VwaWtfcHl0aG9uJywgJy1waHQnLCAnMi4wJywgJy1waCcsICc3LjAnLCAnLXRuJywgJzgnLCAnLW1hJywgJzIwMCcsICctaW1hZScsICc8aW5maWxlLm1hZT4nLCAnLW9tYWUnLCAnPG91dGZpbGUubWFlPic=

>  <r_lp_tautomer_probability>  (418) 
1

>  <r_epik_Ionization_Penalty>  (418) 
7.7911e-07

>  <r_epik_Ionization_Penalty_Charging>  (418) 
0

>  <r_epik_Ionization_Penalty_Neutral>  (418) 
7.7911e-07

>  <r_epik_State_Penalty>  (418) 
-0

>  <r_epik_Charging_Adjusted_Penalty>  (418) 
0

>  <i_epik_Tot_Q>  (418) 
0

>  <i_epik_Tot_abs_Q>  (418) 
0

>  <s_lp_Force_Field>  (418) 
OPLS3e

>  <r_lp_Energy>  (418) 
145.196

>  <b_lp_Chiralities_Consistent>  (418) 
0

>  <s_lp_Variant>  (418) 
102:0-2

>  <s_i_glide_gridfile>  (418) 
pfpi4k_grid

>  <i_i_glide_lignum>  (418) 
19

>  <i_i_glide_rotatable_bonds>  (418) 
1

>  <r_i_docking_score>  (418) 
-2.9371

>  <r_i_glide_ligand_efficiency>  (418) 
-0.122379

>  <r_i_glide_ligand_efficiency_sa>  (418) 
-0.353003

>  <r_i_glide_ligand_efficiency_ln>  (418) 
-0.702983

>  <r_i_glide_gscore>  (418) 
-2.9371

>  <r_i_glide_lipo>  (418) 
-0.784984

>  <r_i_glide_hbond>  (418) 
0

>  <r_i_glide_metal>  (418) 
-0

>  <r_i_glide_rewards>  (418) 
-1.1422

>  <r_i_glide_evdw>  (418) 
-17.5378

>  <r_i_glide_ecoul>  (418) 
-0.886825

>  <r_i_glide_erotb>  (418) 
0

>  <r_i_glide_esite>  (418) 
0

>  <r_i_glide_emodel>  (418) 
-21.0114

>  <r_i_glide_energy>  (418) 
-18.4246

>  <r_i_glide_einternal>  (418) 
0.0136241

>  <r_i_glide_intrahb_reward>  (418) 
-0

>  <i_i_glide_confnum>  (418) 
1

>  <i_i_glide_posenum>  (418) 
1

>  <r_i_glide_eff_state_penalty>  (418) 
0

>  <ligand_id>  (418) 
102

>  <original_smiles>  (418) 
CC1=C2OC3CC(C(OC3C)C1O)C1CCC3C2(C)CCCC13C

>  <smiles>  (418) 
[H]OC1([H])C(C([H])([H])[H])=C2OC3([H])C([H])([H])C([H])(C1([H])OC3([H])C([H])([H])[H])C1([H])C([H])([H])C([H])([H])C3([H])C2(C([H])([H])[H])C([H])([H])C([H])([H])C([H])([H])C13C([H])([H])[H]

$$$$
102:1:1
     RDKit          3D

 56 60  0  0  1  0  0  0  0  0999 V2000
    7.8841   -3.9179    0.7047 C   0  0  0  0  0  0  0  0  0  0  0  0
    6.4602   -3.5049    0.3265 C   0  0  0  0  0  0  0  0  0  0  0  0
    5.3644   -4.2648    0.6077 C   0  0  0  0  0  0  0  0  0  0  0  0
    4.1836   -4.3878   -0.1182 O   0  0  0  0  0  0  0  0  0  0  0  0
    3.6855   -3.5850   -1.1808 C   0  0  1  0  0  0  0  0  0  0  0  0
    2.9321   -2.4446   -0.5735 C   0  0  0  0  0  0  0  0  0  0  0  0
    3.8209   -1.6165    0.2978 C   0  0  2  0  0  0  0  0  0  0  0  0
    5.1572   -1.3717   -0.5259 C   0  0  2  0  0  0  0  0  0  0  0  0
    4.9576   -1.6069   -1.9291 O   0  0  0  0  0  0  0  0  0  0  0  0
    4.5158   -2.9267   -2.2862 C   0  0  1  0  0  0  0  0  0  0  0  0
    5.5572   -3.8257   -2.8906 C   0  0  0  0  0  0  0  0  0  0  0  0
    6.4852   -2.1226   -0.2953 C   0  0  1  0  0  0  0  0  0  0  0  0
    7.3488   -1.2542    0.4235 O   0  0  0  0  0  0  0  0  0  0  0  0
    3.6589   -1.8266    1.8750 C   0  0  2  0  0  0  0  0  0  0  0  0
    4.8811   -1.3528    2.6576 C   0  0  0  0  0  0  0  0  0  0  0  0
    5.5153   -2.6277    3.2187 C   0  0  0  0  0  0  0  0  0  0  0  0
    4.6324   -3.8636    2.9908 C   0  0  2  0  0  0  0  0  0  0  0  0
    5.1202   -4.9759    1.9681 C   0  0  2  0  0  0  0  0  0  0  0  0
    6.3487   -5.7234    2.5424 C   0  0  0  0  0  0  0  0  0  0  0  0
    3.9995   -6.0769    1.8799 C   0  0  0  0  0  0  0  0  0  0  0  0
    2.6141   -5.6586    2.4164 C   0  0  0  0  0  0  0  0  0  0  0  0
    2.2730   -4.2139    2.0666 C   0  0  0  0  0  0  0  0  0  0  0  0
    3.2868   -3.1821    2.6432 C   0  0  2  0  0  0  0  0  0  0  0  0
    2.6257   -2.7562    3.9934 C   0  0  0  0  0  0  0  0  0  0  0  0
    8.2178   -3.4991    1.6487 H   0  0  0  0  0  0  0  0  0  0  0  0
    8.5780   -3.5649   -0.0638 H   0  0  0  0  0  0  0  0  0  0  0  0
    8.0060   -4.9988    0.7101 H   0  0  0  0  0  0  0  0  0  0  0  0
    2.9524   -4.2444   -1.6542 H   0  0  0  0  0  0  0  0  0  0  0  0
    2.6105   -1.8090   -1.3989 H   0  0  0  0  0  0  0  0  0  0  0  0
    1.9839   -2.6595   -0.1062 H   0  0  0  0  0  0  0  0  0  0  0  0
    3.3408   -0.6391    0.2008 H   0  0  0  0  0  0  0  0  0  0  0  0
    5.3515   -0.2938   -0.4775 H   0  0  0  0  0  0  0  0  0  0  0  0
    3.8201   -2.7411   -3.1067 H   0  0  0  0  0  0  0  0  0  0  0  0
    5.0774   -4.7175   -3.2908 H   0  0  0  0  0  0  0  0  0  0  0  0
    6.2604   -4.1500   -2.1386 H   0  0  0  0  0  0  0  0  0  0  0  0
    6.1155   -3.3364   -3.6820 H   0  0  0  0  0  0  0  0  0  0  0  0
    7.0060   -2.2221   -1.2469 H   0  0  0  0  0  0  0  0  0  0  0  0
    6.9079   -0.9537    1.1948 H   0  0  0  0  0  0  0  0  0  0  0  0
    2.8651   -1.1234    2.1318 H   0  0  0  0  0  0  0  0  0  0  0  0
    5.5732   -0.7562    2.0705 H   0  0  0  0  0  0  0  0  0  0  0  0
    4.5888   -0.6973    3.4841 H   0  0  0  0  0  0  0  0  0  0  0  0
    6.4647   -2.7460    2.7315 H   0  0  0  0  0  0  0  0  0  0  0  0
    5.6954   -2.4985    4.2864 H   0  0  0  0  0  0  0  0  0  0  0  0
    4.5316   -4.3727    3.9518 H   0  0  0  0  0  0  0  0  0  0  0  0
    6.0943   -6.2933    3.4368 H   0  0  0  0  0  0  0  0  0  0  0  0
    7.1531   -5.0649    2.8560 H   0  0  0  0  0  0  0  0  0  0  0  0
    6.7339   -6.4393    1.8165 H   0  0  0  0  0  0  0  0  0  0  0  0
    3.9096   -6.4563    0.8632 H   0  0  0  0  0  0  0  0  0  0  0  0
    4.2725   -6.9653    2.4494 H   0  0  0  0  0  0  0  0  0  0  0  0
    1.8554   -6.3196    1.9940 H   0  0  0  0  0  0  0  0  0  0  0  0
    2.5680   -5.7899    3.4966 H   0  0  0  0  0  0  0  0  0  0  0  0
    2.1908   -4.2619    1.0008 H   0  0  0  0  0  0  0  0  0  0  0  0
    1.2707   -3.9897    2.4336 H   0  0  0  0  0  0  0  0  0  0  0  0
    2.3784   -3.6221    4.6084 H   0  0  0  0  0  0  0  0  0  0  0  0
    1.7007   -2.2026    3.8241 H   0  0  0  0  0  0  0  0  0  0  0  0
    3.2602   -2.1197    4.6083 H   0  0  0  0  0  0  0  0  0  0  0  0
  1  2  1  0
  1 25  1  0
  1 26  1  0
  1 27  1  0
  2 12  1  0
  2  3  2  3
  3 18  1  0
  3  4  1  0
  4  5  1  0
  5 10  1  0
  5  6  1  0
  5 28  1  6
  6  7  1  0
  6 29  1  0
  6 30  1  0
  7  8  1  0
  7 14  1  0
  7 31  1  1
  8  9  1  0
  8 12  1  0
  8 32  1  6
  9 10  1  0
 10 11  1  0
 10 33  1  6
 11 34  1  0
 11 35  1  0
 11 36  1  0
 12 13  1  0
 12 37  1  6
 13 38  1  0
 14 23  1  0
 14 15  1  0
 14 39  1  1
 15 16  1  0
 15 40  1  0
 15 41  1  0
 16 17  1  0
 16 42  1  0
 16 43  1  0
 17 23  1  0
 17 18  1  0
 17 44  1  1
 18 19  1  1
 18 20  1  0
 19 45  1  0
 19 46  1  0
 19 47  1  0
 20 21  1  0
 20 48  1  0
 20 49  1  0
 21 22  1  0
 21 50  1  0
 21 51  1  0
 22 23  1  0
 22 52  1  0
 22 53  1  0
 23 24  1  1
 24 54  1  0
 24 55  1  0
 24 56  1  0
M  END
>  <i_m_ct_stereo_status>  (419) 
1

>  <s_m_source_file>  (419) 
/var/tmp/pbs.5076255.sched01/tmpk5ywl0l3/150lwq6_0yz.sdf

>  <i_m_source_file_index>  (419) 
19

>  <i_lp_mmshare_version>  (419) 
48012

>  <i_f3d_flags>  (419) 
2

>  <s_epik_input>  (419) 
W0NIM11DMTJDLzM9QyhcW0NIM10pW0NASF0oW09IXSlbQ0BASF00W0NAQEhdKFtDSDJdW0NASF0oTzMpW0NAQEhdKE80KVtDSDNdKVtDQEhdNVtDQEBdKFtDSDNdKShbQ0BIXTFbQ0gyXVtDSDJdNSlbQ0gyXVtDSDJdW0NIMl0y

>  <s_epik_cmdline>  (419) 
J2VwaWtfcHl0aG9uJywgJy1waHQnLCAnMi4wJywgJy1waCcsICc3LjAnLCAnLXRuJywgJzgnLCAnLW1hJywgJzIwMCcsICctaW1hZScsICc8aW5maWxlLm1hZT4nLCAnLW9tYWUnLCAnPG91dGZpbGUubWFlPic=

>  <r_lp_tautomer_probability>  (419) 
1

>  <r_epik_Ionization_Penalty>  (419) 
7.7911e-07

>  <r_epik_Ionization_Penalty_Charging>  (419) 
0

>  <r_epik_Ionization_Penalty_Neutral>  (419) 
7.7911e-07

>  <r_epik_State_Penalty>  (419) 
-0

>  <r_epik_Charging_Adjusted_Penalty>  (419) 
0

>  <i_epik_Tot_Q>  (419) 
0

>  <i_epik_Tot_abs_Q>  (419) 
0

>  <s_lp_Force_Field>  (419) 
OPLS3e

>  <r_lp_Energy>  (419) 
145.196

>  <b_lp_Chiralities_Consistent>  (419) 
0

>  <s_lp_Variant>  (419) 
102:0-2

>  <s_i_glide_gridfile>  (419) 
pfpi4k_grid

>  <i_i_glide_lignum>  (419) 
19

>  <i_i_glide_rotatable_bonds>  (419) 
1

>  <r_i_docking_score>  (419) 
-2.73541

>  <r_i_glide_ligand_efficiency>  (419) 
-0.113976

>  <r_i_glide_ligand_efficiency_sa>  (419) 
-0.328762

>  <r_i_glide_ligand_efficiency_ln>  (419) 
-0.65471

>  <r_i_glide_gscore>  (419) 
-2.73541

>  <r_i_glide_lipo>  (419) 
-0.631343

>  <r_i_glide_hbond>  (419) 
0

>  <r_i_glide_metal>  (419) 
-0

>  <r_i_glide_rewards>  (419) 
-1.1422

>  <r_i_glide_evdw>  (419) 
-11.887

>  <r_i_glide_ecoul>  (419) 
-2.4501

>  <r_i_glide_erotb>  (419) 
0

>  <r_i_glide_esite>  (419) 
0

>  <r_i_glide_emodel>  (419) 
-16.4536

>  <r_i_glide_energy>  (419) 
-14.3371

>  <r_i_glide_einternal>  (419) 
0.012281

>  <r_i_glide_intrahb_reward>  (419) 
-0

>  <i_i_glide_confnum>  (419) 
1

>  <i_i_glide_posenum>  (419) 
30

>  <r_i_glide_eff_state_penalty>  (419) 
0

>  <ligand_id>  (419) 
102

>  <original_smiles>  (419) 
CC1=C2OC3CC(C(OC3C)C1O)C1CCC3C2(C)CCCC13C

>  <smiles>  (419) 
[H]OC1([H])C(C([H])([H])[H])=C2OC3([H])C([H])([H])C([H])(C1([H])OC3([H])C([H])([H])[H])C1([H])C([H])([H])C([H])([H])C3([H])C2(C([H])([H])[H])C([H])([H])C([H])([H])C([H])([H])C13C([H])([H])[H]

$$$$
102:1:2
     RDKit          3D

 56 60  0  0  1  0  0  0  0  0999 V2000
    7.7545   -2.5508    0.1075 C   0  0  0  0  0  0  0  0  0  0  0  0
    6.2387   -2.7277    0.0373 C   0  0  0  0  0  0  0  0  0  0  0  0
    5.6154   -3.9100    0.2999 C   0  0  0  0  0  0  0  0  0  0  0  0
    4.4490   -4.4092   -0.2564 O   0  0  0  0  0  0  0  0  0  0  0  0
    3.4708   -3.7399   -1.0393 C   0  0  1  0  0  0  0  0  0  0  0  0
    2.4515   -3.1563   -0.1077 C   0  0  0  0  0  0  0  0  0  0  0  0
    3.1143   -2.1283    0.7570 C   0  0  2  0  0  0  0  0  0  0  0  0
    4.0539   -1.2549   -0.1861 C   0  0  2  0  0  0  0  0  0  0  0  0
    3.6999   -1.3677   -1.5752 O   0  0  0  0  0  0  0  0  0  0  0  0
    3.7688   -2.6942   -2.1199 C   0  0  1  0  0  0  0  0  0  0  0  0
    4.9553   -3.0004   -3.0397 C   0  0  0  0  0  0  0  0  0  0  0  0
    5.5848   -1.3984   -0.3016 C   0  0  1  0  0  0  0  0  0  0  0  0
    6.1450   -0.3340    0.4403 O   0  0  0  0  0  0  0  0  0  0  0  0
    3.3941   -2.5888    2.2556 C   0  0  2  0  0  0  0  0  0  0  0  0
    4.4833   -1.7492    2.9196 C   0  0  0  0  0  0  0  0  0  0  0  0
    5.6671   -2.6909    3.1138 C   0  0  0  0  0  0  0  0  0  0  0  0
    5.2930   -4.1476    2.7854 C   0  0  2  0  0  0  0  0  0  0  0  0
    5.9500   -4.8272    1.5104 C   0  0  2  0  0  0  0  0  0  0  0  0
    7.4635   -5.0797    1.7294 C   0  0  0  0  0  0  0  0  0  0  0  0
    5.3411   -6.2740    1.3604 C   0  0  0  0  0  0  0  0  0  0  0  0
    4.0470   -6.5496    2.1581 C   0  0  0  0  0  0  0  0  0  0  0  0
    3.1041   -5.3522    2.1462 C   0  0  0  0  0  0  0  0  0  0  0  0
    3.7400   -4.0652    2.7740 C   0  0  2  0  0  0  0  0  0  0  0  0
    3.2672   -4.1340    4.2639 C   0  0  0  0  0  0  0  0  0  0  0  0
    8.0670   -2.1216    1.0485 H   0  0  0  0  0  0  0  0  0  0  0  0
    8.0897   -1.8629   -0.6700 H   0  0  0  0  0  0  0  0  0  0  0  0
    8.2860   -3.4792   -0.0940 H   0  0  0  0  0  0  0  0  0  0  0  0
    2.8927   -4.5169   -1.5145 H   0  0  0  0  0  0  0  0  0  0  0  0
    1.7580   -2.6803   -0.7839 H   0  0  0  0  0  0  0  0  0  0  0  0
    1.8068   -3.8333    0.4381 H   0  0  0  0  0  0  0  0  0  0  0  0
    2.2928   -1.4309    0.9228 H   0  0  0  0  0  0  0  0  0  0  0  0
    3.8222   -0.2131    0.0546 H   0  0  0  0  0  0  0  0  0  0  0  0
    2.9020   -2.7228   -2.7829 H   0  0  0  0  0  0  0  0  0  0  0  0
    4.8091   -3.9543   -3.5543 H   0  0  0  0  0  0  0  0  0  0  0  0
    5.9055   -3.0734   -2.5101 H   0  0  0  0  0  0  0  0  0  0  0  0
    5.0401   -2.2153   -3.7906 H   0  0  0  0  0  0  0  0  0  0  0  0
    5.8894   -1.1358   -1.3159 H   0  0  0  0  0  0  0  0  0  0  0  0
    5.8026    0.4705    0.0922 H   0  0  0  0  0  0  0  0  0  0  0  0
    2.4696   -2.3213    2.7659 H   0  0  0  0  0  0  0  0  0  0  0  0
    4.7468   -0.8433    2.3819 H   0  0  0  0  0  0  0  0  0  0  0  0
    4.1492   -1.3935    3.8997 H   0  0  0  0  0  0  0  0  0  0  0  0
    6.5250   -2.3427    2.5560 H   0  0  0  0  0  0  0  0  0  0  0  0
    5.9125   -2.6512    4.1731 H   0  0  0  0  0  0  0  0  0  0  0  0
    5.6055   -4.7665    3.6287 H   0  0  0  0  0  0  0  0  0  0  0  0
    7.6345   -5.8064    2.5233 H   0  0  0  0  0  0  0  0  0  0  0  0
    8.0104   -4.2017    2.0500 H   0  0  0  0  0  0  0  0  0  0  0  0
    7.9298   -5.4778    0.8285 H   0  0  0  0  0  0  0  0  0  0  0  0
    5.1970   -6.5243    0.3093 H   0  0  0  0  0  0  0  0  0  0  0  0
    6.0450   -7.0335    1.6983 H   0  0  0  0  0  0  0  0  0  0  0  0
    3.5338   -7.4043    1.7164 H   0  0  0  0  0  0  0  0  0  0  0  0
    4.2756   -6.8232    3.1848 H   0  0  0  0  0  0  0  0  0  0  0  0
    2.8759   -5.3286    1.1040 H   0  0  0  0  0  0  0  0  0  0  0  0
    2.1555   -5.5943    2.6320 H   0  0  0  0  0  0  0  0  0  0  0  0
    3.5065   -5.0956    4.7220 H   0  0  0  0  0  0  0  0  0  0  0  0
    2.1874   -4.0026    4.3437 H   0  0  0  0  0  0  0  0  0  0  0  0
    3.7184   -3.3756    4.9031 H   0  0  0  0  0  0  0  0  0  0  0  0
  1  2  1  0
  1 25  1  0
  1 26  1  0
  1 27  1  0
  2 12  1  0
  2  3  2  3
  3 18  1  0
  3  4  1  0
  4  5  1  0
  5 10  1  0
  5  6  1  0
  5 28  1  6
  6  7  1  0
  6 29  1  0
  6 30  1  0
  7  8  1  0
  7 14  1  0
  7 31  1  1
  8  9  1  0
  8 12  1  0
  8 32  1  1
  9 10  1  0
 10 11  1  0
 10 33  1  6
 11 34  1  0
 11 35  1  0
 11 36  1  0
 12 13  1  0
 12 37  1  6
 13 38  1  0
 14 23  1  0
 14 15  1  0
 14 39  1  1
 15 16  1  0
 15 40  1  0
 15 41  1  0
 16 17  1  0
 16 42  1  0
 16 43  1  0
 17 23  1  0
 17 18  1  0
 17 44  1  1
 18 19  1  1
 18 20  1  0
 19 45  1  0
 19 46  1  0
 19 47  1  0
 20 21  1  0
 20 48  1  0
 20 49  1  0
 21 22  1  0
 21 50  1  0
 21 51  1  0
 22 23  1  0
 22 52  1  0
 22 53  1  0
 23 24  1  1
 24 54  1  0
 24 55  1  0
 24 56  1  0
M  END
>  <i_m_ct_stereo_status>  (420) 
1

>  <s_m_source_file>  (420) 
/var/tmp/pbs.5076255.sched01/tmpk5ywl0l3/150lwq6_0yz.sdf

>  <i_m_source_file_index>  (420) 
19

>  <i_lp_mmshare_version>  (420) 
48012

>  <i_f3d_flags>  (420) 
2

>  <s_epik_input>  (420) 
W0NIM11DMTJDLzM9QyhcW0NIM10pW0NASF0oW09IXSlbQ0BASF00W0NAQEhdKFtDSDJdW0NASF0oTzMpW0NAQEhdKE80KVtDSDNdKVtDQEhdNVtDQEBdKFtDSDNdKShbQ0BIXTFbQ0gyXVtDSDJdNSlbQ0gyXVtDSDJdW0NIMl0y

>  <s_epik_cmdline>  (420) 
J2VwaWtfcHl0aG9uJywgJy1waHQnLCAnMi4wJywgJy1waCcsICc3LjAnLCAnLXRuJywgJzgnLCAnLW1hJywgJzIwMCcsICctaW1hZScsICc8aW5maWxlLm1hZT4nLCAnLW9tYWUnLCAnPG91dGZpbGUubWFlPic=

>  <r_lp_tautomer_probability>  (420) 
1

>  <r_epik_Ionization_Penalty>  (420) 
7.7911e-07

>  <r_epik_Ionization_Penalty_Charging>  (420) 
0

>  <r_epik_Ionization_Penalty_Neutral>  (420) 
7.7911e-07

>  <r_epik_State_Penalty>  (420) 
-0

>  <r_epik_Charging_Adjusted_Penalty>  (420) 
0

>  <i_epik_Tot_Q>  (420) 
0

>  <i_epik_Tot_abs_Q>  (420) 
0

>  <s_lp_Force_Field>  (420) 
OPLS3e

>  <r_lp_Energy>  (420) 
145.196

>  <b_lp_Chiralities_Consistent>  (420) 
0

>  <s_lp_Variant>  (420) 
102:0-2

>  <s_i_glide_gridfile>  (420) 
pfpi4k_grid

>  <i_i_glide_lignum>  (420) 
19

>  <i_i_glide_rotatable_bonds>  (420) 
1

>  <r_i_docking_score>  (420) 
-2.65871

>  <r_i_glide_ligand_efficiency>  (420) 
-0.11078

>  <r_i_glide_ligand_efficiency_sa>  (420) 
-0.319544

>  <r_i_glide_ligand_efficiency_ln>  (420) 
-0.636352

>  <r_i_glide_gscore>  (420) 
-2.65871

>  <r_i_glide_lipo>  (420) 
-0.719336

>  <r_i_glide_hbond>  (420) 
0

>  <r_i_glide_metal>  (420) 
-0

>  <r_i_glide_rewards>  (420) 
-1.1422

>  <r_i_glide_evdw>  (420) 
-10.6504

>  <r_i_glide_ecoul>  (420) 
-1.76435

>  <r_i_glide_erotb>  (420) 
0

>  <r_i_glide_esite>  (420) 
0

>  <r_i_glide_emodel>  (420) 
-14.3973

>  <r_i_glide_energy>  (420) 
-12.4148

>  <r_i_glide_einternal>  (420) 
0.485852

>  <r_i_glide_intrahb_reward>  (420) 
-0

>  <i_i_glide_confnum>  (420) 
1

>  <i_i_glide_posenum>  (420) 
23

>  <r_i_glide_eff_state_penalty>  (420) 
0

>  <ligand_id>  (420) 
102

>  <original_smiles>  (420) 
CC1=C2OC3CC(C(OC3C)C1O)C1CCC3C2(C)CCCC13C

>  <smiles>  (420) 
[H]OC1([H])C(C([H])([H])[H])=C2OC3([H])C([H])([H])C([H])(C1([H])OC3([H])C([H])([H])[H])C1([H])C([H])([H])C([H])([H])C3([H])C2(C([H])([H])[H])C([H])([H])C([H])([H])C([H])([H])C13C([H])([H])[H]

$$$$
102:2:0
     RDKit          3D

 56 60  0  0  1  0  0  0  0  0999 V2000
   -1.8466   -0.5645    4.9896 C   0  0  0  0  0  0  0  0  0  0  0  0
   -0.9806    0.6734    5.1426 C   0  0  0  0  0  0  0  0  0  0  0  0
    0.1049    0.6965    5.9672 C   0  0  0  0  0  0  0  0  0  0  0  0
    0.6083    1.7789    6.6763 O   0  0  0  0  0  0  0  0  0  0  0  0
    0.1284    3.1439    6.7075 C   0  0  1  0  0  0  0  0  0  0  0  0
    1.0482    3.9303    5.7972 C   0  0  0  0  0  0  0  0  0  0  0  0
    0.9628    3.3389    4.3530 C   0  0  2  0  0  0  0  0  0  0  0  0
   -0.6204    3.1321    4.0868 C   0  0  2  0  0  0  0  0  0  0  0  0
   -1.3947    3.9589    4.9708 O   0  0  0  0  0  0  0  0  0  0  0  0
   -1.2845    3.6245    6.3690 C   0  0  1  0  0  0  0  0  0  0  0  0
   -2.4645    2.8939    7.0399 C   0  0  0  0  0  0  0  0  0  0  0  0
   -1.4637    1.8227    4.2326 C   0  0  1  0  0  0  0  0  0  0  0  0
   -1.7713    1.3871    2.9207 O   0  0  0  0  0  0  0  0  0  0  0  0
    2.1421    2.2987    3.9526 C   0  0  2  0  0  0  0  0  0  0  0  0
    3.4036    2.5080    4.8294 C   0  0  0  0  0  0  0  0  0  0  0  0
    3.3806    1.3438    5.8591 C   0  0  0  0  0  0  0  0  0  0  0  0
    2.5802    0.1784    5.2024 C   0  0  1  0  0  0  0  0  0  0  0  0
    1.2547   -0.3808    5.9074 C   0  0  1  0  0  0  0  0  0  0  0  0
    1.5290   -0.8386    7.3527 C   0  0  0  0  0  0  0  0  0  0  0  0
    0.9790   -1.6625    5.0603 C   0  0  0  0  0  0  0  0  0  0  0  0
    1.0520   -1.5033    3.5226 C   0  0  0  0  0  0  0  0  0  0  0  0
    1.2377   -0.0633    2.9977 C   0  0  0  0  0  0  0  0  0  0  0  0
    2.3419    0.7224    3.7409 C   0  0  1  0  0  0  0  0  0  0  0  0
    3.5977    0.4273    2.8621 C   0  0  0  0  0  0  0  0  0  0  0  0
   -2.8965   -0.2730    4.9922 H   0  0  0  0  0  0  0  0  0  0  0  0
   -1.7322   -1.2372    5.8377 H   0  0  0  0  0  0  0  0  0  0  0  0
   -1.6674   -1.1020    4.0645 H   0  0  0  0  0  0  0  0  0  0  0  0
    0.3093    3.4641    7.7340 H   0  0  0  0  0  0  0  0  0  0  0  0
    0.7293    4.9749    5.7705 H   0  0  0  0  0  0  0  0  0  0  0  0
    2.0063    3.9854    6.2849 H   0  0  0  0  0  0  0  0  0  0  0  0
    1.2240    4.1919    3.7297 H   0  0  0  0  0  0  0  0  0  0  0  0
   -0.8067    3.5445    3.0930 H   0  0  0  0  0  0  0  0  0  0  0  0
   -1.3279    4.6131    6.8172 H   0  0  0  0  0  0  0  0  0  0  0  0
   -2.3897    2.9643    8.1254 H   0  0  0  0  0  0  0  0  0  0  0  0
   -2.5258    1.8352    6.8033 H   0  0  0  0  0  0  0  0  0  0  0  0
   -3.4060    3.3449    6.7408 H   0  0  0  0  0  0  0  0  0  0  0  0
   -2.4731    2.0780    4.5603 H   0  0  0  0  0  0  0  0  0  0  0  0
   -2.6593    1.0074    2.8912 H   0  0  0  0  0  0  0  0  0  0  0  0
    1.3834    1.8932    4.5305 H   0  0  0  0  0  0  0  0  0  0  0  0
    4.2885    2.4393    4.2081 H   0  0  0  0  0  0  0  0  0  0  0  0
    3.5814    3.4888    5.2556 H   0  0  0  0  0  0  0  0  0  0  0  0
    4.4017    1.0306    6.0813 H   0  0  0  0  0  0  0  0  0  0  0  0
    2.9495    1.6598    6.8071 H   0  0  0  0  0  0  0  0  0  0  0  0
    3.2768   -0.6583    5.1362 H   0  0  0  0  0  0  0  0  0  0  0  0
    2.3345   -1.5754    7.4086 H   0  0  0  0  0  0  0  0  0  0  0  0
    0.6351   -1.2962    7.7789 H   0  0  0  0  0  0  0  0  0  0  0  0
    1.8016   -0.0065    8.0060 H   0  0  0  0  0  0  0  0  0  0  0  0
    1.7565   -2.3857    5.3087 H   0  0  0  0  0  0  0  0  0  0  0  0
    0.0855   -2.1890    5.3680 H   0  0  0  0  0  0  0  0  0  0  0  0
    1.8517   -2.1329    3.1340 H   0  0  0  0  0  0  0  0  0  0  0  0
    0.1602   -1.9292    3.0825 H   0  0  0  0  0  0  0  0  0  0  0  0
    1.4356   -0.1080    1.9272 H   0  0  0  0  0  0  0  0  0  0  0  0
    0.3254    0.4815    3.0214 H   0  0  0  0  0  0  0  0  0  0  0  0
    3.6260   -0.6011    2.5070 H   0  0  0  0  0  0  0  0  0  0  0  0
    4.5467    0.5607    3.3777 H   0  0  0  0  0  0  0  0  0  0  0  0
    3.6105    1.0648    1.9779 H   0  0  0  0  0  0  0  0  0  0  0  0
  1  2  1  0
  1 25  1  0
  1 26  1  0
  1 27  1  0
  2 12  1  0
  2  3  2  3
  3 18  1  0
  3  4  1  0
  4  5  1  0
  5 10  1  0
  5  6  1  0
  5 28  1  1
  6  7  1  0
  6 29  1  0
  6 30  1  0
  7  8  1  0
  7 14  1  0
  7 31  1  6
  8  9  1  0
  8 12  1  0
  8 32  1  6
  9 10  1  0
 10 11  1  0
 10 33  1  1
 11 34  1  0
 11 35  1  0
 11 36  1  0
 12 13  1  0
 12 37  1  1
 13 38  1  0
 14 23  1  0
 14 15  1  0
 14 39  1  6
 15 16  1  0
 15 40  1  0
 15 41  1  0
 16 17  1  0
 16 42  1  0
 16 43  1  0
 17 23  1  0
 17 18  1  0
 17 44  1  6
 18 19  1  1
 18 20  1  0
 19 45  1  0
 19 46  1  0
 19 47  1  0
 20 21  1  0
 20 48  1  0
 20 49  1  0
 21 22  1  0
 21 50  1  0
 21 51  1  0
 22 23  1  0
 22 52  1  0
 22 53  1  0
 23 24  1  6
 24 54  1  0
 24 55  1  0
 24 56  1  0
M  END
>  <i_m_ct_stereo_status>  (421) 
1

>  <s_m_source_file>  (421) 
/var/tmp/pbs.5076255.sched01/tmpk5ywl0l3/150lwq6_0yz.sdf

>  <i_m_source_file_index>  (421) 
20

>  <i_lp_mmshare_version>  (421) 
48012

>  <i_f3d_flags>  (421) 
0

>  <s_epik_input>  (421) 
W0NIM11DMTJDLzM9QyhcW0NIM10pW0NASF0oW09IXSlbQ0BASF00W0NAQEhdKFtDSDJdW0NASF0oTzMpW0NAQEhdKE80KVtDSDNdKVtDQEhdNVtDQEBdKFtDSDNdKShbQ0BIXTFbQ0gyXVtDSDJdNSlbQ0gyXVtDSDJdW0NIMl0y

>  <s_epik_cmdline>  (421) 
J2VwaWtfcHl0aG9uJywgJy1waHQnLCAnMi4wJywgJy1waCcsICc3LjAnLCAnLXRuJywgJzgnLCAnLW1hJywgJzIwMCcsICctaW1hZScsICc8aW5maWxlLm1hZT4nLCAnLW9tYWUnLCAnPG91dGZpbGUubWFlPic=

>  <r_lp_tautomer_probability>  (421) 
1

>  <r_epik_Ionization_Penalty>  (421) 
7.7911e-07

>  <r_epik_Ionization_Penalty_Charging>  (421) 
0

>  <r_epik_Ionization_Penalty_Neutral>  (421) 
7.7911e-07

>  <r_epik_State_Penalty>  (421) 
-0

>  <r_epik_Charging_Adjusted_Penalty>  (421) 
0

>  <i_epik_Tot_Q>  (421) 
0

>  <i_epik_Tot_abs_Q>  (421) 
0

>  <s_lp_Force_Field>  (421) 
OPLS3e

>  <r_lp_Energy>  (421) 
213.684

>  <b_lp_Chiralities_Consistent>  (421) 
1

>  <s_lp_Variant>  (421) 
102:0-3

>  <s_i_glide_gridfile>  (421) 
pfpi4k_grid

>  <i_i_glide_lignum>  (421) 
20

>  <i_i_glide_rotatable_bonds>  (421) 
1

>  <r_i_docking_score>  (421) 
-3.02799

>  <r_i_glide_ligand_efficiency>  (421) 
-0.126166

>  <r_i_glide_ligand_efficiency_sa>  (421) 
-0.363926

>  <r_i_glide_ligand_efficiency_ln>  (421) 
-0.724737

>  <r_i_glide_gscore>  (421) 
-3.02799

>  <r_i_glide_lipo>  (421) 
-0.163435

>  <r_i_glide_hbond>  (421) 
0

>  <r_i_glide_metal>  (421) 
-0

>  <r_i_glide_rewards>  (421) 
-1.1422

>  <r_i_glide_evdw>  (421) 
-17.6947

>  <r_i_glide_ecoul>  (421) 
-5.58412

>  <r_i_glide_erotb>  (421) 
0

>  <r_i_glide_esite>  (421) 
0

>  <r_i_glide_emodel>  (421) 
-27.6129

>  <r_i_glide_energy>  (421) 
-23.2788

>  <r_i_glide_einternal>  (421) 
0.726895

>  <r_i_glide_intrahb_reward>  (421) 
-0

>  <i_i_glide_confnum>  (421) 
1

>  <i_i_glide_posenum>  (421) 
8

>  <r_i_glide_eff_state_penalty>  (421) 
0

>  <ligand_id>  (421) 
102

>  <original_smiles>  (421) 
CC1=C2OC3CC(C(OC3C)C1O)C1CCC3C2(C)CCCC13C

>  <smiles>  (421) 
[H]OC1([H])C(C([H])([H])[H])=C2OC3([H])C([H])([H])C([H])(C1([H])OC3([H])C([H])([H])[H])C1([H])C([H])([H])C([H])([H])C3([H])C2(C([H])([H])[H])C([H])([H])C([H])([H])C([H])([H])C13C([H])([H])[H]

$$$$
102:2:1
     RDKit          3D

 56 60  0  0  1  0  0  0  0  0999 V2000
   -0.0099    0.1776    7.9099 C   0  0  0  0  0  0  0  0  0  0  0  0
    0.0470    1.0383    6.6550 C   0  0  0  0  0  0  0  0  0  0  0  0
    1.2317    1.4524    6.1209 C   0  0  0  0  0  0  0  0  0  0  0  0
    1.4841    2.6412    5.4470 O   0  0  0  0  0  0  0  0  0  0  0  0
    0.5783    3.7234    5.1399 C   0  0  1  0  0  0  0  0  0  0  0  0
    0.2022    3.5374    3.6820 C   0  0  0  0  0  0  0  0  0  0  0  0
   -0.5042    2.1514    3.4998 C   0  0  2  0  0  0  0  0  0  0  0  0
   -1.5484    2.0594    4.7315 C   0  0  2  0  0  0  0  0  0  0  0  0
   -1.8465    3.3662    5.2489 O   0  0  0  0  0  0  0  0  0  0  0  0
   -0.7358    4.0562    5.8578 C   0  0  1  0  0  0  0  0  0  0  0  0
   -0.6949    4.1552    7.3966 C   0  0  0  0  0  0  0  0  0  0  0  0
   -1.3655    1.3156    6.1040 C   0  0  1  0  0  0  0  0  0  0  0  0
   -2.1804    0.1500    6.0975 O   0  0  0  0  0  0  0  0  0  0  0  0
    0.4550    0.9543    2.9646 C   0  0  2  0  0  0  0  0  0  0  0  0
    1.6913    1.5043    2.2026 C   0  0  0  0  0  0  0  0  0  0  0  0
    2.8699    1.3573    3.2076 C   0  0  0  0  0  0  0  0  0  0  0  0
    2.5043    0.1938    4.1754 C   0  0  1  0  0  0  0  0  0  0  0  0
    2.3999    0.4658    5.7529 C   0  0  1  0  0  0  0  0  0  0  0  0
    3.7028    1.0640    6.3193 C   0  0  0  0  0  0  0  0  0  0  0  0
    2.2810   -0.9936    6.3039 C   0  0  0  0  0  0  0  0  0  0  0  0
    1.2583   -1.9252    5.5993 C   0  0  0  0  0  0  0  0  0  0  0  0
    0.3910   -1.2714    4.5045 C   0  0  0  0  0  0  0  0  0  0  0  0
    1.1728   -0.3582    3.5365 C   0  0  1  0  0  0  0  0  0  0  0  0
    1.5276   -1.3413    2.3760 C   0  0  0  0  0  0  0  0  0  0  0  0
   -0.7854    0.5586    8.5774 H   0  0  0  0  0  0  0  0  0  0  0  0
    0.9168    0.2532    8.4789 H   0  0  0  0  0  0  0  0  0  0  0  0
   -0.2340   -0.8636    7.6999 H   0  0  0  0  0  0  0  0  0  0  0  0
    1.1998    4.6176    5.2183 H   0  0  0  0  0  0  0  0  0  0  0  0
   -0.4929    4.3235    3.3844 H   0  0  0  0  0  0  0  0  0  0  0  0
    1.0720    3.7703    3.0882 H   0  0  0  0  0  0  0  0  0  0  0  0
   -1.1321    2.3277    2.6238 H   0  0  0  0  0  0  0  0  0  0  0  0
   -2.4916    1.7288    4.2931 H   0  0  0  0  0  0  0  0  0  0  0  0
   -0.9432    5.0842    5.5597 H   0  0  0  0  0  0  0  0  0  0  0  0
    0.0155    4.9232    7.7091 H   0  0  0  0  0  0  0  0  0  0  0  0
   -0.3915    3.2379    7.8966 H   0  0  0  0  0  0  0  0  0  0  0  0
   -1.6745    4.4346    7.7866 H   0  0  0  0  0  0  0  0  0  0  0  0
   -1.8855    1.8726    6.8847 H   0  0  0  0  0  0  0  0  0  0  0  0
   -2.0981   -0.2449    5.2432 H   0  0  0  0  0  0  0  0  0  0  0  0
    0.5460    1.1724    3.9775 H   0  0  0  0  0  0  0  0  0  0  0  0
    1.8743    0.9142    1.3063 H   0  0  0  0  0  0  0  0  0  0  0  0
    1.6105    2.4800    1.7365 H   0  0  0  0  0  0  0  0  0  0  0  0
    3.7852    1.1203    2.6657 H   0  0  0  0  0  0  0  0  0  0  0  0
    3.0618    2.2911    3.7327 H   0  0  0  0  0  0  0  0  0  0  0  0
    3.2822   -0.5598    4.0414 H   0  0  0  0  0  0  0  0  0  0  0  0
    4.5723    0.4468    6.0884 H   0  0  0  0  0  0  0  0  0  0  0  0
    3.6353    1.1509    7.4050 H   0  0  0  0  0  0  0  0  0  0  0  0
    3.8973    2.0629    5.9261 H   0  0  0  0  0  0  0  0  0  0  0  0
    3.2519   -1.4712    6.1600 H   0  0  0  0  0  0  0  0  0  0  0  0
    2.1784   -1.0331    7.3832 H   0  0  0  0  0  0  0  0  0  0  0  0
    1.7992   -2.7604    5.1551 H   0  0  0  0  0  0  0  0  0  0  0  0
    0.6121   -2.3932    6.3406 H   0  0  0  0  0  0  0  0  0  0  0  0
   -0.1560   -2.0495    3.9713 H   0  0  0  0  0  0  0  0  0  0  0  0
   -0.3955   -0.7162    4.9453 H   0  0  0  0  0  0  0  0  0  0  0  0
    1.7909   -2.3340    2.7397 H   0  0  0  0  0  0  0  0  0  0  0  0
    2.3808   -1.0397    1.7729 H   0  0  0  0  0  0  0  0  0  0  0  0
    0.6816   -1.4512    1.6971 H   0  0  0  0  0  0  0  0  0  0  0  0
  1  2  1  0
  1 25  1  0
  1 26  1  0
  1 27  1  0
  2 12  1  0
  2  3  2  3
  3 18  1  0
  3  4  1  0
  4  5  1  0
  5 10  1  0
  5  6  1  0
  5 28  1  6
  6  7  1  0
  6 29  1  0
  6 30  1  0
  7  8  1  0
  7 14  1  0
  7 31  1  6
  8  9  1  0
  8 12  1  0
  8 32  1  6
  9 10  1  0
 10 11  1  0
 10 33  1  6
 11 34  1  0
 11 35  1  0
 11 36  1  0
 12 13  1  0
 12 37  1  1
 13 38  1  0
 14 23  1  0
 14 15  1  0
 14 39  1  6
 15 16  1  0
 15 40  1  0
 15 41  1  0
 16 17  1  0
 16 42  1  0
 16 43  1  0
 17 23  1  0
 17 18  1  0
 17 44  1  1
 18 19  1  1
 18 20  1  0
 19 45  1  0
 19 46  1  0
 19 47  1  0
 20 21  1  0
 20 48  1  0
 20 49  1  0
 21 22  1  0
 21 50  1  0
 21 51  1  0
 22 23  1  0
 22 52  1  0
 22 53  1  0
 23 24  1  6
 24 54  1  0
 24 55  1  0
 24 56  1  0
M  END
>  <i_m_ct_stereo_status>  (422) 
1

>  <s_m_source_file>  (422) 
/var/tmp/pbs.5076255.sched01/tmpk5ywl0l3/150lwq6_0yz.sdf

>  <i_m_source_file_index>  (422) 
20

>  <i_lp_mmshare_version>  (422) 
48012

>  <i_f3d_flags>  (422) 
0

>  <s_epik_input>  (422) 
W0NIM11DMTJDLzM9QyhcW0NIM10pW0NASF0oW09IXSlbQ0BASF00W0NAQEhdKFtDSDJdW0NASF0oTzMpW0NAQEhdKE80KVtDSDNdKVtDQEhdNVtDQEBdKFtDSDNdKShbQ0BIXTFbQ0gyXVtDSDJdNSlbQ0gyXVtDSDJdW0NIMl0y

>  <s_epik_cmdline>  (422) 
J2VwaWtfcHl0aG9uJywgJy1waHQnLCAnMi4wJywgJy1waCcsICc3LjAnLCAnLXRuJywgJzgnLCAnLW1hJywgJzIwMCcsICctaW1hZScsICc8aW5maWxlLm1hZT4nLCAnLW9tYWUnLCAnPG91dGZpbGUubWFlPic=

>  <r_lp_tautomer_probability>  (422) 
1

>  <r_epik_Ionization_Penalty>  (422) 
7.7911e-07

>  <r_epik_Ionization_Penalty_Charging>  (422) 
0

>  <r_epik_Ionization_Penalty_Neutral>  (422) 
7.7911e-07

>  <r_epik_State_Penalty>  (422) 
-0

>  <r_epik_Charging_Adjusted_Penalty>  (422) 
0

>  <i_epik_Tot_Q>  (422) 
0

>  <i_epik_Tot_abs_Q>  (422) 
0

>  <s_lp_Force_Field>  (422) 
OPLS3e

>  <r_lp_Energy>  (422) 
213.684

>  <b_lp_Chiralities_Consistent>  (422) 
1

>  <s_lp_Variant>  (422) 
102:0-3

>  <s_i_glide_gridfile>  (422) 
pfpi4k_grid

>  <i_i_glide_lignum>  (422) 
20

>  <i_i_glide_rotatable_bonds>  (422) 
1

>  <r_i_docking_score>  (422) 
-2.84046

>  <r_i_glide_ligand_efficiency>  (422) 
-0.118353

>  <r_i_glide_ligand_efficiency_sa>  (422) 
-0.341388

>  <r_i_glide_ligand_efficiency_ln>  (422) 
-0.679853

>  <r_i_glide_gscore>  (422) 
-2.84046

>  <r_i_glide_lipo>  (422) 
0

>  <r_i_glide_hbond>  (422) 
0

>  <r_i_glide_metal>  (422) 
-0

>  <r_i_glide_rewards>  (422) 
-1.1422

>  <r_i_glide_evdw>  (422) 
-20.0817

>  <r_i_glide_ecoul>  (422) 
-4.62782

>  <r_i_glide_erotb>  (422) 
0

>  <r_i_glide_esite>  (422) 
0

>  <r_i_glide_emodel>  (422) 
-29.0468

>  <r_i_glide_energy>  (422) 
-24.7096

>  <r_i_glide_einternal>  (422) 
0.193127

>  <r_i_glide_intrahb_reward>  (422) 
-0

>  <i_i_glide_confnum>  (422) 
1

>  <i_i_glide_posenum>  (422) 
35

>  <r_i_glide_eff_state_penalty>  (422) 
0

>  <ligand_id>  (422) 
102

>  <original_smiles>  (422) 
CC1=C2OC3CC(C(OC3C)C1O)C1CCC3C2(C)CCCC13C

>  <smiles>  (422) 
[H]OC1([H])C(C([H])([H])[H])=C2OC3([H])C([H])([H])C([H])(C1([H])OC3([H])C([H])([H])[H])C1([H])C([H])([H])C([H])([H])C3([H])C2(C([H])([H])[H])C([H])([H])C([H])([H])C([H])([H])C13C([H])([H])[H]

$$$$
102:2:2
     RDKit          3D

 56 60  0  0  1  0  0  0  0  0999 V2000
   -1.3833    1.5795    3.2148 C   0  0  0  0  0  0  0  0  0  0  0  0
   -0.4420    1.0154    4.2706 C   0  0  0  0  0  0  0  0  0  0  0  0
    0.5397    1.7755    4.8363 C   0  0  0  0  0  0  0  0  0  0  0  0
    1.7865    1.3470    5.2881 O   0  0  0  0  0  0  0  0  0  0  0  0
    2.3540    0.0199    5.2663 C   0  0  1  0  0  0  0  0  0  0  0  0
    2.2080   -0.5004    6.6838 C   0  0  0  0  0  0  0  0  0  0  0  0
    0.6884   -0.5427    7.0642 C   0  0  2  0  0  0  0  0  0  0  0  0
   -0.0421   -1.1868    5.7712 C   0  0  2  0  0  0  0  0  0  0  0  0
    0.8963   -1.9292    4.9785 O   0  0  0  0  0  0  0  0  0  0  0  0
    1.9405   -1.1492    4.3613 C   0  0  1  0  0  0  0  0  0  0  0  0
    1.8462   -0.8690    2.8484 C   0  0  0  0  0  0  0  0  0  0  0  0
   -0.7834   -0.4464    4.6064 C   0  0  1  0  0  0  0  0  0  0  0  0
   -2.1846   -0.6583    4.7667 O   0  0  0  0  0  0  0  0  0  0  0  0
    0.1555    0.7244    7.9310 C   0  0  2  0  0  0  0  0  0  0  0  0
    1.3118    1.4302    8.6904 C   0  0  0  0  0  0  0  0  0  0  0  0
    1.6018    2.7182    7.8673 C   0  0  0  0  0  0  0  0  0  0  0  0
    0.2832    3.0855    7.1218 C   0  0  1  0  0  0  0  0  0  0  0  0
    0.2675    3.1661    5.5181 C   0  0  1  0  0  0  0  0  0  0  0  0
    1.3226    4.1548    4.9802 C   0  0  0  0  0  0  0  0  0  0  0  0
   -1.1365    3.8017    5.2605 C   0  0  0  0  0  0  0  0  0  0  0  0
   -2.3362    3.1817    6.0265 C   0  0  0  0  0  0  0  0  0  0  0  0
   -2.0255    1.9287    6.8691 C   0  0  0  0  0  0  0  0  0  0  0  0
   -0.7385    2.0373    7.7173 C   0  0  1  0  0  0  0  0  0  0  0  0
   -1.2891    2.5605    9.0852 C   0  0  0  0  0  0  0  0  0  0  0  0
   -1.4932    0.8575    2.4044 H   0  0  0  0  0  0  0  0  0  0  0  0
   -0.9612    2.4647    2.7415 H   0  0  0  0  0  0  0  0  0  0  0  0
   -2.3765    1.7958    3.6002 H   0  0  0  0  0  0  0  0  0  0  0  0
    3.4150    0.1915    5.0750 H   0  0  0  0  0  0  0  0  0  0  0  0
    2.6107   -1.5131    6.7402 H   0  0  0  0  0  0  0  0  0  0  0  0
    2.8952    0.0512    7.3076 H   0  0  0  0  0  0  0  0  0  0  0  0
    0.6599   -1.3380    7.8112 H   0  0  0  0  0  0  0  0  0  0  0  0
   -0.7168   -1.9489    6.1614 H   0  0  0  0  0  0  0  0  0  0  0  0
    2.7803   -1.8419    4.4230 H   0  0  0  0  0  0  0  0  0  0  0  0
    2.8073   -0.5227    2.4643 H   0  0  0  0  0  0  0  0  0  0  0  0
    1.1198   -0.1057    2.5777 H   0  0  0  0  0  0  0  0  0  0  0  0
    1.5847   -1.7777    2.3064 H   0  0  0  0  0  0  0  0  0  0  0  0
   -0.6348   -1.0010    3.6790 H   0  0  0  0  0  0  0  0  0  0  0  0
   -2.6484   -0.1550    4.1081 H   0  0  0  0  0  0  0  0  0  0  0  0
    0.2512    0.8992    6.9103 H   0  0  0  0  0  0  0  0  0  0  0  0
    0.9977    1.6883    9.6998 H   0  0  0  0  0  0  0  0  0  0  0  0
    2.1909    0.8473    8.9394 H   0  0  0  0  0  0  0  0  0  0  0  0
    1.9007    3.5243    8.5394 H   0  0  0  0  0  0  0  0  0  0  0  0
    2.4368    2.5725    7.1846 H   0  0  0  0  0  0  0  0  0  0  0  0
    0.0021    4.0739    7.4860 H   0  0  0  0  0  0  0  0  0  0  0  0
    1.2188    5.1481    5.4170 H   0  0  0  0  0  0  0  0  0  0  0  0
    1.2252    4.2578    3.8969 H   0  0  0  0  0  0  0  0  0  0  0  0
    2.3404    3.8154    5.1782 H   0  0  0  0  0  0  0  0  0  0  0  0
   -1.0790    4.8374    5.5969 H   0  0  0  0  0  0  0  0  0  0  0  0
   -1.3551    3.9275    4.2056 H   0  0  0  0  0  0  0  0  0  0  0  0
   -2.7575    3.9370    6.6867 H   0  0  0  0  0  0  0  0  0  0  0  0
   -3.1415    2.9575    5.3284 H   0  0  0  0  0  0  0  0  0  0  0  0
   -2.8959    1.6956    7.4837 H   0  0  0  0  0  0  0  0  0  0  0  0
   -1.9643    1.0763    6.2447 H   0  0  0  0  0  0  0  0  0  0  0  0
   -2.0780    3.3007    8.9544 H   0  0  0  0  0  0  0  0  0  0  0  0
   -0.5491    3.0683    9.6999 H   0  0  0  0  0  0  0  0  0  0  0  0
   -1.7069    1.7490    9.6835 H   0  0  0  0  0  0  0  0  0  0  0  0
  1  2  1  0
  1 25  1  0
  1 26  1  0
  1 27  1  0
  2 12  1  0
  2  3  2  3
  3 18  1  0
  3  4  1  0
  4  5  1  0
  5 10  1  0
  5  6  1  0
  5 28  1  6
  6  7  1  0
  6 29  1  0
  6 30  1  0
  7  8  1  0
  7 14  1  0
  7 31  1  1
  8  9  1  0
  8 12  1  0
  8 32  1  1
  9 10  1  0
 10 11  1  0
 10 33  1  6
 11 34  1  0
 11 35  1  0
 11 36  1  0
 12 13  1  0
 12 37  1  6
 13 38  1  0
 14 23  1  0
 14 15  1  0
 14 39  1  1
 15 16  1  0
 15 40  1  0
 15 41  1  0
 16 17  1  0
 16 42  1  0
 16 43  1  0
 17 23  1  0
 17 18  1  0
 17 44  1  1
 18 19  1  1
 18 20  1  0
 19 45  1  0
 19 46  1  0
 19 47  1  0
 20 21  1  0
 20 48  1  0
 20 49  1  0
 21 22  1  0
 21 50  1  0
 21 51  1  0
 22 23  1  0
 22 52  1  0
 22 53  1  0
 23 24  1  1
 24 54  1  0
 24 55  1  0
 24 56  1  0
M  END
>  <i_m_ct_stereo_status>  (423) 
1

>  <s_m_source_file>  (423) 
/var/tmp/pbs.5076255.sched01/tmpk5ywl0l3/150lwq6_0yz.sdf

>  <i_m_source_file_index>  (423) 
20

>  <i_lp_mmshare_version>  (423) 
48012

>  <i_f3d_flags>  (423) 
0

>  <s_epik_input>  (423) 
W0NIM11DMTJDLzM9QyhcW0NIM10pW0NASF0oW09IXSlbQ0BASF00W0NAQEhdKFtDSDJdW0NASF0oTzMpW0NAQEhdKE80KVtDSDNdKVtDQEhdNVtDQEBdKFtDSDNdKShbQ0BIXTFbQ0gyXVtDSDJdNSlbQ0gyXVtDSDJdW0NIMl0y

>  <s_epik_cmdline>  (423) 
J2VwaWtfcHl0aG9uJywgJy1waHQnLCAnMi4wJywgJy1waCcsICc3LjAnLCAnLXRuJywgJzgnLCAnLW1hJywgJzIwMCcsICctaW1hZScsICc8aW5maWxlLm1hZT4nLCAnLW9tYWUnLCAnPG91dGZpbGUubWFlPic=

>  <r_lp_tautomer_probability>  (423) 
1

>  <r_epik_Ionization_Penalty>  (423) 
7.7911e-07

>  <r_epik_Ionization_Penalty_Charging>  (423) 
0

>  <r_epik_Ionization_Penalty_Neutral>  (423) 
7.7911e-07

>  <r_epik_State_Penalty>  (423) 
-0

>  <r_epik_Charging_Adjusted_Penalty>  (423) 
0

>  <i_epik_Tot_Q>  (423) 
0

>  <i_epik_Tot_abs_Q>  (423) 
0

>  <s_lp_Force_Field>  (423) 
OPLS3e

>  <r_lp_Energy>  (423) 
213.684

>  <b_lp_Chiralities_Consistent>  (423) 
1

>  <s_lp_Variant>  (423) 
102:0-3

>  <s_i_glide_gridfile>  (423) 
pfpi4k_grid

>  <i_i_glide_lignum>  (423) 
20

>  <i_i_glide_rotatable_bonds>  (423) 
1

>  <r_i_docking_score>  (423) 
-2.75548

>  <r_i_glide_ligand_efficiency>  (423) 
-0.114812

>  <r_i_glide_ligand_efficiency_sa>  (423) 
-0.331174

>  <r_i_glide_ligand_efficiency_ln>  (423) 
-0.659512

>  <r_i_glide_gscore>  (423) 
-2.75548

>  <r_i_glide_lipo>  (423) 
-0.0616076

>  <r_i_glide_hbond>  (423) 
0

>  <r_i_glide_metal>  (423) 
-0

>  <r_i_glide_rewards>  (423) 
-1.1422

>  <r_i_glide_evdw>  (423) 
-19.9335

>  <r_i_glide_ecoul>  (423) 
-3.69994

>  <r_i_glide_erotb>  (423) 
0

>  <r_i_glide_esite>  (423) 
0

>  <r_i_glide_emodel>  (423) 
-27.7454

>  <r_i_glide_energy>  (423) 
-23.6335

>  <r_i_glide_einternal>  (423) 
0.51106

>  <r_i_glide_intrahb_reward>  (423) 
-0

>  <i_i_glide_confnum>  (423) 
1

>  <i_i_glide_posenum>  (423) 
38

>  <r_i_glide_eff_state_penalty>  (423) 
0

>  <ligand_id>  (423) 
102

>  <original_smiles>  (423) 
CC1=C2OC3CC(C(OC3C)C1O)C1CCC3C2(C)CCCC13C

>  <smiles>  (423) 
[H]OC1([H])C(C([H])([H])[H])=C2OC3([H])C([H])([H])C([H])(C1([H])OC3([H])C([H])([H])[H])C1([H])C([H])([H])C([H])([H])C3([H])C2(C([H])([H])[H])C([H])([H])C([H])([H])C([H])([H])C13C([H])([H])[H]

$$$$
102:3:0
     RDKit          3D

 56 60  0  0  1  0  0  0  0  0999 V2000
    0.0304    0.1838    7.9240 C   0  0  0  0  0  0  0  0  0  0  0  0
    0.0643    1.0411    6.6639 C   0  0  0  0  0  0  0  0  0  0  0  0
    1.2425    1.4531    6.1114 C   0  0  0  0  0  0  0  0  0  0  0  0
    1.4865    2.6421    5.4303 O   0  0  0  0  0  0  0  0  0  0  0  0
    0.5756    3.7223    5.1345 C   0  0  1  0  0  0  0  0  0  0  0  0
    0.1780    3.5346    3.6820 C   0  0  0  0  0  0  0  0  0  0  0  0
   -0.5309    2.1472    3.5136 C   0  0  2  0  0  0  0  0  0  0  0  0
   -1.5572    2.0596    4.7629 C   0  0  2  0  0  0  0  0  0  0  0  0
   -1.8468    3.3695    5.2787 O   0  0  0  0  0  0  0  0  0  0  0  0
   -0.7283    4.0595    5.8697 C   0  0  1  0  0  0  0  0  0  0  0  0
   -0.6657    4.1625    7.4065 C   0  0  0  0  0  0  0  0  0  0  0  0
   -1.3546    1.3196    6.1314 C   0  0  1  0  0  0  0  0  0  0  0  0
   -2.1775    0.1565    6.1366 O   0  0  0  0  0  0  0  0  0  0  0  0
    0.4178    0.9459    2.9673 C   0  0  2  0  0  0  0  0  0  0  0  0
    1.6436    1.4953    2.1868 C   0  0  0  0  0  0  0  0  0  0  0  0
    2.8376    1.3507    3.1736 C   0  0  0  0  0  0  0  0  0  0  0  0
    2.4859    0.1899    4.1493 C   0  0  1  0  0  0  0  0  0  0  0  0
    2.4068    0.4667    5.7277 C   0  0  1  0  0  0  0  0  0  0  0  0
    3.7197    1.0659    6.2734 C   0  0  0  0  0  0  0  0  0  0  0  0
    2.2961   -0.9910    6.2852 C   0  0  0  0  0  0  0  0  0  0  0  0
    1.2633   -1.9265    5.5988 C   0  0  0  0  0  0  0  0  0  0  0  0
    0.3784   -1.2739    4.5167 C   0  0  0  0  0  0  0  0  0  0  0  0
    1.1439   -0.3646    3.5316 C   0  0  1  0  0  0  0  0  0  0  0  0
    1.4844   -1.3484    2.3680 C   0  0  0  0  0  0  0  0  0  0  0  0
   -0.1952   -0.8584    7.7249 H   0  0  0  0  0  0  0  0  0  0  0  0
   -0.7338    0.5693    8.6020 H   0  0  0  0  0  0  0  0  0  0  0  0
    0.9663    0.2652    8.4774 H   0  0  0  0  0  0  0  0  0  0  0  0
    1.1994    4.6155    5.2009 H   0  0  0  0  0  0  0  0  0  0  0  0
   -0.5243    4.3188    3.3923 H   0  0  0  0  0  0  0  0  0  0  0  0
    1.0361    3.7669    3.0715 H   0  0  0  0  0  0  0  0  0  0  0  0
   -1.1750    2.3201    2.6490 H   0  0  0  0  0  0  0  0  0  0  0  0
   -2.5067    1.7277    4.3392 H   0  0  0  0  0  0  0  0  0  0  0  0
   -0.9403    5.0868    5.5732 H   0  0  0  0  0  0  0  0  0  0  0  0
    0.0488    4.9326    7.7082 H   0  0  0  0  0  0  0  0  0  0  0  0
   -0.3532    3.2473    7.9044 H   0  0  0  0  0  0  0  0  0  0  0  0
   -1.6386    4.4418    7.8121 H   0  0  0  0  0  0  0  0  0  0  0  0
   -1.8595    1.8787    6.9225 H   0  0  0  0  0  0  0  0  0  0  0  0
   -2.1034   -0.2400    5.2837 H   0  0  0  0  0  0  0  0  0  0  0  0
    0.5254    1.1671    3.9789 H   0  0  0  0  0  0  0  0  0  0  0  0
    1.8121    0.9046    1.2881 H   0  0  0  0  0  0  0  0  0  0  0  0
    1.5570    2.4706    1.7187 H   0  0  0  0  0  0  0  0  0  0  0  0
    3.7437    1.1130    2.6155 H   0  0  0  0  0  0  0  0  0  0  0  0
    3.0387    2.2861    3.6926 H   0  0  0  0  0  0  0  0  0  0  0  0
    3.2635   -0.5623    4.0059 H   0  0  0  0  0  0  0  0  0  0  0  0
    4.5850    0.4503    6.0263 H   0  0  0  0  0  0  0  0  0  0  0  0
    3.6719    1.1502    7.3590 H   0  0  0  0  0  0  0  0  0  0  0  0
    3.9066    2.0649    5.8793 H   0  0  0  0  0  0  0  0  0  0  0  0
    3.2649   -1.4691    6.1296 H   0  0  0  0  0  0  0  0  0  0  0  0
    2.2100   -1.0256    7.3662 H   0  0  0  0  0  0  0  0  0  0  0  0
    1.7977   -2.7639    5.1518 H   0  0  0  0  0  0  0  0  0  0  0  0
    0.6280   -2.3900    6.3530 H   0  0  0  0  0  0  0  0  0  0  0  0
   -0.1763   -2.0534    3.9934 H   0  0  0  0  0  0  0  0  0  0  0  0
   -0.4006   -0.7187    4.9705 H   0  0  0  0  0  0  0  0  0  0  0  0
    1.7498   -2.3421    2.7280 H   0  0  0  0  0  0  0  0  0  0  0  0
    2.3343   -1.0499    1.7571 H   0  0  0  0  0  0  0  0  0  0  0  0
    0.6295   -1.4538    1.6991 H   0  0  0  0  0  0  0  0  0  0  0  0
  1  2  1  0
  1 25  1  0
  1 26  1  0
  1 27  1  0
  2 12  1  0
  2  3  2  3
  3 18  1  0
  3  4  1  0
  4  5  1  0
  5 10  1  0
  5  6  1  0
  5 28  1  6
  6  7  1  0
  6 29  1  0
  6 30  1  0
  7  8  1  0
  7 14  1  0
  7 31  1  6
  8  9  1  0
  8 12  1  0
  8 32  1  6
  9 10  1  0
 10 11  1  0
 10 33  1  6
 11 34  1  0
 11 35  1  0
 11 36  1  0
 12 13  1  0
 12 37  1  1
 13 38  1  0
 14 23  1  0
 14 15  1  0
 14 39  1  6
 15 16  1  0
 15 40  1  0
 15 41  1  0
 16 17  1  0
 16 42  1  0
 16 43  1  0
 17 23  1  0
 17 18  1  0
 17 44  1  1
 18 19  1  1
 18 20  1  0
 19 45  1  0
 19 46  1  0
 19 47  1  0
 20 21  1  0
 20 48  1  0
 20 49  1  0
 21 22  1  0
 21 50  1  0
 21 51  1  0
 22 23  1  0
 22 52  1  0
 22 53  1  0
 23 24  1  6
 24 54  1  0
 24 55  1  0
 24 56  1  0
M  END
>  <i_m_ct_stereo_status>  (424) 
1

>  <s_m_source_file>  (424) 
/var/tmp/pbs.5076255.sched01/tmpk5ywl0l3/150lwq6_0yz.sdf

>  <i_m_source_file_index>  (424) 
21

>  <i_lp_mmshare_version>  (424) 
48012

>  <i_f3d_flags>  (424) 
0

>  <s_epik_input>  (424) 
W0NIM11DMTJDLzM9QyhcW0NIM10pW0NASF0oW09IXSlbQ0BASF00W0NAQEhdKFtDSDJdW0NASF0oTzMpW0NAQEhdKE80KVtDSDNdKVtDQEhdNVtDQEBdKFtDSDNdKShbQ0BIXTFbQ0gyXVtDSDJdNSlbQ0gyXVtDSDJdW0NIMl0y

>  <s_epik_cmdline>  (424) 
J2VwaWtfcHl0aG9uJywgJy1waHQnLCAnMi4wJywgJy1waCcsICc3LjAnLCAnLXRuJywgJzgnLCAnLW1hJywgJzIwMCcsICctaW1hZScsICc8aW5maWxlLm1hZT4nLCAnLW9tYWUnLCAnPG91dGZpbGUubWFlPic=

>  <r_lp_tautomer_probability>  (424) 
1

>  <r_epik_Ionization_Penalty>  (424) 
7.7911e-07

>  <r_epik_Ionization_Penalty_Charging>  (424) 
0

>  <r_epik_Ionization_Penalty_Neutral>  (424) 
7.7911e-07

>  <r_epik_State_Penalty>  (424) 
-0

>  <r_epik_Charging_Adjusted_Penalty>  (424) 
0

>  <i_epik_Tot_Q>  (424) 
0

>  <i_epik_Tot_abs_Q>  (424) 
0

>  <s_lp_Force_Field>  (424) 
OPLS3e

>  <r_lp_Energy>  (424) 
213.667

>  <b_lp_Chiralities_Consistent>  (424) 
1

>  <s_lp_Variant>  (424) 
102:0-4

>  <s_i_glide_gridfile>  (424) 
pfpi4k_grid

>  <i_i_glide_lignum>  (424) 
21

>  <i_i_glide_rotatable_bonds>  (424) 
1

>  <r_i_docking_score>  (424) 
-2.86524

>  <r_i_glide_ligand_efficiency>  (424) 
-0.119385

>  <r_i_glide_ligand_efficiency_sa>  (424) 
-0.344366

>  <r_i_glide_ligand_efficiency_ln>  (424) 
-0.685783

>  <r_i_glide_gscore>  (424) 
-2.86524

>  <r_i_glide_lipo>  (424) 
0

>  <r_i_glide_hbond>  (424) 
0

>  <r_i_glide_metal>  (424) 
-0

>  <r_i_glide_rewards>  (424) 
-1.1422

>  <r_i_glide_evdw>  (424) 
-19.8251

>  <r_i_glide_ecoul>  (424) 
-4.87854

>  <r_i_glide_erotb>  (424) 
0

>  <r_i_glide_esite>  (424) 
0

>  <r_i_glide_emodel>  (424) 
-29.0476

>  <r_i_glide_energy>  (424) 
-24.7036

>  <r_i_glide_einternal>  (424) 
0.199885

>  <r_i_glide_intrahb_reward>  (424) 
-0

>  <i_i_glide_confnum>  (424) 
2

>  <i_i_glide_posenum>  (424) 
11

>  <r_i_glide_eff_state_penalty>  (424) 
0

>  <ligand_id>  (424) 
102

>  <original_smiles>  (424) 
CC1=C2OC3CC(C(OC3C)C1O)C1CCC3C2(C)CCCC13C

>  <smiles>  (424) 
[H]OC1([H])C(C([H])([H])[H])=C2OC3([H])C([H])([H])C([H])(C1([H])OC3([H])C([H])([H])[H])C1([H])C([H])([H])C([H])([H])C3([H])C2(C([H])([H])[H])C([H])([H])C([H])([H])C([H])([H])C13C([H])([H])[H]

$$$$
102:3:1
     RDKit          3D

 56 60  0  0  1  0  0  0  0  0999 V2000
    0.2187   -0.2765    7.8087 C   0  0  0  0  0  0  0  0  0  0  0  0
    0.1113    1.0337    7.0368 C   0  0  0  0  0  0  0  0  0  0  0  0
    1.2090    1.8008    6.7716 C   0  0  0  0  0  0  0  0  0  0  0  0
    1.2612    3.1884    6.6728 O   0  0  0  0  0  0  0  0  0  0  0  0
    0.1961    4.1520    6.8239 C   0  0  1  0  0  0  0  0  0  0  0  0
   -0.1852    4.5508    5.4116 C   0  0  0  0  0  0  0  0  0  0  0  0
   -0.6859    3.2871    4.6320 C   0  0  2  0  0  0  0  0  0  0  0  0
   -1.6705    2.5270    5.6680 C   0  0  2  0  0  0  0  0  0  0  0  0
   -2.1447    3.4352    6.6738 O   0  0  0  0  0  0  0  0  0  0  0  0
   -1.1344    3.9544    7.5638 C   0  0  1  0  0  0  0  0  0  0  0  0
   -1.0643    3.3980    9.0003 C   0  0  0  0  0  0  0  0  0  0  0  0
   -1.3410    1.3145    6.6074 C   0  0  1  0  0  0  0  0  0  0  0  0
   -1.9974    0.1558    6.1050 O   0  0  0  0  0  0  0  0  0  0  0  0
    0.4240    2.5837    3.6778 C   0  0  2  0  0  0  0  0  0  0  0  0
    1.5496    3.5786    3.2764 C   0  0  0  0  0  0  0  0  0  0  0  0
    2.7631    3.1953    4.1674 C   0  0  0  0  0  0  0  0  0  0  0  0
    2.5957    1.6882    4.5228 C   0  0  1  0  0  0  0  0  0  0  0  0
    2.4982    1.2472    6.0625 C   0  0  1  0  0  0  0  0  0  0  0  0
    3.7153    1.7302    6.8768 C   0  0  0  0  0  0  0  0  0  0  0  0
    2.6097   -0.3082    5.9402 C   0  0  0  0  0  0  0  0  0  0  0  0
    1.7155   -0.9914    4.8702 C   0  0  0  0  0  0  0  0  0  0  0  0
    0.7261   -0.0684    4.1278 C   0  0  0  0  0  0  0  0  0  0  0  0
    1.3387    1.2719    3.6587 C   0  0  1  0  0  0  0  0  0  0  0  0
    1.7930    0.9368    2.1990 C   0  0  0  0  0  0  0  0  0  0  0  0
    0.1294   -1.1538    7.1756 H   0  0  0  0  0  0  0  0  0  0  0  0
   -0.5780   -0.3145    8.5532 H   0  0  0  0  0  0  0  0  0  0  0  0
    1.1437   -0.3162    8.3847 H   0  0  0  0  0  0  0  0  0  0  0  0
    0.6805    5.0092    7.2960 H   0  0  0  0  0  0  0  0  0  0  0  0
   -0.9902    5.2821    5.4511 H   0  0  0  0  0  0  0  0  0  0  0  0
    0.6224    5.1372    5.0051 H   0  0  0  0  0  0  0  0  0  0  0  0
   -1.3617    3.7138    3.8888 H   0  0  0  0  0  0  0  0  0  0  0  0
   -2.5660    2.2737    5.0965 H   0  0  0  0  0  0  0  0  0  0  0  0
   -1.5005    4.9684    7.7230 H   0  0  0  0  0  0  0  0  0  0  0  0
   -0.4669    4.0578    9.6346 H   0  0  0  0  0  0  0  0  0  0  0  0
   -0.6116    2.4121    9.0788 H   0  0  0  0  0  0  0  0  0  0  0  0
   -2.0606    3.3402    9.4376 H   0  0  0  0  0  0  0  0  0  0  0  0
   -1.9082    1.4132    7.5356 H   0  0  0  0  0  0  0  0  0  0  0  0
   -1.8639    0.1360    5.1656 H   0  0  0  0  0  0  0  0  0  0  0  0
    0.5074    2.3540    4.6891 H   0  0  0  0  0  0  0  0  0  0  0  0
    1.8061    3.4551    2.2274 H   0  0  0  0  0  0  0  0  0  0  0  0
    1.3104    4.6365    3.2533 H   0  0  0  0  0  0  0  0  0  0  0  0
    3.6849    3.3576    3.6088 H   0  0  0  0  0  0  0  0  0  0  0  0
    2.8279    3.8309    5.0476 H   0  0  0  0  0  0  0  0  0  0  0  0
    3.4716    1.1865    4.1089 H   0  0  0  0  0  0  0  0  0  0  0  0
    4.6574    1.4071    6.4340 H   0  0  0  0  0  0  0  0  0  0  0  0
    3.6704    1.3334    7.8908 H   0  0  0  0  0  0  0  0  0  0  0  0
    3.7463    2.8169    6.9558 H   0  0  0  0  0  0  0  0  0  0  0  0
    3.6355   -0.5333    5.6445 H   0  0  0  0  0  0  0  0  0  0  0  0
    2.5445   -0.8149    6.8971 H   0  0  0  0  0  0  0  0  0  0  0  0
    2.3601   -1.4731    4.1358 H   0  0  0  0  0  0  0  0  0  0  0  0
    1.1666   -1.8173    5.3224 H   0  0  0  0  0  0  0  0  0  0  0  0
    0.2872   -0.6186    3.2942 H   0  0  0  0  0  0  0  0  0  0  0  0
   -0.1224    0.1232    4.7346 H   0  0  0  0  0  0  0  0  0  0  0  0
    2.2120   -0.0652    2.1179 H   0  0  0  0  0  0  0  0  0  0  0  0
    2.5764    1.5846    1.8128 H   0  0  0  0  0  0  0  0  0  0  0  0
    0.9537    0.9883    1.5010 H   0  0  0  0  0  0  0  0  0  0  0  0
  1  2  1  0
  1 25  1  0
  1 26  1  0
  1 27  1  0
  2 12  1  0
  2  3  2  3
  3 18  1  0
  3  4  1  0
  4  5  1  0
  5 10  1  0
  5  6  1  0
  5 28  1  1
  6  7  1  0
  6 29  1  0
  6 30  1  0
  7  8  1  0
  7 14  1  0
  7 31  1  6
  8  9  1  0
  8 12  1  0
  8 32  1  6
  9 10  1  0
 10 11  1  0
 10 33  1  1
 11 34  1  0
 11 35  1  0
 11 36  1  0
 12 13  1  0
 12 37  1  1
 13 38  1  0
 14 23  1  0
 14 15  1  0
 14 39  1  6
 15 16  1  0
 15 40  1  0
 15 41  1  0
 16 17  1  0
 16 42  1  0
 16 43  1  0
 17 23  1  0
 17 18  1  0
 17 44  1  6
 18 19  1  1
 18 20  1  0
 19 45  1  0
 19 46  1  0
 19 47  1  0
 20 21  1  0
 20 48  1  0
 20 49  1  0
 21 22  1  0
 21 50  1  0
 21 51  1  0
 22 23  1  0
 22 52  1  0
 22 53  1  0
 23 24  1  6
 24 54  1  0
 24 55  1  0
 24 56  1  0
M  END
>  <i_m_ct_stereo_status>  (425) 
1

>  <s_m_source_file>  (425) 
/var/tmp/pbs.5076255.sched01/tmpk5ywl0l3/150lwq6_0yz.sdf

>  <i_m_source_file_index>  (425) 
21

>  <i_lp_mmshare_version>  (425) 
48012

>  <i_f3d_flags>  (425) 
0

>  <s_epik_input>  (425) 
W0NIM11DMTJDLzM9QyhcW0NIM10pW0NASF0oW09IXSlbQ0BASF00W0NAQEhdKFtDSDJdW0NASF0oTzMpW0NAQEhdKE80KVtDSDNdKVtDQEhdNVtDQEBdKFtDSDNdKShbQ0BIXTFbQ0gyXVtDSDJdNSlbQ0gyXVtDSDJdW0NIMl0y

>  <s_epik_cmdline>  (425) 
J2VwaWtfcHl0aG9uJywgJy1waHQnLCAnMi4wJywgJy1waCcsICc3LjAnLCAnLXRuJywgJzgnLCAnLW1hJywgJzIwMCcsICctaW1hZScsICc8aW5maWxlLm1hZT4nLCAnLW9tYWUnLCAnPG91dGZpbGUubWFlPic=

>  <r_lp_tautomer_probability>  (425) 
1

>  <r_epik_Ionization_Penalty>  (425) 
7.7911e-07

>  <r_epik_Ionization_Penalty_Charging>  (425) 
0

>  <r_epik_Ionization_Penalty_Neutral>  (425) 
7.7911e-07

>  <r_epik_State_Penalty>  (425) 
-0

>  <r_epik_Charging_Adjusted_Penalty>  (425) 
0

>  <i_epik_Tot_Q>  (425) 
0

>  <i_epik_Tot_abs_Q>  (425) 
0

>  <s_lp_Force_Field>  (425) 
OPLS3e

>  <r_lp_Energy>  (425) 
213.667

>  <b_lp_Chiralities_Consistent>  (425) 
1

>  <s_lp_Variant>  (425) 
102:0-4

>  <s_i_glide_gridfile>  (425) 
pfpi4k_grid

>  <i_i_glide_lignum>  (425) 
21

>  <i_i_glide_rotatable_bonds>  (425) 
1

>  <r_i_docking_score>  (425) 
-2.73105

>  <r_i_glide_ligand_efficiency>  (425) 
-0.113794

>  <r_i_glide_ligand_efficiency_sa>  (425) 
-0.328238

>  <r_i_glide_ligand_efficiency_ln>  (425) 
-0.653666

>  <r_i_glide_gscore>  (425) 
-2.73105

>  <r_i_glide_lipo>  (425) 
-0.0377463

>  <r_i_glide_hbond>  (425) 
0

>  <r_i_glide_metal>  (425) 
-0

>  <r_i_glide_rewards>  (425) 
-1.1422

>  <r_i_glide_evdw>  (425) 
-19.2458

>  <r_i_glide_ecoul>  (425) 
-3.9254

>  <r_i_glide_erotb>  (425) 
0

>  <r_i_glide_esite>  (425) 
0

>  <r_i_glide_emodel>  (425) 
-27.3452

>  <r_i_glide_energy>  (425) 
-23.1712

>  <r_i_glide_einternal>  (425) 
0.185755

>  <r_i_glide_intrahb_reward>  (425) 
-0

>  <i_i_glide_confnum>  (425) 
2

>  <i_i_glide_posenum>  (425) 
38

>  <r_i_glide_eff_state_penalty>  (425) 
0

>  <ligand_id>  (425) 
102

>  <original_smiles>  (425) 
CC1=C2OC3CC(C(OC3C)C1O)C1CCC3C2(C)CCCC13C

>  <smiles>  (425) 
[H]OC1([H])C(C([H])([H])[H])=C2OC3([H])C([H])([H])C([H])(C1([H])OC3([H])C([H])([H])[H])C1([H])C([H])([H])C([H])([H])C3([H])C2(C([H])([H])[H])C([H])([H])C([H])([H])C([H])([H])C13C([H])([H])[H]

$$$$
102:3:2
     RDKit          3D

 56 60  0  0  1  0  0  0  0  0999 V2000
    0.0259   -1.2050    6.7133 C   0  0  0  0  0  0  0  0  0  0  0  0
   -0.0261    0.1970    6.1214 C   0  0  0  0  0  0  0  0  0  0  0  0
    1.0418    1.0421    6.1813 C   0  0  0  0  0  0  0  0  0  0  0  0
    1.0123    2.4329    6.2623 O   0  0  0  0  0  0  0  0  0  0  0  0
   -0.1293    3.3169    6.2933 C   0  0  1  0  0  0  0  0  0  0  0  0
   -0.2431    3.8771    4.8869 C   0  0  0  0  0  0  0  0  0  0  0  0
   -0.4751    2.7022    3.8752 C   0  0  2  0  0  0  0  0  0  0  0  0
   -1.5893    1.7683    4.5828 C   0  0  2  0  0  0  0  0  0  0  0  0
   -2.3235    2.5206    5.5650 O   0  0  0  0  0  0  0  0  0  0  0  0
   -1.5629    2.9620    6.7055 C   0  0  1  0  0  0  0  0  0  0  0  0
   -1.7539    2.2221    8.0454 C   0  0  0  0  0  0  0  0  0  0  0  0
   -1.3693    0.4626    5.4238 C   0  0  1  0  0  0  0  0  0  0  0  0
   -1.7956   -0.6555    4.6640 O   0  0  0  0  0  0  0  0  0  0  0  0
    0.8525    2.1809    3.1028 C   0  0  2  0  0  0  0  0  0  0  0  0
    1.9535    3.2723    3.0633 C   0  0  0  0  0  0  0  0  0  0  0  0
    2.9796    2.8354    4.1474 C   0  0  0  0  0  0  0  0  0  0  0  0
    2.8631    1.2873    4.2844 C   0  0  1  0  0  0  0  0  0  0  0  0
    2.4864    0.6415    5.7018 C   0  0  1  0  0  0  0  0  0  0  0  0
    3.4707    1.0699    6.8063 C   0  0  0  0  0  0  0  0  0  0  0  0
    2.7336   -0.8779    5.4180 C   0  0  0  0  0  0  0  0  0  0  0  0
    2.1305   -1.4541    4.1087 C   0  0  0  0  0  0  0  0  0  0  0  0
    1.2508   -0.4898    3.2898 C   0  0  0  0  0  0  0  0  0  0  0  0
    1.8447    0.9254    3.1344 C   0  0  1  0  0  0  0  0  0  0  0  0
    2.6129    0.7981    1.7839 C   0  0  0  0  0  0  0  0  0  0  0  0
    0.1372   -1.9874    5.9690 H   0  0  0  0  0  0  0  0  0  0  0  0
   -0.9057   -1.3980    7.2366 H   0  0  0  0  0  0  0  0  0  0  0  0
    0.8036   -1.2835    7.4714 H   0  0  0  0  0  0  0  0  0  0  0  0
    0.1816    4.1268    6.9568 H   0  0  0  0  0  0  0  0  0  0  0  0
   -1.0969    4.5532    4.8348 H   0  0  0  0  0  0  0  0  0  0  0  0
    0.5890    4.5481    4.7370 H   0  0  0  0  0  0  0  0  0  0  0  0
   -1.0105    3.1926    3.0584 H   0  0  0  0  0  0  0  0  0  0  0  0
   -2.3241    1.5532    3.8073 H   0  0  0  0  0  0  0  0  0  0  0  0
   -2.0294    3.9275    6.9024 H   0  0  0  0  0  0  0  0  0  0  0  0
   -1.3519    2.8164    8.8682 H   0  0  0  0  0  0  0  0  0  0  0  0
   -1.2588    1.2549    8.1022 H   0  0  0  0  0  0  0  0  0  0  0  0
   -2.8139    2.0670    8.2458 H   0  0  0  0  0  0  0  0  0  0  0  0
   -2.1343    0.4091    6.1984 H   0  0  0  0  0  0  0  0  0  0  0  0
   -1.3039   -0.6481    3.8594 H   0  0  0  0  0  0  0  0  0  0  0  0
    0.7435    1.8321    4.0773 H   0  0  0  0  0  0  0  0  0  0  0  0
    2.4199    3.2983    2.0797 H   0  0  0  0  0  0  0  0  0  0  0  0
    1.6456    4.3107    3.1174 H   0  0  0  0  0  0  0  0  0  0  0  0
    3.9814    3.1187    3.8320 H   0  0  0  0  0  0  0  0  0  0  0  0
    2.8105    3.3517    5.0902 H   0  0  0  0  0  0  0  0  0  0  0  0
    3.8386    0.8871    4.0070 H   0  0  0  0  0  0  0  0  0  0  0  0
    4.5041    0.8502    6.5388 H   0  0  0  0  0  0  0  0  0  0  0  0
    3.2450    0.5408    7.7338 H   0  0  0  0  0  0  0  0  0  0  0  0
    3.4050    2.1379    7.0177 H   0  0  0  0  0  0  0  0  0  0  0  0
    3.8126   -1.0119    5.3244 H   0  0  0  0  0  0  0  0  0  0  0  0
    2.5130   -1.5102    6.2719 H   0  0  0  0  0  0  0  0  0  0  0  0
    2.9471   -1.7967    3.4765 H   0  0  0  0  0  0  0  0  0  0  0  0
    1.5669   -2.3587    4.3287 H   0  0  0  0  0  0  0  0  0  0  0  0
    1.0326   -0.9450    2.3211 H   0  0  0  0  0  0  0  0  0  0  0  0
    0.2870   -0.4143    3.7186 H   0  0  0  0  0  0  0  0  0  0  0  0
    3.1057   -0.1662    1.6693 H   0  0  0  0  0  0  0  0  0  0  0  0
    3.4168    1.5206    1.6853 H   0  0  0  0  0  0  0  0  0  0  0  0
    1.9362    0.9125    0.9338 H   0  0  0  0  0  0  0  0  0  0  0  0
  1  2  1  0
  1 25  1  0
  1 26  1  0
  1 27  1  0
  2 12  1  0
  2  3  2  3
  3 18  1  0
  3  4  1  0
  4  5  1  0
  5 10  1  0
  5  6  1  0
  5 28  1  1
  6  7  1  0
  6 29  1  0
  6 30  1  0
  7  8  1  0
  7 14  1  0
  7 31  1  6
  8  9  1  0
  8 12  1  0
  8 32  1  6
  9 10  1  0
 10 11  1  0
 10 33  1  1
 11 34  1  0
 11 35  1  0
 11 36  1  0
 12 13  1  0
 12 37  1  1
 13 38  1  0
 14 23  1  0
 14 15  1  0
 14 39  1  6
 15 16  1  0
 15 40  1  0
 15 41  1  0
 16 17  1  0
 16 42  1  0
 16 43  1  0
 17 23  1  0
 17 18  1  0
 17 44  1  6
 18 19  1  1
 18 20  1  0
 19 45  1  0
 19 46  1  0
 19 47  1  0
 20 21  1  0
 20 48  1  0
 20 49  1  0
 21 22  1  0
 21 50  1  0
 21 51  1  0
 22 23  1  0
 22 52  1  0
 22 53  1  0
 23 24  1  6
 24 54  1  0
 24 55  1  0
 24 56  1  0
M  END
>  <i_m_ct_stereo_status>  (426) 
1

>  <s_m_source_file>  (426) 
/var/tmp/pbs.5076255.sched01/tmpk5ywl0l3/150lwq6_0yz.sdf

>  <i_m_source_file_index>  (426) 
21

>  <i_lp_mmshare_version>  (426) 
48012

>  <i_f3d_flags>  (426) 
0

>  <s_epik_input>  (426) 
W0NIM11DMTJDLzM9QyhcW0NIM10pW0NASF0oW09IXSlbQ0BASF00W0NAQEhdKFtDSDJdW0NASF0oTzMpW0NAQEhdKE80KVtDSDNdKVtDQEhdNVtDQEBdKFtDSDNdKShbQ0BIXTFbQ0gyXVtDSDJdNSlbQ0gyXVtDSDJdW0NIMl0y

>  <s_epik_cmdline>  (426) 
J2VwaWtfcHl0aG9uJywgJy1waHQnLCAnMi4wJywgJy1waCcsICc3LjAnLCAnLXRuJywgJzgnLCAnLW1hJywgJzIwMCcsICctaW1hZScsICc8aW5maWxlLm1hZT4nLCAnLW9tYWUnLCAnPG91dGZpbGUubWFlPic=

>  <r_lp_tautomer_probability>  (426) 
1

>  <r_epik_Ionization_Penalty>  (426) 
7.7911e-07

>  <r_epik_Ionization_Penalty_Charging>  (426) 
0

>  <r_epik_Ionization_Penalty_Neutral>  (426) 
7.7911e-07

>  <r_epik_State_Penalty>  (426) 
-0

>  <r_epik_Charging_Adjusted_Penalty>  (426) 
0

>  <i_epik_Tot_Q>  (426) 
0

>  <i_epik_Tot_abs_Q>  (426) 
0

>  <s_lp_Force_Field>  (426) 
OPLS3e

>  <r_lp_Energy>  (426) 
213.667

>  <b_lp_Chiralities_Consistent>  (426) 
1

>  <s_lp_Variant>  (426) 
102:0-4

>  <s_i_glide_gridfile>  (426) 
pfpi4k_grid

>  <i_i_glide_lignum>  (426) 
21

>  <i_i_glide_rotatable_bonds>  (426) 
1

>  <r_i_docking_score>  (426) 
-2.44818

>  <r_i_glide_ligand_efficiency>  (426) 
-0.102008

>  <r_i_glide_ligand_efficiency_sa>  (426) 
-0.294241

>  <r_i_glide_ligand_efficiency_ln>  (426) 
-0.585962

>  <r_i_glide_gscore>  (426) 
-2.44818

>  <r_i_glide_lipo>  (426) 
-0.0545146

>  <r_i_glide_hbond>  (426) 
0

>  <r_i_glide_metal>  (426) 
-0

>  <r_i_glide_rewards>  (426) 
-1.1422

>  <r_i_glide_evdw>  (426) 
-21.3883

>  <r_i_glide_ecoul>  (426) 
-1.21367

>  <r_i_glide_erotb>  (426) 
0

>  <r_i_glide_esite>  (426) 
0

>  <r_i_glide_emodel>  (426) 
-26.4815

>  <r_i_glide_energy>  (426) 
-22.6019

>  <r_i_glide_einternal>  (426) 
5.7649e-05

>  <r_i_glide_intrahb_reward>  (426) 
-0

>  <i_i_glide_confnum>  (426) 
1

>  <i_i_glide_posenum>  (426) 
21

>  <r_i_glide_eff_state_penalty>  (426) 
0

>  <ligand_id>  (426) 
102

>  <original_smiles>  (426) 
CC1=C2OC3CC(C(OC3C)C1O)C1CCC3C2(C)CCCC13C

>  <smiles>  (426) 
[H]OC1([H])C(C([H])([H])[H])=C2OC3([H])C([H])([H])C([H])(C1([H])OC3([H])C([H])([H])[H])C1([H])C([H])([H])C([H])([H])C3([H])C2(C([H])([H])[H])C([H])([H])C([H])([H])C([H])([H])C13C([H])([H])[H]

$$$$
103:0:0
     RDKit          3D

 43 45  0  0  1  0  0  0  0  0999 V2000
    7.9692   -5.4382    1.3873 C   0  0  0  0  0  0  0  0  0  0  0  0
    7.4325   -4.2380    1.1051 C   0  0  0  0  0  0  0  0  0  0  0  0
    8.0565   -3.2366    0.0989 C   0  0  1  0  0  0  0  0  0  0  0  0
    9.0135   -3.8636   -0.7373 O   0  0  0  0  0  0  0  0  0  0  0  0
    7.0043   -2.4888   -0.7791 C   0  0  0  0  0  0  0  0  0  0  0  0
    5.6871   -3.2884   -0.7981 C   0  0  2  0  0  0  0  0  0  0  0  0
    4.5637   -2.9862   -1.8011 C   0  0  0  0  0  0  0  0  0  0  0  0
    5.0123   -2.4167   -3.1240 C   0  0  0  0  0  0  0  0  0  0  0  0
    3.2639   -3.2879   -1.5188 C   0  0  0  0  0  0  0  0  0  0  0  0
    2.1199   -3.0541   -2.4901 C   0  0  0  0  0  0  0  0  0  0  0  0
    2.8213   -3.9358   -0.1878 C   0  0  0  0  0  0  0  0  0  0  0  0
    4.0334   -4.4516    0.6272 C   0  0  2  0  0  0  0  0  0  0  0  0
    4.4548   -5.8444    0.0774 C   0  0  0  0  0  0  0  0  0  0  0  0
    3.9188   -4.6896    2.1203 C   0  0  0  0  0  0  0  0  0  0  0  0
    2.8782   -4.9335    2.7221 O   0  0  0  0  0  0  0  0  0  0  0  0
    5.3139   -4.5814    2.7457 C   0  0  0  0  0  0  0  0  0  0  0  0
    6.1200   -3.7271    1.7163 C   0  0  2  0  0  0  0  0  0  0  0  0
    5.1071   -3.3398    0.6228 C   0  0  1  0  0  0  0  0  0  0  0  0
    4.5300   -1.9370    1.0562 C   0  0  0  0  0  0  0  0  0  0  0  0
    7.5197   -6.1208    2.0917 H   0  0  0  0  0  0  0  0  0  0  0  0
    8.8866   -5.7673    0.9233 H   0  0  0  0  0  0  0  0  0  0  0  0
    8.6006   -2.4990    0.6834 H   0  0  0  0  0  0  0  0  0  0  0  0
    9.5049   -3.2146   -1.2355 H   0  0  0  0  0  0  0  0  0  0  0  0
    6.8232   -1.4988   -0.3660 H   0  0  0  0  0  0  0  0  0  0  0  0
    7.3917   -2.3282   -1.7822 H   0  0  0  0  0  0  0  0  0  0  0  0
    6.0231   -4.2683   -1.1200 H   0  0  0  0  0  0  0  0  0  0  0  0
    5.9071   -2.9416   -3.4716 H   0  0  0  0  0  0  0  0  0  0  0  0
    5.2323   -1.3563   -2.9952 H   0  0  0  0  0  0  0  0  0  0  0  0
    4.2778   -2.5129   -3.9148 H   0  0  0  0  0  0  0  0  0  0  0  0
    1.2363   -2.7584   -1.9353 H   0  0  0  0  0  0  0  0  0  0  0  0
    1.8659   -3.9701   -3.0217 H   0  0  0  0  0  0  0  0  0  0  0  0
    2.3069   -2.2628   -3.2150 H   0  0  0  0  0  0  0  0  0  0  0  0
    2.2315   -3.2159    0.3829 H   0  0  0  0  0  0  0  0  0  0  0  0
    2.1586   -4.7693   -0.4184 H   0  0  0  0  0  0  0  0  0  0  0  0
    4.6149   -5.8460   -1.0048 H   0  0  0  0  0  0  0  0  0  0  0  0
    3.6736   -6.5849    0.2545 H   0  0  0  0  0  0  0  0  0  0  0  0
    5.3684   -6.2295    0.5328 H   0  0  0  0  0  0  0  0  0  0  0  0
    5.2367   -4.0783    3.7095 H   0  0  0  0  0  0  0  0  0  0  0  0
    5.7127   -5.5765    2.9149 H   0  0  0  0  0  0  0  0  0  0  0  0
    6.4307   -2.8240    2.2415 H   0  0  0  0  0  0  0  0  0  0  0  0
    3.9805   -1.9841    2.0005 H   0  0  0  0  0  0  0  0  0  0  0  0
    3.8488   -1.4893    0.3318 H   0  0  0  0  0  0  0  0  0  0  0  0
    5.3190   -1.2001    1.2111 H   0  0  0  0  0  0  0  0  0  0  0  0
  1  2  2  0
  1 20  1  0
  1 21  1  0
  2 17  1  0
  2  3  1  0
  3  4  1  0
  3  5  1  0
  3 22  1  1
  4 23  1  0
  5  6  1  0
  5 24  1  0
  5 25  1  0
  6 18  1  0
  6  7  1  0
  6 26  1  6
  7  8  1  0
  7  9  2  0
  8 27  1  0
  8 28  1  0
  8 29  1  0
  9 10  1  0
  9 11  1  0
 10 30  1  0
 10 31  1  0
 10 32  1  0
 11 12  1  0
 11 33  1  0
 11 34  1  0
 12 18  1  0
 12 13  1  6
 12 14  1  0
 13 35  1  0
 13 36  1  0
 13 37  1  0
 14 15  2  0
 14 16  1  0
 16 17  1  0
 16 38  1  0
 16 39  1  0
 17 18  1  0
 17 40  1  1
 18 19  1  1
 19 41  1  0
 19 42  1  0
 19 43  1  0
M  END
>  <i_m_ct_stereo_status>  (427) 
1

>  <s_m_source_file>  (427) 
/var/tmp/pbs.5076255.sched01/tmpk5ywl0l3/150lwq6_0yz.sdf

>  <i_m_source_file_index>  (427) 
22

>  <i_lp_mmshare_version>  (427) 
48012

>  <i_f3d_flags>  (427) 
0

>  <s_epik_input>  (427) 
Tz1DMVtDSDJdW0NASF0yQyg9W0NIMl0pW0NAQEhdKFtPSF0pW0NIMl1bQ0BIXShDKFtDSDNdKT1DKFtDSDNdKVtDSDJdMylbQ0BAXTIoW0NIM10pW0NAQF0xM1tDSDNd

>  <s_epik_cmdline>  (427) 
J2VwaWtfcHl0aG9uJywgJy1waHQnLCAnMi4wJywgJy1waCcsICc3LjAnLCAnLXRuJywgJzgnLCAnLW1hJywgJzIwMCcsICctaW1hZScsICc8aW5maWxlLm1hZT4nLCAnLW9tYWUnLCAnPG91dGZpbGUubWFlPic=

>  <r_lp_tautomer_probability>  (427) 
1

>  <r_epik_Ionization_Penalty>  (427) 
5.9876e-08

>  <r_epik_Ionization_Penalty_Charging>  (427) 
0

>  <r_epik_Ionization_Penalty_Neutral>  (427) 
5.9876e-08

>  <r_epik_State_Penalty>  (427) 
-0

>  <r_epik_Charging_Adjusted_Penalty>  (427) 
0

>  <i_epik_Tot_Q>  (427) 
0

>  <i_epik_Tot_abs_Q>  (427) 
0

>  <s_lp_Force_Field>  (427) 
OPLS3e

>  <r_lp_Energy>  (427) 
39.8534

>  <b_lp_Chiralities_Consistent>  (427) 
1

>  <s_lp_Variant>  (427) 
103:0-1

>  <s_i_glide_gridfile>  (427) 
pfpi4k_grid

>  <i_i_glide_lignum>  (427) 
22

>  <i_i_glide_rotatable_bonds>  (427) 
1

>  <r_i_docking_score>  (427) 
-4.48127

>  <r_i_glide_ligand_efficiency>  (427) 
-0.235856

>  <r_i_glide_ligand_efficiency_sa>  (427) 
-0.629359

>  <r_i_glide_ligand_efficiency_ln>  (427) 
-1.1361

>  <r_i_glide_gscore>  (427) 
-4.48127

>  <r_i_glide_lipo>  (427) 
-0.964826

>  <r_i_glide_hbond>  (427) 
-0.2843

>  <r_i_glide_metal>  (427) 
-0

>  <r_i_glide_rewards>  (427) 
-1.63953

>  <r_i_glide_evdw>  (427) 
-22.722

>  <r_i_glide_ecoul>  (427) 
-3.04339

>  <r_i_glide_erotb>  (427) 
0

>  <r_i_glide_esite>  (427) 
0

>  <r_i_glide_emodel>  (427) 
-32.9668

>  <r_i_glide_energy>  (427) 
-25.7654

>  <r_i_glide_einternal>  (427) 
0.469138

>  <r_i_glide_intrahb_reward>  (427) 
-0

>  <i_i_glide_confnum>  (427) 
2

>  <i_i_glide_posenum>  (427) 
35

>  <r_i_glide_eff_state_penalty>  (427) 
0

>  <ligand_id>  (427) 
103

>  <original_smiles>  (427) 
C=C1C(O)CC2C(C)=C(C)CC3(C)C(=O)CC1C23C

>  <smiles>  (427) 
[H]OC1([H])C(=C([H])[H])C2([H])C([H])([H])C(=O)C3(C([H])([H])[H])C([H])([H])C(C([H])([H])[H])=C(C([H])([H])[H])C([H])(C1([H])[H])C23C([H])([H])[H]

$$$$
103:0:1
     RDKit          3D

 43 45  0  0  1  0  0  0  0  0999 V2000
    7.0402   -6.5646    2.3325 C   0  0  0  0  0  0  0  0  0  0  0  0
    6.9015   -5.2783    1.9464 C   0  0  0  0  0  0  0  0  0  0  0  0
    7.9265   -4.5486    1.0397 C   0  0  1  0  0  0  0  0  0  0  0  0
    8.7693   -5.4620    0.3614 O   0  0  0  0  0  0  0  0  0  0  0  0
    7.2859   -3.5805   -0.0048 C   0  0  0  0  0  0  0  0  0  0  0  0
    5.8195   -3.9919   -0.2457 C   0  0  2  0  0  0  0  0  0  0  0  0
    5.0040   -3.4676   -1.4406 C   0  0  0  0  0  0  0  0  0  0  0  0
    5.8143   -3.1036   -2.6689 C   0  0  0  0  0  0  0  0  0  0  0  0
    3.6379   -3.3963   -1.3825 C   0  0  0  0  0  0  0  0  0  0  0  0
    2.7662   -2.9102   -2.5328 C   0  0  0  0  0  0  0  0  0  0  0  0
    2.8313   -3.8304   -0.1384 C   0  0  0  0  0  0  0  0  0  0  0  0
    3.7069   -4.5990    0.8838 C   0  0  2  0  0  0  0  0  0  0  0  0
    3.8237   -6.0829    0.4275 C   0  0  0  0  0  0  0  0  0  0  0  0
    3.2839   -4.7151    2.3382 C   0  0  0  0  0  0  0  0  0  0  0  0
    2.1287   -4.6560    2.7516 O   0  0  0  0  0  0  0  0  0  0  0  0
    4.5344   -4.9463    3.1953 C   0  0  0  0  0  0  0  0  0  0  0  0
    5.7020   -4.3979    2.3193 C   0  0  2  0  0  0  0  0  0  0  0  0
    5.0246   -3.8118    1.0606 C   0  0  1  0  0  0  0  0  0  0  0  0
    4.7936   -2.2844    1.3734 C   0  0  0  0  0  0  0  0  0  0  0  0
    6.3099   -7.0568    2.9527 H   0  0  0  0  0  0  0  0  0  0  0  0
    7.8941   -7.1567    2.0396 H   0  0  0  0  0  0  0  0  0  0  0  0
    8.5751   -3.9582    1.6820 H   0  0  0  0  0  0  0  0  0  0  0  0
    9.0095   -6.1571    0.9624 H   0  0  0  0  0  0  0  0  0  0  0  0
    7.3352   -2.5585    0.3650 H   0  0  0  0  0  0  0  0  0  0  0  0
    7.8727   -3.5782   -0.9218 H   0  0  0  0  0  0  0  0  0  0  0  0
    5.9221   -5.0455   -0.4910 H   0  0  0  0  0  0  0  0  0  0  0  0
    6.5809   -3.8524   -2.8545 H   0  0  0  0  0  0  0  0  0  0  0  0
    6.3126   -2.1562   -2.4947 H   0  0  0  0  0  0  0  0  0  0  0  0
    5.2212   -3.0411   -3.5760 H   0  0  0  0  0  0  0  0  0  0  0  0
    1.9231   -2.3359   -2.1551 H   0  0  0  0  0  0  0  0  0  0  0  0
    2.3598   -3.7592   -3.0857 H   0  0  0  0  0  0  0  0  0  0  0  0
    3.2888   -2.2563   -3.2283 H   0  0  0  0  0  0  0  0  0  0  0  0
    2.3756   -2.9465    0.3129 H   0  0  0  0  0  0  0  0  0  0  0  0
    2.0071   -4.4618   -0.4680 H   0  0  0  0  0  0  0  0  0  0  0  0
    4.1535   -6.1889   -0.6064 H   0  0  0  0  0  0  0  0  0  0  0  0
    2.8524   -6.5743    0.4837 H   0  0  0  0  0  0  0  0  0  0  0  0
    4.5058   -6.6711    1.0414 H   0  0  0  0  0  0  0  0  0  0  0  0
    4.4429   -4.3894    4.1282 H   0  0  0  0  0  0  0  0  0  0  0  0
    4.6150   -6.0026    3.4408 H   0  0  0  0  0  0  0  0  0  0  0  0
    6.1619   -3.5886    2.8827 H   0  0  0  0  0  0  0  0  0  0  0  0
    4.1052   -2.1317    2.2074 H   0  0  0  0  0  0  0  0  0  0  0  0
    4.3891   -1.7170    0.5358 H   0  0  0  0  0  0  0  0  0  0  0  0
    5.7180   -1.7804    1.6542 H   0  0  0  0  0  0  0  0  0  0  0  0
  1  2  2  0
  1 20  1  0
  1 21  1  0
  2 17  1  0
  2  3  1  0
  3  4  1  0
  3  5  1  0
  3 22  1  1
  4 23  1  0
  5  6  1  0
  5 24  1  0
  5 25  1  0
  6 18  1  0
  6  7  1  0
  6 26  1  6
  7  8  1  0
  7  9  2  0
  8 27  1  0
  8 28  1  0
  8 29  1  0
  9 10  1  0
  9 11  1  0
 10 30  1  0
 10 31  1  0
 10 32  1  0
 11 12  1  0
 11 33  1  0
 11 34  1  0
 12 18  1  0
 12 13  1  6
 12 14  1  0
 13 35  1  0
 13 36  1  0
 13 37  1  0
 14 15  2  0
 14 16  1  0
 16 17  1  0
 16 38  1  0
 16 39  1  0
 17 18  1  0
 17 40  1  1
 18 19  1  1
 19 41  1  0
 19 42  1  0
 19 43  1  0
M  END
>  <i_m_ct_stereo_status>  (428) 
1

>  <s_m_source_file>  (428) 
/var/tmp/pbs.5076255.sched01/tmpk5ywl0l3/150lwq6_0yz.sdf

>  <i_m_source_file_index>  (428) 
22

>  <i_lp_mmshare_version>  (428) 
48012

>  <i_f3d_flags>  (428) 
0

>  <s_epik_input>  (428) 
Tz1DMVtDSDJdW0NASF0yQyg9W0NIMl0pW0NAQEhdKFtPSF0pW0NIMl1bQ0BIXShDKFtDSDNdKT1DKFtDSDNdKVtDSDJdMylbQ0BAXTIoW0NIM10pW0NAQF0xM1tDSDNd

>  <s_epik_cmdline>  (428) 
J2VwaWtfcHl0aG9uJywgJy1waHQnLCAnMi4wJywgJy1waCcsICc3LjAnLCAnLXRuJywgJzgnLCAnLW1hJywgJzIwMCcsICctaW1hZScsICc8aW5maWxlLm1hZT4nLCAnLW9tYWUnLCAnPG91dGZpbGUubWFlPic=

>  <r_lp_tautomer_probability>  (428) 
1

>  <r_epik_Ionization_Penalty>  (428) 
5.9876e-08

>  <r_epik_Ionization_Penalty_Charging>  (428) 
0

>  <r_epik_Ionization_Penalty_Neutral>  (428) 
5.9876e-08

>  <r_epik_State_Penalty>  (428) 
-0

>  <r_epik_Charging_Adjusted_Penalty>  (428) 
0

>  <i_epik_Tot_Q>  (428) 
0

>  <i_epik_Tot_abs_Q>  (428) 
0

>  <s_lp_Force_Field>  (428) 
OPLS3e

>  <r_lp_Energy>  (428) 
39.8534

>  <b_lp_Chiralities_Consistent>  (428) 
1

>  <s_lp_Variant>  (428) 
103:0-1

>  <s_i_glide_gridfile>  (428) 
pfpi4k_grid

>  <i_i_glide_lignum>  (428) 
22

>  <i_i_glide_rotatable_bonds>  (428) 
1

>  <r_i_docking_score>  (428) 
-3.84758

>  <r_i_glide_ligand_efficiency>  (428) 
-0.202504

>  <r_i_glide_ligand_efficiency_sa>  (428) 
-0.540362

>  <r_i_glide_ligand_efficiency_ln>  (428) 
-0.975444

>  <r_i_glide_gscore>  (428) 
-3.84758

>  <r_i_glide_lipo>  (428) 
-0.894385

>  <r_i_glide_hbond>  (428) 
0

>  <r_i_glide_metal>  (428) 
-0

>  <r_i_glide_rewards>  (428) 
-1.63409

>  <r_i_glide_evdw>  (428) 
-21.53

>  <r_i_glide_ecoul>  (428) 
-1.61735

>  <r_i_glide_erotb>  (428) 
0

>  <r_i_glide_esite>  (428) 
0

>  <r_i_glide_emodel>  (428) 
-29.2542

>  <r_i_glide_energy>  (428) 
-23.1473

>  <r_i_glide_einternal>  (428) 
0.616564

>  <r_i_glide_intrahb_reward>  (428) 
-0

>  <i_i_glide_confnum>  (428) 
2

>  <i_i_glide_posenum>  (428) 
2

>  <r_i_glide_eff_state_penalty>  (428) 
0

>  <ligand_id>  (428) 
103

>  <original_smiles>  (428) 
C=C1C(O)CC2C(C)=C(C)CC3(C)C(=O)CC1C23C

>  <smiles>  (428) 
[H]OC1([H])C(=C([H])[H])C2([H])C([H])([H])C(=O)C3(C([H])([H])[H])C([H])([H])C(C([H])([H])[H])=C(C([H])([H])[H])C([H])(C1([H])[H])C23C([H])([H])[H]

$$$$
103:0:2
     RDKit          3D

 43 45  0  0  1  0  0  0  0  0999 V2000
    3.6470   -3.5765    3.5663 C   0  0  0  0  0  0  0  0  0  0  0  0
    3.8715   -4.1428    2.3651 C   0  0  0  0  0  0  0  0  0  0  0  0
    2.8835   -5.1217    1.6904 C   0  0  1  0  0  0  0  0  0  0  0  0
    1.6009   -5.0593    2.2747 O   0  0  0  0  0  0  0  0  0  0  0  0
    2.7423   -4.9131    0.1512 C   0  0  0  0  0  0  0  0  0  0  0  0
    3.1995   -3.4876   -0.2355 C   0  0  2  0  0  0  0  0  0  0  0  0
    2.9450   -2.8829   -1.6270 C   0  0  0  0  0  0  0  0  0  0  0  0
    1.6861   -3.3569   -2.3042 C   0  0  0  0  0  0  0  0  0  0  0  0
    3.7454   -1.9090   -2.1535 C   0  0  0  0  0  0  0  0  0  0  0  0
    3.4989   -1.2229   -3.4893 C   0  0  0  0  0  0  0  0  0  0  0  0
    4.9715   -1.3534   -1.4051 C   0  0  0  0  0  0  0  0  0  0  0  0
    4.9844   -1.8213    0.0688 C   0  0  2  0  0  0  0  0  0  0  0  0
    4.0583   -0.8929    0.9040 C   0  0  0  0  0  0  0  0  0  0  0  0
    6.2894   -1.8336    0.8289 C   0  0  0  0  0  0  0  0  0  0  0  0
    7.2760   -1.1801    0.5224 O   0  0  0  0  0  0  0  0  0  0  0  0
    6.1982   -2.8652    1.9576 C   0  0  0  0  0  0  0  0  0  0  0  0
    5.0944   -3.8519    1.4954 C   0  0  2  0  0  0  0  0  0  0  0  0
    4.6849   -3.3367    0.0992 C   0  0  1  0  0  0  0  0  0  0  0  0
    5.5696   -4.1515   -0.9030 C   0  0  0  0  0  0  0  0  0  0  0  0
    4.3480   -2.8868    4.0125 H   0  0  0  0  0  0  0  0  0  0  0  0
    2.7555   -3.7866    4.1335 H   0  0  0  0  0  0  0  0  0  0  0  0
    3.2632   -6.1313    1.8612 H   0  0  0  0  0  0  0  0  0  0  0  0
    1.6938   -5.2654    3.1944 H   0  0  0  0  0  0  0  0  0  0  0  0
    3.3633   -5.6601   -0.3294 H   0  0  0  0  0  0  0  0  0  0  0  0
    1.7281   -5.1214   -0.1822 H   0  0  0  0  0  0  0  0  0  0  0  0
    2.5854   -2.8685    0.4160 H   0  0  0  0  0  0  0  0  0  0  0  0
    0.8802   -3.4455   -1.5797 H   0  0  0  0  0  0  0  0  0  0  0  0
    1.8131   -4.3090   -2.7832 H   0  0  0  0  0  0  0  0  0  0  0  0
    1.3533   -2.6792   -3.0811 H   0  0  0  0  0  0  0  0  0  0  0  0
    4.4411   -1.0227   -3.9989 H   0  0  0  0  0  0  0  0  0  0  0  0
    2.9905   -0.2727   -3.3292 H   0  0  0  0  0  0  0  0  0  0  0  0
    2.8925   -1.8167   -4.1744 H   0  0  0  0  0  0  0  0  0  0  0  0
    5.8724   -1.6651   -1.9362 H   0  0  0  0  0  0  0  0  0  0  0  0
    4.9354   -0.2656   -1.4412 H   0  0  0  0  0  0  0  0  0  0  0  0
    3.0533   -0.7968    0.4945 H   0  0  0  0  0  0  0  0  0  0  0  0
    4.4658    0.1201    0.9377 H   0  0  0  0  0  0  0  0  0  0  0  0
    3.9646   -1.2259    1.9385 H   0  0  0  0  0  0  0  0  0  0  0  0
    7.1399   -3.3932    2.0436 H   0  0  0  0  0  0  0  0  0  0  0  0
    5.9729   -2.3602    2.8947 H   0  0  0  0  0  0  0  0  0  0  0  0
    5.5697   -4.8306    1.4133 H   0  0  0  0  0  0  0  0  0  0  0  0
    6.6338   -3.9398   -0.7773 H   0  0  0  0  0  0  0  0  0  0  0  0
    5.3486   -3.9724   -1.9552 H   0  0  0  0  0  0  0  0  0  0  0  0
    5.4540   -5.2260   -0.7612 H   0  0  0  0  0  0  0  0  0  0  0  0
  1  2  2  0
  1 20  1  0
  1 21  1  0
  2 17  1  0
  2  3  1  0
  3  4  1  0
  3  5  1  0
  3 22  1  6
  4 23  1  0
  5  6  1  0
  5 24  1  0
  5 25  1  0
  6 18  1  0
  6  7  1  0
  6 26  1  1
  7  8  1  0
  7  9  2  0
  8 27  1  0
  8 28  1  0
  8 29  1  0
  9 10  1  0
  9 11  1  0
 10 30  1  0
 10 31  1  0
 10 32  1  0
 11 12  1  0
 11 33  1  0
 11 34  1  0
 12 18  1  0
 12 13  1  1
 12 14  1  0
 13 35  1  0
 13 36  1  0
 13 37  1  0
 14 15  2  0
 14 16  1  0
 16 17  1  0
 16 38  1  0
 16 39  1  0
 17 18  1  0
 17 40  1  6
 18 19  1  6
 19 41  1  0
 19 42  1  0
 19 43  1  0
M  END
>  <i_m_ct_stereo_status>  (429) 
1

>  <s_m_source_file>  (429) 
/var/tmp/pbs.5076255.sched01/tmpk5ywl0l3/150lwq6_0yz.sdf

>  <i_m_source_file_index>  (429) 
22

>  <i_lp_mmshare_version>  (429) 
48012

>  <i_f3d_flags>  (429) 
0

>  <s_epik_input>  (429) 
Tz1DMVtDSDJdW0NASF0yQyg9W0NIMl0pW0NAQEhdKFtPSF0pW0NIMl1bQ0BIXShDKFtDSDNdKT1DKFtDSDNdKVtDSDJdMylbQ0BAXTIoW0NIM10pW0NAQF0xM1tDSDNd

>  <s_epik_cmdline>  (429) 
J2VwaWtfcHl0aG9uJywgJy1waHQnLCAnMi4wJywgJy1waCcsICc3LjAnLCAnLXRuJywgJzgnLCAnLW1hJywgJzIwMCcsICctaW1hZScsICc8aW5maWxlLm1hZT4nLCAnLW9tYWUnLCAnPG91dGZpbGUubWFlPic=

>  <r_lp_tautomer_probability>  (429) 
1

>  <r_epik_Ionization_Penalty>  (429) 
5.9876e-08

>  <r_epik_Ionization_Penalty_Charging>  (429) 
0

>  <r_epik_Ionization_Penalty_Neutral>  (429) 
5.9876e-08

>  <r_epik_State_Penalty>  (429) 
-0

>  <r_epik_Charging_Adjusted_Penalty>  (429) 
0

>  <i_epik_Tot_Q>  (429) 
0

>  <i_epik_Tot_abs_Q>  (429) 
0

>  <s_lp_Force_Field>  (429) 
OPLS3e

>  <r_lp_Energy>  (429) 
39.8534

>  <b_lp_Chiralities_Consistent>  (429) 
1

>  <s_lp_Variant>  (429) 
103:0-1

>  <s_i_glide_gridfile>  (429) 
pfpi4k_grid

>  <i_i_glide_lignum>  (429) 
22

>  <i_i_glide_rotatable_bonds>  (429) 
1

>  <r_i_docking_score>  (429) 
-3.20609

>  <r_i_glide_ligand_efficiency>  (429) 
-0.168741

>  <r_i_glide_ligand_efficiency_sa>  (429) 
-0.45027

>  <r_i_glide_ligand_efficiency_ln>  (429) 
-0.812812

>  <r_i_glide_gscore>  (429) 
-3.20609

>  <r_i_glide_lipo>  (429) 
-0.44559

>  <r_i_glide_hbond>  (429) 
-0.0354265

>  <r_i_glide_metal>  (429) 
-0

>  <r_i_glide_rewards>  (429) 
-1.76841

>  <r_i_glide_evdw>  (429) 
-17.5936

>  <r_i_glide_ecoul>  (429) 
-0.513194

>  <r_i_glide_erotb>  (429) 
0

>  <r_i_glide_esite>  (429) 
0

>  <r_i_glide_emodel>  (429) 
-23.1772

>  <r_i_glide_energy>  (429) 
-18.1068

>  <r_i_glide_einternal>  (429) 
0.372659

>  <r_i_glide_intrahb_reward>  (429) 
-0

>  <i_i_glide_confnum>  (429) 
2

>  <i_i_glide_posenum>  (429) 
11

>  <r_i_glide_eff_state_penalty>  (429) 
0

>  <ligand_id>  (429) 
103

>  <original_smiles>  (429) 
C=C1C(O)CC2C(C)=C(C)CC3(C)C(=O)CC1C23C

>  <smiles>  (429) 
[H]OC1([H])C(=C([H])[H])C2([H])C([H])([H])C(=O)C3(C([H])([H])[H])C([H])([H])C(C([H])([H])[H])=C(C([H])([H])[H])C([H])(C1([H])[H])C23C([H])([H])[H]

$$$$
104:0:0
     RDKit          3D

 37 39  0  0  1  0  0  0  0  0999 V2000
    9.3804   -3.2543    0.6427 C   0  0  0  0  0  0  0  0  0  0  0  0
    8.4914   -4.2710    0.1954 O   0  0  0  0  0  0  0  0  0  0  0  0
    7.5058   -4.6513    1.1575 C   0  0  2  0  0  0  0  0  0  0  0  0
    7.9602   -5.7903    2.0893 C   0  0  0  0  0  0  0  0  0  0  0  0
    6.6446   -6.4534    2.5509 C   0  0  2  0  0  0  0  0  0  0  0  0
    6.5206   -7.9337    2.3988 C   0  0  0  0  0  0  0  0  0  0  0  0
    5.4996   -8.2269    1.6017 C   0  0  0  0  0  0  0  0  0  0  0  0
    4.8863   -7.1305    1.0739 O   0  0  0  0  0  0  0  0  0  0  0  0
    5.5412   -5.9777    1.5958 C   0  0  2  0  0  0  0  0  0  0  0  0
    6.2611   -5.2295    0.4746 C   0  0  1  0  0  0  0  0  0  0  0  0
    5.3750   -4.1741   -0.1496 C   0  0  0  0  0  0  0  0  0  0  0  0
    4.9609   -4.1746   -1.4349 C   0  0  0  0  0  0  0  0  0  0  0  0
    4.1403   -3.1477   -2.1095 C   0  0  0  0  0  0  0  0  0  0  0  0
    3.3243   -3.4371   -3.1284 N   0  0  0  0  0  0  0  0  0  0  0  0
    2.6443   -2.3127   -3.5132 C   0  0  0  0  0  0  0  0  0  0  0  0
    3.0558   -1.3016   -2.6819 C   0  0  0  0  0  0  0  0  0  0  0  0
    3.9694   -1.8487   -1.7954 N   0  0  0  0  0  0  0  0  0  0  0  0
    4.6532   -1.1332   -0.7183 C   0  0  0  0  0  0  0  0  0  0  0  0
   10.0920   -3.0367   -0.1502 H   0  0  0  0  0  0  0  0  0  0  0  0
    9.9407   -3.5664    1.5253 H   0  0  0  0  0  0  0  0  0  0  0  0
    8.8558   -2.3242    0.8658 H   0  0  0  0  0  0  0  0  0  0  0  0
    7.1912   -3.7896    1.7438 H   0  0  0  0  0  0  0  0  0  0  0  0
    8.6005   -6.4978    1.5545 H   0  0  0  0  0  0  0  0  0  0  0  0
    8.5542   -5.4180    2.9273 H   0  0  0  0  0  0  0  0  0  0  0  0
    6.3997   -6.1855    3.5800 H   0  0  0  0  0  0  0  0  0  0  0  0
    7.0830   -8.6544    2.9729 H   0  0  0  0  0  0  0  0  0  0  0  0
    5.0586   -9.1936    1.3846 H   0  0  0  0  0  0  0  0  0  0  0  0
    4.8336   -5.3348    2.1233 H   0  0  0  0  0  0  0  0  0  0  0  0
    6.5959   -5.9242   -0.2967 H   0  0  0  0  0  0  0  0  0  0  0  0
    5.0800   -3.3966    0.5386 H   0  0  0  0  0  0  0  0  0  0  0  0
    5.2500   -4.9969   -2.0734 H   0  0  0  0  0  0  0  0  0  0  0  0
    1.9082   -2.2931   -4.3069 H   0  0  0  0  0  0  0  0  0  0  0  0
    2.7417   -0.2659   -2.6239 H   0  0  0  0  0  0  0  0  0  0  0  0
    4.3976   -0.0747   -0.7754 H   0  0  0  0  0  0  0  0  0  0  0  0
    5.7345   -1.2647   -0.8435 H   0  0  0  0  0  0  0  0  0  0  0  0
    4.3179   -1.5068    0.2552 H   0  0  0  0  0  0  0  0  0  0  0  0
    3.1776   -4.3882   -3.4755 H   0  0  0  0  0  0  0  0  0  0  0  0
  1  2  1  0
  1 19  1  0
  1 20  1  0
  1 21  1  0
  2  3  1  0
  3 10  1  0
  3  4  1  0
  3 22  1  1
  4  5  1  0
  4 23  1  0
  4 24  1  0
  5  9  1  0
  5  6  1  0
  5 25  1  1
  6  7  2  0
  6 26  1  0
  7  8  1  0
  7 27  1  0
  8  9  1  0
  9 10  1  0
  9 28  1  1
 10 11  1  0
 10 29  1  6
 11 12  2  3
 11 30  1  0
 12 13  1  0
 12 31  1  0
 13 17  1  0
 13 14  2  0
 14 15  1  0
 14 37  1  0
 15 16  2  0
 15 32  1  0
 16 17  1  0
 16 33  1  0
 17 18  1  0
 18 34  1  0
 18 35  1  0
 18 36  1  0
M  CHG  1  14   1
M  END
>  <i_m_ct_stereo_status>  (430) 
1

>  <s_m_source_file>  (430) 
/var/tmp/pbs.5076255.sched01/tmpk5ywl0l3/150lwq6_0yz.sdf

>  <i_m_source_file_index>  (430) 
23

>  <i_lp_mmshare_version>  (430) 
48012

>  <i_f3d_flags>  (430) 
0

>  <s_epik_input>  (430) 
W0NIXTE9W0NIXU9bQ0BASF0oW0NAQEhdMTIpW0NASF0oW0NAQEhdKFtDSDJdMilPW0NIM10pL1tDSF09W0NIXS9jM25bY0hdW2NIXW4zW0NIM10=

>  <s_epik_cmdline>  (430) 
J2VwaWtfcHl0aG9uJywgJy1waHQnLCAnMi4wJywgJy1waCcsICc3LjAnLCAnLXRuJywgJzgnLCAnLW1hJywgJzIwMCcsICctaW1hZScsICc8aW5maWxlLm1hZT4nLCAnLW9tYWUnLCAnPG91dGZpbGUubWFlPic=

>  <r_epik_Ionization_Penalty>  (430) 
0.0388996

>  <r_epik_Ionization_Penalty_Charging>  (430) 
0

>  <r_epik_Ionization_Penalty_Neutral>  (430) 
0.0388996

>  <r_epik_State_Penalty>  (430) 
0.0326499

>  <r_epik_Charging_Adjusted_Penalty>  (430) 
0.0326499

>  <i_epik_Tot_Q>  (430) 
1

>  <i_epik_Tot_abs_Q>  (430) 
1

>  <s_lp_Force_Field>  (430) 
OPLS3e

>  <r_lp_Energy>  (430) 
10.4118

>  <b_lp_Chiralities_Consistent>  (430) 
1

>  <s_lp_Variant>  (430) 
104:0-1

>  <s_i_glide_gridfile>  (430) 
pfpi4k_grid

>  <i_i_glide_lignum>  (430) 
23

>  <i_i_glide_rotatable_bonds>  (430) 
3

>  <r_i_docking_score>  (430) 
-3.7853

>  <r_i_glide_ligand_efficiency>  (430) 
-0.210295

>  <r_i_glide_ligand_efficiency_sa>  (430) 
-0.551128

>  <r_i_glide_ligand_efficiency_ln>  (430) 
-0.972992

>  <r_i_glide_gscore>  (430) 
-3.7853

>  <r_i_glide_lipo>  (430) 
-0.737428

>  <r_i_glide_hbond>  (430) 
0

>  <r_i_glide_metal>  (430) 
-0

>  <r_i_glide_rewards>  (430) 
-1.72287

>  <r_i_glide_evdw>  (430) 
-17.9216

>  <r_i_glide_ecoul>  (430) 
-6.25174

>  <r_i_glide_erotb>  (430) 
0.570464

>  <r_i_glide_esite>  (430) 
-0.0616284

>  <r_i_glide_emodel>  (430) 
-29.798

>  <r_i_glide_energy>  (430) 
-24.1734

>  <r_i_glide_einternal>  (430) 
2.65639

>  <r_i_glide_intrahb_reward>  (430) 
-0

>  <i_i_glide_confnum>  (430) 
6

>  <i_i_glide_posenum>  (430) 
3

>  <r_i_glide_eff_state_penalty>  (430) 
0

>  <ligand_id>  (430) 
104

>  <original_smiles>  (430) 
COC1CC2C=COC2C1C=Cc1nccn1C

>  <smiles>  (430) 
[H]C1=C([H])C2([H])C([H])([H])C([H])(OC([H])([H])[H])C([H])(C([H])=C([H])c3n(C([H])([H])[H])c([H])c([H])[n+]3[H])C2([H])O1

$$$$
104:0:1
     RDKit          3D

 37 39  0  0  1  0  0  0  0  0999 V2000
   -0.3612   -7.7906    2.0965 C   0  0  0  0  0  0  0  0  0  0  0  0
    0.0311   -6.4240    2.2177 O   0  0  0  0  0  0  0  0  0  0  0  0
    1.1398   -6.2168    3.1021 C   0  0  2  0  0  0  0  0  0  0  0  0
    0.7912   -6.3165    4.5976 C   0  0  0  0  0  0  0  0  0  0  0  0
    1.8721   -5.4679    5.3027 C   0  0  2  0  0  0  0  0  0  0  0  0
    1.4145   -4.4128    6.2562 C   0  0  0  0  0  0  0  0  0  0  0  0
    1.8347   -3.2207    5.8479 C   0  0  0  0  0  0  0  0  0  0  0  0
    2.4892   -3.2515    4.6519 O   0  0  0  0  0  0  0  0  0  0  0  0
    2.5344   -4.6056    4.2214 C   0  0  2  0  0  0  0  0  0  0  0  0
    1.6854   -4.7873    2.9653 C   0  0  1  0  0  0  0  0  0  0  0  0
    2.5289   -4.6039    1.7238 C   0  0  0  0  0  0  0  0  0  0  0  0
    2.4937   -3.5245    0.9125 C   0  0  0  0  0  0  0  0  0  0  0  0
    3.2982   -3.2813   -0.3074 C   0  0  0  0  0  0  0  0  0  0  0  0
    3.0209   -2.3063   -1.1742 N   0  0  0  0  0  0  0  0  0  0  0  0
    3.9339   -2.3265   -2.2026 C   0  0  0  0  0  0  0  0  0  0  0  0
    4.7846   -3.3790   -1.9485 C   0  0  0  0  0  0  0  0  0  0  0  0
    4.3639   -3.9622   -0.7740 N   0  0  0  0  0  0  0  0  0  0  0  0
    4.9892   -5.1253   -0.1442 C   0  0  0  0  0  0  0  0  0  0  0  0
   -1.2087   -7.8703    1.4170 H   0  0  0  0  0  0  0  0  0  0  0  0
   -0.6704   -8.2026    3.0588 H   0  0  0  0  0  0  0  0  0  0  0  0
    0.4406   -8.4108    1.6910 H   0  0  0  0  0  0  0  0  0  0  0  0
    1.9374   -6.9274    2.8763 H   0  0  0  0  0  0  0  0  0  0  0  0
   -0.2119   -5.9292    4.7771 H   0  0  0  0  0  0  0  0  0  0  0  0
    0.8005   -7.3542    4.9373 H   0  0  0  0  0  0  0  0  0  0  0  0
    2.6113   -6.0971    5.8056 H   0  0  0  0  0  0  0  0  0  0  0  0
    0.9514   -4.6109    7.2092 H   0  0  0  0  0  0  0  0  0  0  0  0
    1.7877   -2.2633    6.3543 H   0  0  0  0  0  0  0  0  0  0  0  0
    3.5694   -4.9242    4.0726 H   0  0  0  0  0  0  0  0  0  0  0  0
    0.8356   -4.0936    2.9658 H   0  0  0  0  0  0  0  0  0  0  0  0
    3.1883   -5.4392    1.5425 H   0  0  0  0  0  0  0  0  0  0  0  0
    1.8227   -2.7122    1.1510 H   0  0  0  0  0  0  0  0  0  0  0  0
    3.9207   -1.6260   -3.0199 H   0  0  0  0  0  0  0  0  0  0  0  0
    5.6312   -3.7567   -2.5032 H   0  0  0  0  0  0  0  0  0  0  0  0
    5.8545   -5.4192   -0.7210 H   0  0  0  0  0  0  0  0  0  0  0  0
    4.2823   -5.9540   -0.1319 H   0  0  0  0  0  0  0  0  0  0  0  0
    5.3142   -4.8547    0.8612 H   0  0  0  0  0  0  0  0  0  0  0  0
    2.2330   -1.6469   -1.0921 H   0  0  0  0  0  0  0  0  0  0  0  0
  1  2  1  0
  1 19  1  0
  1 20  1  0
  1 21  1  0
  2  3  1  0
  3 10  1  0
  3  4  1  0
  3 22  1  6
  4  5  1  0
  4 23  1  0
  4 24  1  0
  5  9  1  0
  5  6  1  0
  5 25  1  1
  6  7  2  0
  6 26  1  0
  7  8  1  0
  7 27  1  0
  8  9  1  0
  9 10  1  0
  9 28  1  6
 10 11  1  0
 10 29  1  1
 11 12  2  3
 11 30  1  0
 12 13  1  0
 12 31  1  0
 13 17  1  0
 13 14  2  0
 14 15  1  0
 14 37  1  0
 15 16  2  0
 15 32  1  0
 16 17  1  0
 16 33  1  0
 17 18  1  0
 18 34  1  0
 18 35  1  0
 18 36  1  0
M  CHG  1  14   1
M  END
>  <i_m_ct_stereo_status>  (431) 
1

>  <s_m_source_file>  (431) 
/var/tmp/pbs.5076255.sched01/tmpk5ywl0l3/150lwq6_0yz.sdf

>  <i_m_source_file_index>  (431) 
23

>  <i_lp_mmshare_version>  (431) 
48012

>  <i_f3d_flags>  (431) 
0

>  <s_epik_input>  (431) 
W0NIXTE9W0NIXU9bQ0BASF0oW0NAQEhdMTIpW0NASF0oW0NAQEhdKFtDSDJdMilPW0NIM10pL1tDSF09W0NIXS9jM25bY0hdW2NIXW4zW0NIM10=

>  <s_epik_cmdline>  (431) 
J2VwaWtfcHl0aG9uJywgJy1waHQnLCAnMi4wJywgJy1waCcsICc3LjAnLCAnLXRuJywgJzgnLCAnLW1hJywgJzIwMCcsICctaW1hZScsICc8aW5maWxlLm1hZT4nLCAnLW9tYWUnLCAnPG91dGZpbGUubWFlPic=

>  <r_epik_Ionization_Penalty>  (431) 
0.0388996

>  <r_epik_Ionization_Penalty_Charging>  (431) 
0

>  <r_epik_Ionization_Penalty_Neutral>  (431) 
0.0388996

>  <r_epik_State_Penalty>  (431) 
0.0326499

>  <r_epik_Charging_Adjusted_Penalty>  (431) 
0.0326499

>  <i_epik_Tot_Q>  (431) 
1

>  <i_epik_Tot_abs_Q>  (431) 
1

>  <s_lp_Force_Field>  (431) 
OPLS3e

>  <r_lp_Energy>  (431) 
10.4118

>  <b_lp_Chiralities_Consistent>  (431) 
1

>  <s_lp_Variant>  (431) 
104:0-1

>  <s_i_glide_gridfile>  (431) 
pfpi4k_grid

>  <i_i_glide_lignum>  (431) 
23

>  <i_i_glide_rotatable_bonds>  (431) 
3

>  <r_i_docking_score>  (431) 
-3.61433

>  <r_i_glide_ligand_efficiency>  (431) 
-0.200796

>  <r_i_glide_ligand_efficiency_sa>  (431) 
-0.526234

>  <r_i_glide_ligand_efficiency_ln>  (431) 
-0.929044

>  <r_i_glide_gscore>  (431) 
-3.61433

>  <r_i_glide_lipo>  (431) 
-0.0536176

>  <r_i_glide_hbond>  (431) 
-0.397211

>  <r_i_glide_metal>  (431) 
-0

>  <r_i_glide_rewards>  (431) 
-1.75809

>  <r_i_glide_evdw>  (431) 
-13.499

>  <r_i_glide_ecoul>  (431) 
-8.07221

>  <r_i_glide_erotb>  (431) 
0.570464

>  <r_i_glide_esite>  (431) 
-0.0900963

>  <r_i_glide_emodel>  (431) 
-27.0984

>  <r_i_glide_energy>  (431) 
-21.5712

>  <r_i_glide_einternal>  (431) 
2.24334

>  <r_i_glide_intrahb_reward>  (431) 
-0

>  <i_i_glide_confnum>  (431) 
5

>  <i_i_glide_posenum>  (431) 
37

>  <r_i_glide_eff_state_penalty>  (431) 
0

>  <ligand_id>  (431) 
104

>  <original_smiles>  (431) 
COC1CC2C=COC2C1C=Cc1nccn1C

>  <smiles>  (431) 
[H]C1=C([H])C2([H])C([H])([H])C([H])(OC([H])([H])[H])C([H])(C([H])=C([H])c3n(C([H])([H])[H])c([H])c([H])[n+]3[H])C2([H])O1

$$$$
104:0:2
     RDKit          3D

 37 39  0  0  1  0  0  0  0  0999 V2000
    7.0863   -5.6962    1.5634 C   0  0  0  0  0  0  0  0  0  0  0  0
    5.9115   -5.6936    0.7622 O   0  0  0  0  0  0  0  0  0  0  0  0
    4.7085   -5.4211    1.4777 C   0  0  2  0  0  0  0  0  0  0  0  0
    4.2676   -6.5652    2.4135 C   0  0  0  0  0  0  0  0  0  0  0  0
    2.7385   -6.3890    2.5526 C   0  0  2  0  0  0  0  0  0  0  0  0
    1.8713   -7.5810    2.2919 C   0  0  0  0  0  0  0  0  0  0  0  0
    1.0367   -7.3316    1.2892 C   0  0  0  0  0  0  0  0  0  0  0  0
    1.2305   -6.1146    0.7054 O   0  0  0  0  0  0  0  0  0  0  0  0
    2.2981   -5.4654    1.4046 C   0  0  2  0  0  0  0  0  0  0  0  0
    3.5306   -5.2845    0.5046 C   0  0  1  0  0  0  0  0  0  0  0  0
    3.4964   -3.9617   -0.2299 C   0  0  0  0  0  0  0  0  0  0  0  0
    3.8682   -3.7865   -1.5157 C   0  0  0  0  0  0  0  0  0  0  0  0
    3.8547   -2.5233   -2.2682 C   0  0  0  0  0  0  0  0  0  0  0  0
    3.5472   -2.4514   -3.5663 N   0  0  0  0  0  0  0  0  0  0  0  0
    3.6020   -1.1416   -3.9822 C   0  0  0  0  0  0  0  0  0  0  0  0
    3.9588   -0.3987   -2.8815 C   0  0  0  0  0  0  0  0  0  0  0  0
    4.0807   -1.2771   -1.8277 N   0  0  0  0  0  0  0  0  0  0  0  0
    4.4495   -0.9200   -0.4500 C   0  0  0  0  0  0  0  0  0  0  0  0
    7.9487   -5.9152    0.9329 H   0  0  0  0  0  0  0  0  0  0  0  0
    7.0412   -6.4632    2.3376 H   0  0  0  0  0  0  0  0  0  0  0  0
    7.2540   -4.7271    2.0377 H   0  0  0  0  0  0  0  0  0  0  0  0
    4.8031   -4.4982    2.0504 H   0  0  0  0  0  0  0  0  0  0  0  0
    4.5329   -7.5352    1.9946 H   0  0  0  0  0  0  0  0  0  0  0  0
    4.7669   -6.4929    3.3807 H   0  0  0  0  0  0  0  0  0  0  0  0
    2.4697   -5.9632    3.5192 H   0  0  0  0  0  0  0  0  0  0  0  0
    1.8302   -8.4502    2.9288 H   0  0  0  0  0  0  0  0  0  0  0  0
    0.1964   -7.9109    0.9348 H   0  0  0  0  0  0  0  0  0  0  0  0
    1.9528   -4.5168    1.8190 H   0  0  0  0  0  0  0  0  0  0  0  0
    3.6123   -6.1014   -0.2157 H   0  0  0  0  0  0  0  0  0  0  0  0
    3.1185   -3.1378    0.3590 H   0  0  0  0  0  0  0  0  0  0  0  0
    4.2332   -4.6356   -2.0628 H   0  0  0  0  0  0  0  0  0  0  0  0
    3.3814   -0.8225   -4.9906 H   0  0  0  0  0  0  0  0  0  0  0  0
    4.1030    0.6670   -2.7740 H   0  0  0  0  0  0  0  0  0  0  0  0
    4.6441    0.1510   -0.3931 H   0  0  0  0  0  0  0  0  0  0  0  0
    5.3403   -1.4889   -0.1660 H   0  0  0  0  0  0  0  0  0  0  0  0
    3.6165   -1.1300    0.2217 H   0  0  0  0  0  0  0  0  0  0  0  0
    3.2727   -3.2479   -4.1272 H   0  0  0  0  0  0  0  0  0  0  0  0
  1  2  1  0
  1 19  1  0
  1 20  1  0
  1 21  1  0
  2  3  1  0
  3 10  1  0
  3  4  1  0
  3 22  1  1
  4  5  1  0
  4 23  1  0
  4 24  1  0
  5  9  1  0
  5  6  1  0
  5 25  1  1
  6  7  2  0
  6 26  1  0
  7  8  1  0
  7 27  1  0
  8  9  1  0
  9 10  1  0
  9 28  1  1
 10 11  1  0
 10 29  1  6
 11 12  2  3
 11 30  1  0
 12 13  1  0
 12 31  1  0
 13 17  1  0
 13 14  2  0
 14 15  1  0
 14 37  1  0
 15 16  2  0
 15 32  1  0
 16 17  1  0
 16 33  1  0
 17 18  1  0
 18 34  1  0
 18 35  1  0
 18 36  1  0
M  CHG  1  14   1
M  END
>  <i_m_ct_stereo_status>  (432) 
1

>  <s_m_source_file>  (432) 
/var/tmp/pbs.5076255.sched01/tmpk5ywl0l3/150lwq6_0yz.sdf

>  <i_m_source_file_index>  (432) 
23

>  <i_lp_mmshare_version>  (432) 
48012

>  <i_f3d_flags>  (432) 
0

>  <s_epik_input>  (432) 
W0NIXTE9W0NIXU9bQ0BASF0oW0NAQEhdMTIpW0NASF0oW0NAQEhdKFtDSDJdMilPW0NIM10pL1tDSF09W0NIXS9jM25bY0hdW2NIXW4zW0NIM10=

>  <s_epik_cmdline>  (432) 
J2VwaWtfcHl0aG9uJywgJy1waHQnLCAnMi4wJywgJy1waCcsICc3LjAnLCAnLXRuJywgJzgnLCAnLW1hJywgJzIwMCcsICctaW1hZScsICc8aW5maWxlLm1hZT4nLCAnLW9tYWUnLCAnPG91dGZpbGUubWFlPic=

>  <r_epik_Ionization_Penalty>  (432) 
0.0388996

>  <r_epik_Ionization_Penalty_Charging>  (432) 
0

>  <r_epik_Ionization_Penalty_Neutral>  (432) 
0.0388996

>  <r_epik_State_Penalty>  (432) 
0.0326499

>  <r_epik_Charging_Adjusted_Penalty>  (432) 
0.0326499

>  <i_epik_Tot_Q>  (432) 
1

>  <i_epik_Tot_abs_Q>  (432) 
1

>  <s_lp_Force_Field>  (432) 
OPLS3e

>  <r_lp_Energy>  (432) 
10.4118

>  <b_lp_Chiralities_Consistent>  (432) 
1

>  <s_lp_Variant>  (432) 
104:0-1

>  <s_i_glide_gridfile>  (432) 
pfpi4k_grid

>  <i_i_glide_lignum>  (432) 
23

>  <i_i_glide_rotatable_bonds>  (432) 
3

>  <r_i_docking_score>  (432) 
-3.56964

>  <r_i_glide_ligand_efficiency>  (432) 
-0.198313

>  <r_i_glide_ligand_efficiency_sa>  (432) 
-0.519728

>  <r_i_glide_ligand_efficiency_ln>  (432) 
-0.917558

>  <r_i_glide_gscore>  (432) 
-3.56964

>  <r_i_glide_lipo>  (432) 
-0.417127

>  <r_i_glide_hbond>  (432) 
-0.16

>  <r_i_glide_metal>  (432) 
-0

>  <r_i_glide_rewards>  (432) 
-1.72287

>  <r_i_glide_evdw>  (432) 
-17.9447

>  <r_i_glide_ecoul>  (432) 
-5.93099

>  <r_i_glide_erotb>  (432) 
0.570464

>  <r_i_glide_esite>  (432) 
-0.0532271

>  <r_i_glide_emodel>  (432) 
-28.8325

>  <r_i_glide_energy>  (432) 
-23.8757

>  <r_i_glide_einternal>  (432) 
3.03916

>  <r_i_glide_intrahb_reward>  (432) 
-0

>  <i_i_glide_confnum>  (432) 
6

>  <i_i_glide_posenum>  (432) 
13

>  <r_i_glide_eff_state_penalty>  (432) 
0

>  <ligand_id>  (432) 
104

>  <original_smiles>  (432) 
COC1CC2C=COC2C1C=Cc1nccn1C

>  <smiles>  (432) 
[H]C1=C([H])C2([H])C([H])([H])C([H])(OC([H])([H])[H])C([H])(C([H])=C([H])c3n(C([H])([H])[H])c([H])c([H])[n+]3[H])C2([H])O1

$$$$
104:1:0
     RDKit          3D

 37 39  0  0  1  0  0  0  0  0999 V2000
    0.7870    4.2978    6.9355 C   0  0  0  0  0  0  0  0  0  0  0  0
    0.8475    3.2743    5.9390 O   0  0  0  0  0  0  0  0  0  0  0  0
    0.1633    3.5218    4.7126 C   0  0  2  0  0  0  0  0  0  0  0  0
   -1.0914    4.3795    4.9203 C   0  0  0  0  0  0  0  0  0  0  0  0
   -2.1562    3.3890    5.3644 C   0  0  2  0  0  0  0  0  0  0  0  0
   -2.3377    3.0219    6.8094 C   0  0  0  0  0  0  0  0  0  0  0  0
   -2.1115    1.7227    6.9979 C   0  0  0  0  0  0  0  0  0  0  0  0
   -1.7322    1.0802    5.8791 O   0  0  0  0  0  0  0  0  0  0  0  0
   -1.7836    2.0114    4.7817 C   0  0  2  0  0  0  0  0  0  0  0  0
   -0.3943    2.1659    4.1444 C   0  0  1  0  0  0  0  0  0  0  0  0
   -0.4232    2.1108    2.6246 C   0  0  0  0  0  0  0  0  0  0  0  0
    0.4620    1.5488    1.7654 C   0  0  0  0  0  0  0  0  0  0  0  0
    1.7421    0.8506    2.0101 C   0  0  0  0  0  0  0  0  0  0  0  0
    2.1793   -0.1968    1.2856 N   0  0  0  0  0  0  0  0  0  0  0  0
    3.3759   -0.6447    1.7905 C   0  0  0  0  0  0  0  0  0  0  0  0
    3.6880    0.1718    2.8625 C   0  0  0  0  0  0  0  0  0  0  0  0
    2.7034    1.0969    2.9561 N   0  0  0  0  0  0  0  0  0  0  0  0
    2.7373    2.1557    3.9098 C   0  0  0  0  0  0  0  0  0  0  0  0
    1.4034    4.0120    7.8270 H   0  0  0  0  0  0  0  0  0  0  0  0
   -0.2005    4.3567    7.3222 H   0  0  0  0  0  0  0  0  0  0  0  0
    1.1162    5.2500    6.5643 H   0  0  0  0  0  0  0  0  0  0  0  0
    0.8113    4.0155    3.9919 H   0  0  0  0  0  0  0  0  0  0  0  0
   -0.9269    5.2748    5.5489 H   0  0  0  0  0  0  0  0  0  0  0  0
   -1.3232    4.8231    3.9547 H   0  0  0  0  0  0  0  0  0  0  0  0
   -3.1100    3.7327    4.9651 H   0  0  0  0  0  0  0  0  0  0  0  0
   -2.7089    3.7024    7.5771 H   0  0  0  0  0  0  0  0  0  0  0  0
   -2.2336    1.1034    7.8892 H   0  0  0  0  0  0  0  0  0  0  0  0
   -2.5188    1.6803    4.0634 H   0  0  0  0  0  0  0  0  0  0  0  0
    0.1218    1.2587    4.4571 H   0  0  0  0  0  0  0  0  0  0  0  0
   -1.2942    2.6057    2.1858 H   0  0  0  0  0  0  0  0  0  0  0  0
    0.2019    1.6319    0.7195 H   0  0  0  0  0  0  0  0  0  0  0  0
    3.9275   -1.4738    1.3790 H   0  0  0  0  0  0  0  0  0  0  0  0
    4.5143    0.2022    3.5373 H   0  0  0  0  0  0  0  0  0  0  0  0
    3.5412    2.0708    4.6477 H   0  0  0  0  0  0  0  0  0  0  0  0
    1.9459    1.9177    4.5865 H   0  0  0  0  0  0  0  0  0  0  0  0
    2.6826    3.1405    3.4452 H   0  0  0  0  0  0  0  0  0  0  0  0
    1.6706   -0.6108    0.4953 H   0  0  0  0  0  0  0  0  0  0  0  0
  1  2  1  0
  1 19  1  0
  1 20  1  0
  1 21  1  0
  2  3  1  0
  3 10  1  0
  3  4  1  0
  3 22  1  6
  4  5  1  0
  4 23  1  0
  4 24  1  0
  5  9  1  0
  5  6  1  0
  5 25  1  6
  6  7  2  0
  6 26  1  0
  7  8  1  0
  7 27  1  0
  8  9  1  0
  9 10  1  0
  9 28  1  6
 10 11  1  0
 10 29  1  1
 11 12  2  3
 11 30  1  0
 12 13  1  0
 12 31  1  0
 13 17  1  0
 13 14  2  0
 14 15  1  0
 14 37  1  0
 15 16  2  0
 15 32  1  0
 16 17  1  0
 16 33  1  0
 17 18  1  0
 18 34  1  0
 18 35  1  0
 18 36  1  0
M  CHG  1  14   1
M  END
>  <i_m_ct_stereo_status>  (433) 
1

>  <s_m_source_file>  (433) 
/var/tmp/pbs.5076255.sched01/tmpk5ywl0l3/150lwq6_0yz.sdf

>  <i_m_source_file_index>  (433) 
24

>  <i_lp_mmshare_version>  (433) 
48012

>  <i_f3d_flags>  (433) 
0

>  <s_epik_input>  (433) 
W0NIXTE9W0NIXU9bQ0BASF0oW0NAQEhdMTIpW0NASF0oW0NAQEhdKFtDSDJdMilPW0NIM10pL1tDSF09W0NIXS9jM25bY0hdW2NIXW4zW0NIM10=

>  <s_epik_cmdline>  (433) 
J2VwaWtfcHl0aG9uJywgJy1waHQnLCAnMi4wJywgJy1waCcsICc3LjAnLCAnLXRuJywgJzgnLCAnLW1hJywgJzIwMCcsICctaW1hZScsICc8aW5maWxlLm1hZT4nLCAnLW9tYWUnLCAnPG91dGZpbGUubWFlPic=

>  <r_epik_Ionization_Penalty>  (433) 
0.0388996

>  <r_epik_Ionization_Penalty_Charging>  (433) 
0

>  <r_epik_Ionization_Penalty_Neutral>  (433) 
0.0388996

>  <r_epik_State_Penalty>  (433) 
0.0326499

>  <r_epik_Charging_Adjusted_Penalty>  (433) 
0.0326499

>  <i_epik_Tot_Q>  (433) 
1

>  <i_epik_Tot_abs_Q>  (433) 
1

>  <s_lp_Force_Field>  (433) 
OPLS3e

>  <r_lp_Energy>  (433) 
14.4822

>  <b_lp_Chiralities_Consistent>  (433) 
1

>  <s_lp_Variant>  (433) 
104:0-2

>  <s_i_glide_gridfile>  (433) 
pfpi4k_grid

>  <i_i_glide_lignum>  (433) 
24

>  <i_i_glide_rotatable_bonds>  (433) 
3

>  <r_i_docking_score>  (433) 
-2.58778

>  <r_i_glide_ligand_efficiency>  (433) 
-0.143765

>  <r_i_glide_ligand_efficiency_sa>  (433) 
-0.376772

>  <r_i_glide_ligand_efficiency_ln>  (433) 
-0.665174

>  <r_i_glide_gscore>  (433) 
-2.58778

>  <r_i_glide_lipo>  (433) 
-0.119587

>  <r_i_glide_hbond>  (433) 
-0.2

>  <r_i_glide_metal>  (433) 
-0

>  <r_i_glide_rewards>  (433) 
-1.72287

>  <r_i_glide_evdw>  (433) 
-15.3185

>  <r_i_glide_ecoul>  (433) 
-5.55526

>  <r_i_glide_erotb>  (433) 
0.570464

>  <r_i_glide_esite>  (433) 
-0.121559

>  <r_i_glide_emodel>  (433) 
-9.66802

>  <r_i_glide_energy>  (433) 
-20.8737

>  <r_i_glide_einternal>  (433) 
21.1958

>  <r_i_glide_intrahb_reward>  (433) 
-0

>  <i_i_glide_confnum>  (433) 
1

>  <i_i_glide_posenum>  (433) 
33

>  <r_i_glide_eff_state_penalty>  (433) 
0

>  <ligand_id>  (433) 
104

>  <original_smiles>  (433) 
COC1CC2C=COC2C1C=Cc1nccn1C

>  <smiles>  (433) 
[H]C1=C([H])C2([H])C([H])([H])C([H])(OC([H])([H])[H])C([H])(C([H])=C([H])c3n(C([H])([H])[H])c([H])c([H])[n+]3[H])C2([H])O1

$$$$
104:1:1
     RDKit          3D

 37 39  0  0  1  0  0  0  0  0999 V2000
    0.0293    5.6074    3.2795 C   0  0  0  0  0  0  0  0  0  0  0  0
   -1.1906    5.0088    3.7018 O   0  0  0  0  0  0  0  0  0  0  0  0
   -1.6001    3.9348    2.8721 C   0  0  2  0  0  0  0  0  0  0  0  0
   -3.0607    3.7273    3.0310 C   0  0  0  0  0  0  0  0  0  0  0  0
   -3.1343    2.7359    4.1740 C   0  0  2  0  0  0  0  0  0  0  0  0
   -3.1892    3.2597    5.5519 C   0  0  0  0  0  0  0  0  0  0  0  0
   -2.1411    2.9203    6.2835 C   0  0  0  0  0  0  0  0  0  0  0  0
   -1.2514    2.1644    5.5828 O   0  0  0  0  0  0  0  0  0  0  0  0
   -1.8124    1.9509    4.2667 C   0  0  2  0  0  0  0  0  0  0  0  0
   -0.9003    2.6023    3.2304 C   0  0  1  0  0  0  0  0  0  0  0  0
   -0.7057    1.6343    2.0670 C   0  0  0  0  0  0  0  0  0  0  0  0
    0.3501    0.8704    1.7558 C   0  0  0  0  0  0  0  0  0  0  0  0
    1.6514    0.7811    2.4690 C   0  0  0  0  0  0  0  0  0  0  0  0
    2.2314    1.7547    3.1557 N   0  0  0  0  0  0  0  0  0  0  0  0
    3.3916    1.2810    3.7148 C   0  0  0  0  0  0  0  0  0  0  0  0
    3.4927   -0.0428    3.3448 C   0  0  0  0  0  0  0  0  0  0  0  0
    2.3944   -0.3254    2.5745 N   0  0  0  0  0  0  0  0  0  0  0  0
    2.0668   -1.6241    1.9827 C   0  0  0  0  0  0  0  0  0  0  0  0
    0.2777    6.3936    3.9831 H   0  0  0  0  0  0  0  0  0  0  0  0
   -0.0292    6.0861    2.2992 H   0  0  0  0  0  0  0  0  0  0  0  0
    0.8541    4.8949    3.2708 H   0  0  0  0  0  0  0  0  0  0  0  0
   -1.6424    4.2455    1.8549 H   0  0  0  0  0  0  0  0  0  0  0  0
   -3.5914    4.6641    2.9879 H   0  0  0  0  0  0  0  0  0  0  0  0
   -3.4581    3.1906    2.1679 H   0  0  0  0  0  0  0  0  0  0  0  0
   -3.9877    2.1275    3.8864 H   0  0  0  0  0  0  0  0  0  0  0  0
   -4.0840    3.6536    5.9234 H   0  0  0  0  0  0  0  0  0  0  0  0
   -2.0072    2.9972    7.3531 H   0  0  0  0  0  0  0  0  0  0  0  0
   -1.9876    0.8885    4.0963 H   0  0  0  0  0  0  0  0  0  0  0  0
    0.0612    2.8329    3.6634 H   0  0  0  0  0  0  0  0  0  0  0  0
   -1.5520    1.5241    1.4058 H   0  0  0  0  0  0  0  0  0  0  0  0
    0.2662    0.2547    0.8839 H   0  0  0  0  0  0  0  0  0  0  0  0
    4.0559    1.8950    4.3091 H   0  0  0  0  0  0  0  0  0  0  0  0
    4.2500   -0.7782    3.5783 H   0  0  0  0  0  0  0  0  0  0  0  0
    2.9041   -2.2986    2.1542 H   0  0  0  0  0  0  0  0  0  0  0  0
    1.9271   -1.5210    0.9100 H   0  0  0  0  0  0  0  0  0  0  0  0
    1.1732   -2.0279    2.4563 H   0  0  0  0  0  0  0  0  0  0  0  0
    1.8815    2.7052    3.2213 H   0  0  0  0  0  0  0  0  0  0  0  0
  1  2  1  0
  1 19  1  0
  1 20  1  0
  1 21  1  0
  2  3  1  0
  3 10  1  0
  3  4  1  0
  3 22  1  6
  4  5  1  0
  4 23  1  0
  4 24  1  0
  5  9  1  0
  5  6  1  0
  5 25  1  6
  6  7  2  0
  6 26  1  0
  7  8  1  0
  7 27  1  0
  8  9  1  0
  9 10  1  0
  9 28  1  6
 10 11  1  0
 10 29  1  1
 11 12  2  3
 11 30  1  0
 12 13  1  0
 12 31  1  0
 13 17  1  0
 13 14  2  0
 14 15  1  0
 14 37  1  0
 15 16  2  0
 15 32  1  0
 16 17  1  0
 16 33  1  0
 17 18  1  0
 18 34  1  0
 18 35  1  0
 18 36  1  0
M  CHG  1  14   1
M  END
>  <i_m_ct_stereo_status>  (434) 
1

>  <s_m_source_file>  (434) 
/var/tmp/pbs.5076255.sched01/tmpk5ywl0l3/150lwq6_0yz.sdf

>  <i_m_source_file_index>  (434) 
24

>  <i_lp_mmshare_version>  (434) 
48012

>  <i_f3d_flags>  (434) 
0

>  <s_epik_input>  (434) 
W0NIXTE9W0NIXU9bQ0BASF0oW0NAQEhdMTIpW0NASF0oW0NAQEhdKFtDSDJdMilPW0NIM10pL1tDSF09W0NIXS9jM25bY0hdW2NIXW4zW0NIM10=

>  <s_epik_cmdline>  (434) 
J2VwaWtfcHl0aG9uJywgJy1waHQnLCAnMi4wJywgJy1waCcsICc3LjAnLCAnLXRuJywgJzgnLCAnLW1hJywgJzIwMCcsICctaW1hZScsICc8aW5maWxlLm1hZT4nLCAnLW9tYWUnLCAnPG91dGZpbGUubWFlPic=

>  <r_epik_Ionization_Penalty>  (434) 
0.0388996

>  <r_epik_Ionization_Penalty_Charging>  (434) 
0

>  <r_epik_Ionization_Penalty_Neutral>  (434) 
0.0388996

>  <r_epik_State_Penalty>  (434) 
0.0326499

>  <r_epik_Charging_Adjusted_Penalty>  (434) 
0.0326499

>  <i_epik_Tot_Q>  (434) 
1

>  <i_epik_Tot_abs_Q>  (434) 
1

>  <s_lp_Force_Field>  (434) 
OPLS3e

>  <r_lp_Energy>  (434) 
14.4822

>  <b_lp_Chiralities_Consistent>  (434) 
1

>  <s_lp_Variant>  (434) 
104:0-2

>  <s_i_glide_gridfile>  (434) 
pfpi4k_grid

>  <i_i_glide_lignum>  (434) 
24

>  <i_i_glide_rotatable_bonds>  (434) 
3

>  <r_i_docking_score>  (434) 
-2.53739

>  <r_i_glide_ligand_efficiency>  (434) 
-0.140966

>  <r_i_glide_ligand_efficiency_sa>  (434) 
-0.369435

>  <r_i_glide_ligand_efficiency_ln>  (434) 
-0.652222

>  <r_i_glide_gscore>  (434) 
-2.53739

>  <r_i_glide_lipo>  (434) 
-0.0934239

>  <r_i_glide_hbond>  (434) 
-0.148343

>  <r_i_glide_metal>  (434) 
-0

>  <r_i_glide_rewards>  (434) 
-1.72287

>  <r_i_glide_evdw>  (434) 
0.901334

>  <r_i_glide_ecoul>  (434) 
-7.63034

>  <r_i_glide_erotb>  (434) 
0.570464

>  <r_i_glide_esite>  (434) 
-0.0437344

>  <r_i_glide_emodel>  (434) 
-8.05501

>  <r_i_glide_energy>  (434) 
-6.729

>  <r_i_glide_einternal>  (434) 
2.4047

>  <r_i_glide_intrahb_reward>  (434) 
-0

>  <i_i_glide_confnum>  (434) 
1

>  <i_i_glide_posenum>  (434) 
10

>  <r_i_glide_eff_state_penalty>  (434) 
0

>  <ligand_id>  (434) 
104

>  <original_smiles>  (434) 
COC1CC2C=COC2C1C=Cc1nccn1C

>  <smiles>  (434) 
[H]C1=C([H])C2([H])C([H])([H])C([H])(OC([H])([H])[H])C([H])(C([H])=C([H])c3n(C([H])([H])[H])c([H])c([H])[n+]3[H])C2([H])O1

$$$$
104:2:0
     RDKit          3D

 36 38  0  0  1  0  0  0  0  0999 V2000
    7.9931   -2.6995    0.0869 C   0  0  0  0  0  0  0  0  0  0  0  0
    7.0285   -1.7489   -0.3531 O   0  0  0  0  0  0  0  0  0  0  0  0
    5.7402   -2.3101   -0.6424 C   0  0  2  0  0  0  0  0  0  0  0  0
    5.7143   -3.1942   -1.9058 C   0  0  0  0  0  0  0  0  0  0  0  0
    4.2594   -3.1354   -2.3768 C   0  0  2  0  0  0  0  0  0  0  0  0
    4.0604   -2.7973   -3.8134 C   0  0  0  0  0  0  0  0  0  0  0  0
    3.3411   -1.6864   -3.9133 C   0  0  0  0  0  0  0  0  0  0  0  0
    3.0706   -1.1055   -2.7146 O   0  0  0  0  0  0  0  0  0  0  0  0
    3.5883   -1.9432   -1.6959 C   0  0  2  0  0  0  0  0  0  0  0  0
    4.6970   -1.2125   -0.9288 C   0  0  1  0  0  0  0  0  0  0  0  0
    4.2083   -0.4808    0.3084 C   0  0  0  0  0  0  0  0  0  0  0  0
    3.3027   -0.9843    1.1727 C   0  0  0  0  0  0  0  0  0  0  0  0
    2.7584   -0.2805    2.3144 C   0  0  0  0  0  0  0  0  0  0  0  0
    2.9652    1.0031    2.5942 N   0  0  0  0  0  0  0  0  0  0  0  0
    2.2632    1.2305    3.7736 C   0  0  0  0  0  0  0  0  0  0  0  0
    1.6668    0.0567    4.1751 C   0  0  0  0  0  0  0  0  0  0  0  0
    1.9920   -0.9068    3.2253 N   0  0  0  0  0  0  0  0  0  0  0  0
    1.5860   -2.2916    3.2526 C   0  0  0  0  0  0  0  0  0  0  0  0
    8.9292   -2.1866    0.2938 H   0  0  0  0  0  0  0  0  0  0  0  0
    8.1912   -3.4551   -0.6735 H   0  0  0  0  0  0  0  0  0  0  0  0
    7.6725   -3.1992    1.0021 H   0  0  0  0  0  0  0  0  0  0  0  0
    5.3818   -2.8875    0.2089 H   0  0  0  0  0  0  0  0  0  0  0  0
    6.4008   -2.8245   -2.6710 H   0  0  0  0  0  0  0  0  0  0  0  0
    6.0210   -4.2115   -1.6628 H   0  0  0  0  0  0  0  0  0  0  0  0
    3.7230   -4.0516   -2.1399 H   0  0  0  0  0  0  0  0  0  0  0  0
    4.3187   -3.4636   -4.6274 H   0  0  0  0  0  0  0  0  0  0  0  0
    2.8909   -1.2391   -4.7887 H   0  0  0  0  0  0  0  0  0  0  0  0
    2.7713   -2.3214   -1.0867 H   0  0  0  0  0  0  0  0  0  0  0  0
    5.1721   -0.4780   -1.5900 H   0  0  0  0  0  0  0  0  0  0  0  0
    4.6104    0.5032    0.4793 H   0  0  0  0  0  0  0  0  0  0  0  0
    2.9439   -1.9869    0.9932 H   0  0  0  0  0  0  0  0  0  0  0  0
    2.2500    2.2033    4.2460 H   0  0  0  0  0  0  0  0  0  0  0  0
    1.0584   -0.1646    5.0509 H   0  0  0  0  0  0  0  0  0  0  0  0
    0.9598   -2.4860    4.1246 H   0  0  0  0  0  0  0  0  0  0  0  0
    2.4664   -2.9351    3.2929 H   0  0  0  0  0  0  0  0  0  0  0  0
    1.0194   -2.5301    2.3535 H   0  0  0  0  0  0  0  0  0  0  0  0
  1  2  1  0
  1 19  1  0
  1 20  1  0
  1 21  1  0
  2  3  1  0
  3 10  1  0
  3  4  1  0
  3 22  1  1
  4  5  1  0
  4 23  1  0
  4 24  1  0
  5  9  1  0
  5  6  1  0
  5 25  1  1
  6  7  2  0
  6 26  1  0
  7  8  1  0
  7 27  1  0
  8  9  1  0
  9 10  1  0
  9 28  1  1
 10 11  1  0
 10 29  1  6
 11 12  2  3
 11 30  1  0
 12 13  1  0
 12 31  1  0
 13 17  1  0
 13 14  2  0
 14 15  1  0
 15 16  2  0
 15 32  1  0
 16 17  1  0
 16 33  1  0
 17 18  1  0
 18 34  1  0
 18 35  1  0
 18 36  1  0
M  END
>  <i_m_ct_stereo_status>  (435) 
1

>  <s_m_source_file>  (435) 
/var/tmp/pbs.5076255.sched01/tmpk5ywl0l3/150lwq6_0yz.sdf

>  <i_m_source_file_index>  (435) 
25

>  <i_lp_mmshare_version>  (435) 
48012

>  <i_f3d_flags>  (435) 
0

>  <s_epik_input>  (435) 
W0NIXTE9W0NIXU9bQ0BASF0oW0NAQEhdMTIpW0NASF0oW0NAQEhdKFtDSDJdMilPW0NIM10pL1tDSF09W0NIXS9jM25bY0hdW2NIXW4zW0NIM10=

>  <s_epik_cmdline>  (435) 
J2VwaWtfcHl0aG9uJywgJy1waHQnLCAnMi4wJywgJy1waCcsICc3LjAnLCAnLXRuJywgJzgnLCAnLW1hJywgJzIwMCcsICctaW1hZScsICc8aW5maWxlLm1hZT4nLCAnLW9tYWUnLCAnPG91dGZpbGUubWFlPic=

>  <r_epik_Ionization_Penalty>  (435) 
1.63288

>  <r_epik_Ionization_Penalty_Charging>  (435) 
1.63288

>  <r_epik_Ionization_Penalty_Neutral>  (435) 
2.04652e-12

>  <r_epik_State_Penalty>  (435) 
1.73356

>  <r_epik_Charging_Adjusted_Penalty>  (435) 
3.36645

>  <i_epik_Tot_Q>  (435) 
0

>  <i_epik_Tot_abs_Q>  (435) 
0

>  <s_lp_Force_Field>  (435) 
OPLS3e

>  <r_lp_Energy>  (435) 
8.33801

>  <b_lp_Chiralities_Consistent>  (435) 
1

>  <s_lp_Variant>  (435) 
104:0-3

>  <s_i_glide_gridfile>  (435) 
pfpi4k_grid

>  <i_i_glide_lignum>  (435) 
25

>  <i_i_glide_rotatable_bonds>  (435) 
3

>  <r_i_docking_score>  (435) 
-3.22455

>  <r_i_glide_ligand_efficiency>  (435) 
-0.179142

>  <r_i_glide_ligand_efficiency_sa>  (435) 
-0.469484

>  <r_i_glide_ligand_efficiency_ln>  (435) 
-0.828854

>  <r_i_glide_gscore>  (435) 
-3.22455

>  <r_i_glide_lipo>  (435) 
-0.63618

>  <r_i_glide_hbond>  (435) 
-0.145154

>  <r_i_glide_metal>  (435) 
-0

>  <r_i_glide_rewards>  (435) 
-1.72974

>  <r_i_glide_evdw>  (435) 
-20.3402

>  <r_i_glide_ecoul>  (435) 
-1.67473

>  <r_i_glide_erotb>  (435) 
0.574466

>  <r_i_glide_esite>  (435) 
-0.019725

>  <r_i_glide_emodel>  (435) 
-24.8287

>  <r_i_glide_energy>  (435) 
-22.0149

>  <r_i_glide_einternal>  (435) 
3.56312

>  <r_i_glide_intrahb_reward>  (435) 
-0

>  <i_i_glide_confnum>  (435) 
3

>  <i_i_glide_posenum>  (435) 
18

>  <r_i_glide_eff_state_penalty>  (435) 
0

>  <ligand_id>  (435) 
104

>  <original_smiles>  (435) 
COC1CC2C=COC2C1C=Cc1nccn1C

>  <smiles>  (435) 
[H]C1=C([H])C2([H])C([H])([H])C([H])(OC([H])([H])[H])C([H])(C([H])=C([H])c3nc([H])c([H])n3C([H])([H])[H])C2([H])O1

$$$$
104:2:1
     RDKit          3D

 36 38  0  0  1  0  0  0  0  0999 V2000
    5.8183   -7.6687    1.4396 C   0  0  0  0  0  0  0  0  0  0  0  0
    4.9750   -6.6207    1.9077 O   0  0  0  0  0  0  0  0  0  0  0  0
    4.3646   -5.8520    0.8668 C   0  0  2  0  0  0  0  0  0  0  0  0
    5.3336   -4.9241    0.1242 C   0  0  0  0  0  0  0  0  0  0  0  0
    4.4333   -3.8004   -0.4022 C   0  0  2  0  0  0  0  0  0  0  0  0
    4.8958   -2.4173   -0.1203 C   0  0  0  0  0  0  0  0  0  0  0  0
    3.9671   -1.7868    0.5856 C   0  0  0  0  0  0  0  0  0  0  0  0
    2.9004   -2.5672    0.9355 O   0  0  0  0  0  0  0  0  0  0  0  0
    3.0986   -3.8590    0.3712 C   0  0  2  0  0  0  0  0  0  0  0  0
    3.3069   -4.9094    1.4603 C   0  0  1  0  0  0  0  0  0  0  0  0
    2.0050   -5.5741    1.8887 C   0  0  0  0  0  0  0  0  0  0  0  0
    1.7810   -6.9037    1.9514 C   0  0  0  0  0  0  0  0  0  0  0  0
    0.5202   -7.5238    2.3229 C   0  0  0  0  0  0  0  0  0  0  0  0
   -0.6452   -6.8787    2.4847 N   0  0  0  0  0  0  0  0  0  0  0  0
   -1.5361   -7.8702    2.8466 C   0  0  0  0  0  0  0  0  0  0  0  0
   -0.8958   -9.0867    2.8874 C   0  0  0  0  0  0  0  0  0  0  0  0
    0.4333   -8.8395    2.5505 N   0  0  0  0  0  0  0  0  0  0  0  0
    1.4854   -9.8427    2.4750 C   0  0  0  0  0  0  0  0  0  0  0  0
    6.2218   -8.2162    2.2897 H   0  0  0  0  0  0  0  0  0  0  0  0
    6.6603   -7.2712    0.8773 H   0  0  0  0  0  0  0  0  0  0  0  0
    5.2750   -8.3833    0.8153 H   0  0  0  0  0  0  0  0  0  0  0  0
    3.8876   -6.4964    0.1245 H   0  0  0  0  0  0  0  0  0  0  0  0
    6.0952   -4.5338    0.7972 H   0  0  0  0  0  0  0  0  0  0  0  0
    5.8406   -5.4646   -0.6727 H   0  0  0  0  0  0  0  0  0  0  0  0
    4.2548   -3.8937   -1.4694 H   0  0  0  0  0  0  0  0  0  0  0  0
    5.7905   -1.9755   -0.5268 H   0  0  0  0  0  0  0  0  0  0  0  0
    3.9450   -0.7443    0.8832 H   0  0  0  0  0  0  0  0  0  0  0  0
    2.2776   -4.1147   -0.2970 H   0  0  0  0  0  0  0  0  0  0  0  0
    3.7315   -4.4354    2.3495 H   0  0  0  0  0  0  0  0  0  0  0  0
    1.2255   -4.8965    2.1726 H   0  0  0  0  0  0  0  0  0  0  0  0
    2.5884   -7.5739    1.7069 H   0  0  0  0  0  0  0  0  0  0  0  0
   -2.5771   -7.6551    3.0594 H   0  0  0  0  0  0  0  0  0  0  0  0
   -1.2647  -10.0778    3.1406 H   0  0  0  0  0  0  0  0  0  0  0  0
    1.0832  -10.8318    2.6987 H   0  0  0  0  0  0  0  0  0  0  0  0
    2.2651   -9.6065    3.1937 H   0  0  0  0  0  0  0  0  0  0  0  0
    1.9184   -9.8550    1.4772 H   0  0  0  0  0  0  0  0  0  0  0  0
  1  2  1  0
  1 19  1  0
  1 20  1  0
  1 21  1  0
  2  3  1  0
  3 10  1  0
  3  4  1  0
  3 22  1  6
  4  5  1  0
  4 23  1  0
  4 24  1  0
  5  9  1  0
  5  6  1  0
  5 25  1  6
  6  7  2  0
  6 26  1  0
  7  8  1  0
  7 27  1  0
  8  9  1  0
  9 10  1  0
  9 28  1  6
 10 11  1  0
 10 29  1  1
 11 12  2  3
 11 30  1  0
 12 13  1  0
 12 31  1  0
 13 17  1  0
 13 14  2  0
 14 15  1  0
 15 16  2  0
 15 32  1  0
 16 17  1  0
 16 33  1  0
 17 18  1  0
 18 34  1  0
 18 35  1  0
 18 36  1  0
M  END
>  <i_m_ct_stereo_status>  (436) 
1

>  <s_m_source_file>  (436) 
/var/tmp/pbs.5076255.sched01/tmpk5ywl0l3/150lwq6_0yz.sdf

>  <i_m_source_file_index>  (436) 
25

>  <i_lp_mmshare_version>  (436) 
48012

>  <i_f3d_flags>  (436) 
0

>  <s_epik_input>  (436) 
W0NIXTE9W0NIXU9bQ0BASF0oW0NAQEhdMTIpW0NASF0oW0NAQEhdKFtDSDJdMilPW0NIM10pL1tDSF09W0NIXS9jM25bY0hdW2NIXW4zW0NIM10=

>  <s_epik_cmdline>  (436) 
J2VwaWtfcHl0aG9uJywgJy1waHQnLCAnMi4wJywgJy1waCcsICc3LjAnLCAnLXRuJywgJzgnLCAnLW1hJywgJzIwMCcsICctaW1hZScsICc8aW5maWxlLm1hZT4nLCAnLW9tYWUnLCAnPG91dGZpbGUubWFlPic=

>  <r_epik_Ionization_Penalty>  (436) 
1.63288

>  <r_epik_Ionization_Penalty_Charging>  (436) 
1.63288

>  <r_epik_Ionization_Penalty_Neutral>  (436) 
2.04652e-12

>  <r_epik_State_Penalty>  (436) 
1.73356

>  <r_epik_Charging_Adjusted_Penalty>  (436) 
3.36645

>  <i_epik_Tot_Q>  (436) 
0

>  <i_epik_Tot_abs_Q>  (436) 
0

>  <s_lp_Force_Field>  (436) 
OPLS3e

>  <r_lp_Energy>  (436) 
8.33801

>  <b_lp_Chiralities_Consistent>  (436) 
1

>  <s_lp_Variant>  (436) 
104:0-3

>  <s_i_glide_gridfile>  (436) 
pfpi4k_grid

>  <i_i_glide_lignum>  (436) 
25

>  <i_i_glide_rotatable_bonds>  (436) 
3

>  <r_i_docking_score>  (436) 
-3.14406

>  <r_i_glide_ligand_efficiency>  (436) 
-0.17467

>  <r_i_glide_ligand_efficiency_sa>  (436) 
-0.457766

>  <r_i_glide_ligand_efficiency_ln>  (436) 
-0.808165

>  <r_i_glide_gscore>  (436) 
-3.14406

>  <r_i_glide_lipo>  (436) 
-0.37093

>  <r_i_glide_hbond>  (436) 
-0.16

>  <r_i_glide_metal>  (436) 
-0

>  <r_i_glide_rewards>  (436) 
-1.72974

>  <r_i_glide_evdw>  (436) 
-18.5419

>  <r_i_glide_ecoul>  (436) 
-3.03254

>  <r_i_glide_erotb>  (436) 
0.574466

>  <r_i_glide_esite>  (436) 
-0.0758848

>  <r_i_glide_emodel>  (436) 
-25.3653

>  <r_i_glide_energy>  (436) 
-21.5744

>  <r_i_glide_einternal>  (436) 
1.69907

>  <r_i_glide_intrahb_reward>  (436) 
-0

>  <i_i_glide_confnum>  (436) 
3

>  <i_i_glide_posenum>  (436) 
1

>  <r_i_glide_eff_state_penalty>  (436) 
0

>  <ligand_id>  (436) 
104

>  <original_smiles>  (436) 
COC1CC2C=COC2C1C=Cc1nccn1C

>  <smiles>  (436) 
[H]C1=C([H])C2([H])C([H])([H])C([H])(OC([H])([H])[H])C([H])(C([H])=C([H])c3nc([H])c([H])n3C([H])([H])[H])C2([H])O1

$$$$
104:2:2
     RDKit          3D

 36 38  0  0  1  0  0  0  0  0999 V2000
    2.5026   -7.1432    7.6745 C   0  0  0  0  0  0  0  0  0  0  0  0
    2.0354   -6.5597    6.4646 O   0  0  0  0  0  0  0  0  0  0  0  0
    0.7145   -6.9551    6.0977 C   0  0  2  0  0  0  0  0  0  0  0  0
    0.5979   -8.4200    5.6283 C   0  0  0  0  0  0  0  0  0  0  0  0
   -0.6508   -8.4286    4.7201 C   0  0  2  0  0  0  0  0  0  0  0  0
   -0.4562   -9.0427    3.3703 C   0  0  0  0  0  0  0  0  0  0  0  0
   -0.7232   -8.1547    2.4188 C   0  0  0  0  0  0  0  0  0  0  0  0
   -0.9938   -6.9058    2.9070 O   0  0  0  0  0  0  0  0  0  0  0  0
   -0.9512   -6.9698    4.3414 C   0  0  2  0  0  0  0  0  0  0  0  0
    0.2245   -6.1473    4.8879 C   0  0  1  0  0  0  0  0  0  0  0  0
   -0.1721   -4.7171    5.2104 C   0  0  0  0  0  0  0  0  0  0  0  0
    0.3006   -3.6424    4.5246 C   0  0  0  0  0  0  0  0  0  0  0  0
   -0.0962   -2.2599    4.7810 C   0  0  0  0  0  0  0  0  0  0  0  0
   -1.0017   -1.8717    5.6880 N   0  0  0  0  0  0  0  0  0  0  0  0
   -1.0502   -0.4753    5.5727 C   0  0  0  0  0  0  0  0  0  0  0  0
   -0.1751   -0.0770    4.5894 C   0  0  0  0  0  0  0  0  0  0  0  0
    0.4218   -1.2321    4.0897 N   0  0  0  0  0  0  0  0  0  0  0  0
    1.4058   -1.2697    3.0255 C   0  0  0  0  0  0  0  0  0  0  0  0
    3.5159   -6.7934    7.8713 H   0  0  0  0  0  0  0  0  0  0  0  0
    2.5375   -8.2312    7.6077 H   0  0  0  0  0  0  0  0  0  0  0  0
    1.8803   -6.8632    8.5268 H   0  0  0  0  0  0  0  0  0  0  0  0
    0.0192   -6.7827    6.9217 H   0  0  0  0  0  0  0  0  0  0  0  0
    1.5005   -8.7376    5.1002 H   0  0  0  0  0  0  0  0  0  0  0  0
    0.4879   -9.0979    6.4761 H   0  0  0  0  0  0  0  0  0  0  0  0
   -1.5043   -8.9019    5.2059 H   0  0  0  0  0  0  0  0  0  0  0  0
   -0.3087  -10.0978    3.1950 H   0  0  0  0  0  0  0  0  0  0  0  0
   -0.8254   -8.3138    1.3504 H   0  0  0  0  0  0  0  0  0  0  0  0
   -1.8992   -6.6639    4.7808 H   0  0  0  0  0  0  0  0  0  0  0  0
    1.0410   -6.1393    4.1659 H   0  0  0  0  0  0  0  0  0  0  0  0
   -0.8613   -4.5753    6.0192 H   0  0  0  0  0  0  0  0  0  0  0  0
    1.0005   -3.8346    3.7302 H   0  0  0  0  0  0  0  0  0  0  0  0
   -1.6937    0.1342    6.1973 H   0  0  0  0  0  0  0  0  0  0  0  0
    0.0630    0.9116    4.2194 H   0  0  0  0  0  0  0  0  0  0  0  0
    1.6382   -0.2564    2.6929 H   0  0  0  0  0  0  0  0  0  0  0  0
    1.0204   -1.8344    2.1768 H   0  0  0  0  0  0  0  0  0  0  0  0
    2.3214   -1.7411    3.3807 H   0  0  0  0  0  0  0  0  0  0  0  0
  1  2  1  0
  1 19  1  0
  1 20  1  0
  1 21  1  0
  2  3  1  0
  3 10  1  0
  3  4  1  0
  3 22  1  1
  4  5  1  0
  4 23  1  0
  4 24  1  0
  5  9  1  0
  5  6  1  0
  5 25  1  1
  6  7  2  0
  6 26  1  0
  7  8  1  0
  7 27  1  0
  8  9  1  0
  9 10  1  0
  9 28  1  1
 10 11  1  0
 10 29  1  6
 11 12  2  3
 11 30  1  0
 12 13  1  0
 12 31  1  0
 13 17  1  0
 13 14  2  0
 14 15  1  0
 15 16  2  0
 15 32  1  0
 16 17  1  0
 16 33  1  0
 17 18  1  0
 18 34  1  0
 18 35  1  0
 18 36  1  0
M  END
>  <i_m_ct_stereo_status>  (437) 
1

>  <s_m_source_file>  (437) 
/var/tmp/pbs.5076255.sched01/tmpk5ywl0l3/150lwq6_0yz.sdf

>  <i_m_source_file_index>  (437) 
25

>  <i_lp_mmshare_version>  (437) 
48012

>  <i_f3d_flags>  (437) 
0

>  <s_epik_input>  (437) 
W0NIXTE9W0NIXU9bQ0BASF0oW0NAQEhdMTIpW0NASF0oW0NAQEhdKFtDSDJdMilPW0NIM10pL1tDSF09W0NIXS9jM25bY0hdW2NIXW4zW0NIM10=

>  <s_epik_cmdline>  (437) 
J2VwaWtfcHl0aG9uJywgJy1waHQnLCAnMi4wJywgJy1waCcsICc3LjAnLCAnLXRuJywgJzgnLCAnLW1hJywgJzIwMCcsICctaW1hZScsICc8aW5maWxlLm1hZT4nLCAnLW9tYWUnLCAnPG91dGZpbGUubWFlPic=

>  <r_epik_Ionization_Penalty>  (437) 
1.63288

>  <r_epik_Ionization_Penalty_Charging>  (437) 
1.63288

>  <r_epik_Ionization_Penalty_Neutral>  (437) 
2.04652e-12

>  <r_epik_State_Penalty>  (437) 
1.73356

>  <r_epik_Charging_Adjusted_Penalty>  (437) 
3.36645

>  <i_epik_Tot_Q>  (437) 
0

>  <i_epik_Tot_abs_Q>  (437) 
0

>  <s_lp_Force_Field>  (437) 
OPLS3e

>  <r_lp_Energy>  (437) 
8.33801

>  <b_lp_Chiralities_Consistent>  (437) 
1

>  <s_lp_Variant>  (437) 
104:0-3

>  <s_i_glide_gridfile>  (437) 
pfpi4k_grid

>  <i_i_glide_lignum>  (437) 
25

>  <i_i_glide_rotatable_bonds>  (437) 
3

>  <r_i_docking_score>  (437) 
-2.72606

>  <r_i_glide_ligand_efficiency>  (437) 
-0.151448

>  <r_i_glide_ligand_efficiency_sa>  (437) 
-0.396905

>  <r_i_glide_ligand_efficiency_ln>  (437) 
-0.700719

>  <r_i_glide_gscore>  (437) 
-2.72606

>  <r_i_glide_lipo>  (437) 
-0.00811246

>  <r_i_glide_hbond>  (437) 
-0.16

>  <r_i_glide_metal>  (437) 
-0

>  <r_i_glide_rewards>  (437) 
-1.74328

>  <r_i_glide_evdw>  (437) 
-15.6298

>  <r_i_glide_ecoul>  (437) 
-3.99538

>  <r_i_glide_erotb>  (437) 
0.574466

>  <r_i_glide_esite>  (437) 
-0.00833221

>  <r_i_glide_emodel>  (437) 
-23.559

>  <r_i_glide_energy>  (437) 
-19.6252

>  <r_i_glide_einternal>  (437) 
0.159805

>  <r_i_glide_intrahb_reward>  (437) 
-0

>  <i_i_glide_confnum>  (437) 
1

>  <i_i_glide_posenum>  (437) 
3

>  <r_i_glide_eff_state_penalty>  (437) 
0

>  <ligand_id>  (437) 
104

>  <original_smiles>  (437) 
COC1CC2C=COC2C1C=Cc1nccn1C

>  <smiles>  (437) 
[H]C1=C([H])C2([H])C([H])([H])C([H])(OC([H])([H])[H])C([H])(C([H])=C([H])c3nc([H])c([H])n3C([H])([H])[H])C2([H])O1

$$$$
104:3:0
     RDKit          3D

 36 38  0  0  1  0  0  0  0  0999 V2000
    1.7831   -6.6673    2.2624 C   0  0  0  0  0  0  0  0  0  0  0  0
    2.0421   -5.4692    1.5315 O   0  0  0  0  0  0  0  0  0  0  0  0
    3.3810   -5.3901    1.0376 C   0  0  2  0  0  0  0  0  0  0  0  0
    4.3555   -4.9252    2.1354 C   0  0  0  0  0  0  0  0  0  0  0  0
    4.3827   -3.3913    2.0635 C   0  0  2  0  0  0  0  0  0  0  0  0
    3.4133   -2.7104    2.9741 C   0  0  0  0  0  0  0  0  0  0  0  0
    2.4987   -2.0599    2.2630 C   0  0  0  0  0  0  0  0  0  0  0  0
    2.6286   -2.2446    0.9203 O   0  0  0  0  0  0  0  0  0  0  0  0
    3.8178   -3.0020    0.6847 C   0  0  2  0  0  0  0  0  0  0  0  0
    3.4907   -4.3048   -0.0657 C   0  0  1  0  0  0  0  0  0  0  0  0
    4.5700   -4.6231   -1.0948 C   0  0  0  0  0  0  0  0  0  0  0  0
    4.9516   -3.8565   -2.1421 C   0  0  0  0  0  0  0  0  0  0  0  0
    4.3926   -2.5646   -2.5174 C   0  0  0  0  0  0  0  0  0  0  0  0
    5.0154   -1.4171   -2.2987 N   0  0  0  0  0  0  0  0  0  0  0  0
    4.2086   -0.4553   -2.8978 C   0  0  0  0  0  0  0  0  0  0  0  0
    3.1423   -1.0725   -3.5117 C   0  0  0  0  0  0  0  0  0  0  0  0
    3.2774   -2.4247   -3.2676 N   0  0  0  0  0  0  0  0  0  0  0  0
    2.3844   -3.4599   -3.7264 C   0  0  0  0  0  0  0  0  0  0  0  0
    0.7992   -6.5980    2.7228 H   0  0  0  0  0  0  0  0  0  0  0  0
    2.4991   -6.8570    3.0646 H   0  0  0  0  0  0  0  0  0  0  0  0
    1.7868   -7.5329    1.5984 H   0  0  0  0  0  0  0  0  0  0  0  0
    3.6609   -6.3685    0.6380 H   0  0  0  0  0  0  0  0  0  0  0  0
    4.1703   -5.3437    3.1271 H   0  0  0  0  0  0  0  0  0  0  0  0
    5.3409   -5.2767    1.8396 H   0  0  0  0  0  0  0  0  0  0  0  0
    5.3833   -2.9875    2.2319 H   0  0  0  0  0  0  0  0  0  0  0  0
    3.5367   -2.6332    4.0441 H   0  0  0  0  0  0  0  0  0  0  0  0
    1.7347   -1.3673    2.5924 H   0  0  0  0  0  0  0  0  0  0  0  0
    4.5301   -2.3683    0.1665 H   0  0  0  0  0  0  0  0  0  0  0  0
    2.5438   -4.2426   -0.6060 H   0  0  0  0  0  0  0  0  0  0  0  0
    5.0723   -5.5743   -0.9688 H   0  0  0  0  0  0  0  0  0  0  0  0
    5.7416   -4.2150   -2.7745 H   0  0  0  0  0  0  0  0  0  0  0  0
    4.4449    0.5965   -2.8565 H   0  0  0  0  0  0  0  0  0  0  0  0
    2.3225   -0.6545   -4.0843 H   0  0  0  0  0  0  0  0  0  0  0  0
    1.6258   -3.0356   -4.3842 H   0  0  0  0  0  0  0  0  0  0  0  0
    1.8870   -3.9105   -2.8706 H   0  0  0  0  0  0  0  0  0  0  0  0
    2.9496   -4.2175   -4.2639 H   0  0  0  0  0  0  0  0  0  0  0  0
  1  2  1  0
  1 19  1  0
  1 20  1  0
  1 21  1  0
  2  3  1  0
  3 10  1  0
  3  4  1  0
  3 22  1  6
  4  5  1  0
  4 23  1  0
  4 24  1  0
  5  9  1  0
  5  6  1  0
  5 25  1  6
  6  7  2  0
  6 26  1  0
  7  8  1  0
  7 27  1  0
  8  9  1  0
  9 10  1  0
  9 28  1  6
 10 11  1  0
 10 29  1  6
 11 12  2  3
 11 30  1  0
 12 13  1  0
 12 31  1  0
 13 17  1  0
 13 14  2  0
 14 15  1  0
 15 16  2  0
 15 32  1  0
 16 17  1  0
 16 33  1  0
 17 18  1  0
 18 34  1  0
 18 35  1  0
 18 36  1  0
M  END
>  <i_m_ct_stereo_status>  (438) 
1

>  <s_m_source_file>  (438) 
/var/tmp/pbs.5076255.sched01/tmpk5ywl0l3/150lwq6_0yz.sdf

>  <i_m_source_file_index>  (438) 
26

>  <i_lp_mmshare_version>  (438) 
48012

>  <i_f3d_flags>  (438) 
0

>  <s_epik_input>  (438) 
W0NIXTE9W0NIXU9bQ0BASF0oW0NAQEhdMTIpW0NASF0oW0NAQEhdKFtDSDJdMilPW0NIM10pL1tDSF09W0NIXS9jM25bY0hdW2NIXW4zW0NIM10=

>  <s_epik_cmdline>  (438) 
J2VwaWtfcHl0aG9uJywgJy1waHQnLCAnMi4wJywgJy1waCcsICc3LjAnLCAnLXRuJywgJzgnLCAnLW1hJywgJzIwMCcsICctaW1hZScsICc8aW5maWxlLm1hZT4nLCAnLW9tYWUnLCAnPG91dGZpbGUubWFlPic=

>  <r_epik_Ionization_Penalty>  (438) 
1.63288

>  <r_epik_Ionization_Penalty_Charging>  (438) 
1.63288

>  <r_epik_Ionization_Penalty_Neutral>  (438) 
2.04652e-12

>  <r_epik_State_Penalty>  (438) 
1.73356

>  <r_epik_Charging_Adjusted_Penalty>  (438) 
3.36645

>  <i_epik_Tot_Q>  (438) 
0

>  <i_epik_Tot_abs_Q>  (438) 
0

>  <s_lp_Force_Field>  (438) 
OPLS3e

>  <r_lp_Energy>  (438) 
11.1984

>  <b_lp_Chiralities_Consistent>  (438) 
1

>  <s_lp_Variant>  (438) 
104:0-4

>  <s_i_glide_gridfile>  (438) 
pfpi4k_grid

>  <i_i_glide_lignum>  (438) 
26

>  <i_i_glide_rotatable_bonds>  (438) 
3

>  <r_i_docking_score>  (438) 
-3.28024

>  <r_i_glide_ligand_efficiency>  (438) 
-0.182236

>  <r_i_glide_ligand_efficiency_sa>  (438) 
-0.477592

>  <r_i_glide_ligand_efficiency_ln>  (438) 
-0.843169

>  <r_i_glide_gscore>  (438) 
-3.28024

>  <r_i_glide_lipo>  (438) 
-0.557476

>  <r_i_glide_hbond>  (438) 
-0.00763808

>  <r_i_glide_metal>  (438) 
-0

>  <r_i_glide_rewards>  (438) 
-2.01222

>  <r_i_glide_evdw>  (438) 
-21.011

>  <r_i_glide_ecoul>  (438) 
-1.51215

>  <r_i_glide_erotb>  (438) 
0.574466

>  <r_i_glide_esite>  (438) 
0

>  <r_i_glide_emodel>  (438) 
-22.2709

>  <r_i_glide_energy>  (438) 
-22.5232

>  <r_i_glide_einternal>  (438) 
9.66309

>  <r_i_glide_intrahb_reward>  (438) 
-0

>  <i_i_glide_confnum>  (438) 
6

>  <i_i_glide_posenum>  (438) 
1

>  <r_i_glide_eff_state_penalty>  (438) 
0

>  <ligand_id>  (438) 
104

>  <original_smiles>  (438) 
COC1CC2C=COC2C1C=Cc1nccn1C

>  <smiles>  (438) 
[H]C1=C([H])C2([H])C([H])([H])C([H])(OC([H])([H])[H])C([H])(C([H])=C([H])c3nc([H])c([H])n3C([H])([H])[H])C2([H])O1

$$$$
104:3:1
     RDKit          3D

 36 38  0  0  1  0  0  0  0  0999 V2000
    7.2206   -1.3749    0.8690 C   0  0  0  0  0  0  0  0  0  0  0  0
    6.0367   -1.1974    0.1077 O   0  0  0  0  0  0  0  0  0  0  0  0
    4.9839   -2.0696    0.5140 C   0  0  2  0  0  0  0  0  0  0  0  0
    5.0796   -3.3918   -0.2648 C   0  0  0  0  0  0  0  0  0  0  0  0
    4.2705   -3.1877   -1.5539 C   0  0  2  0  0  0  0  0  0  0  0  0
    5.0585   -2.7311   -2.7380 C   0  0  0  0  0  0  0  0  0  0  0  0
    4.6538   -1.5259   -3.1136 C   0  0  0  0  0  0  0  0  0  0  0  0
    3.7160   -0.9886   -2.2892 O   0  0  0  0  0  0  0  0  0  0  0  0
    3.3601   -1.9686   -1.3135 C   0  0  2  0  0  0  0  0  0  0  0  0
    3.6238   -1.4592    0.1199 C   0  0  1  0  0  0  0  0  0  0  0  0
    2.4991   -1.9166    1.0442 C   0  0  0  0  0  0  0  0  0  0  0  0
    1.7325   -1.1867    1.8967 C   0  0  0  0  0  0  0  0  0  0  0  0
    1.8436    0.2274    2.2347 C   0  0  0  0  0  0  0  0  0  0  0  0
    2.9853    0.9051    2.3197 N   0  0  0  0  0  0  0  0  0  0  0  0
    2.6154    2.1906    2.7009 C   0  0  0  0  0  0  0  0  0  0  0  0
    1.2437    2.2616    2.7884 C   0  0  0  0  0  0  0  0  0  0  0  0
    0.7646    0.9964    2.4870 N   0  0  0  0  0  0  0  0  0  0  0  0
   -0.6266    0.6217    2.4496 C   0  0  0  0  0  0  0  0  0  0  0  0
    8.0131   -0.7491    0.4617 H   0  0  0  0  0  0  0  0  0  0  0  0
    7.5806   -2.4075    0.8670 H   0  0  0  0  0  0  0  0  0  0  0  0
    7.0402   -1.0568    1.8964 H   0  0  0  0  0  0  0  0  0  0  0  0
    5.0202   -2.2322    1.5934 H   0  0  0  0  0  0  0  0  0  0  0  0
    6.1000   -3.7708   -0.3992 H   0  0  0  0  0  0  0  0  0  0  0  0
    4.5525   -4.1401    0.3218 H   0  0  0  0  0  0  0  0  0  0  0  0
    3.7082   -4.0833   -1.8294 H   0  0  0  0  0  0  0  0  0  0  0  0
    5.7437   -3.3611   -3.2881 H   0  0  0  0  0  0  0  0  0  0  0  0
    4.9166   -0.9568   -3.9937 H   0  0  0  0  0  0  0  0  0  0  0  0
    2.3225   -2.2517   -1.4889 H   0  0  0  0  0  0  0  0  0  0  0  0
    3.6831   -0.3719    0.1493 H   0  0  0  0  0  0  0  0  0  0  0  0
    2.2776   -2.9688    0.9775 H   0  0  0  0  0  0  0  0  0  0  0  0
    0.9496   -1.7262    2.4118 H   0  0  0  0  0  0  0  0  0  0  0  0
    3.3402    2.9772    2.8590 H   0  0  0  0  0  0  0  0  0  0  0  0
    0.5950    3.1052    3.0033 H   0  0  0  0  0  0  0  0  0  0  0  0
   -1.2551    1.5077    2.5499 H   0  0  0  0  0  0  0  0  0  0  0  0
   -0.8453   -0.0727    3.2616 H   0  0  0  0  0  0  0  0  0  0  0  0
   -0.8394    0.1539    1.4910 H   0  0  0  0  0  0  0  0  0  0  0  0
  1  2  1  0
  1 19  1  0
  1 20  1  0
  1 21  1  0
  2  3  1  0
  3 10  1  0
  3  4  1  0
  3 22  1  1
  4  5  1  0
  4 23  1  0
  4 24  1  0
  5  9  1  0
  5  6  1  0
  5 25  1  6
  6  7  2  0
  6 26  1  0
  7  8  1  0
  7 27  1  0
  8  9  1  0
  9 10  1  0
  9 28  1  1
 10 11  1  0
 10 29  1  6
 11 12  2  3
 11 30  1  0
 12 13  1  0
 12 31  1  0
 13 17  1  0
 13 14  2  0
 14 15  1  0
 15 16  2  0
 15 32  1  0
 16 17  1  0
 16 33  1  0
 17 18  1  0
 18 34  1  0
 18 35  1  0
 18 36  1  0
M  END
>  <i_m_ct_stereo_status>  (439) 
1

>  <s_m_source_file>  (439) 
/var/tmp/pbs.5076255.sched01/tmpk5ywl0l3/150lwq6_0yz.sdf

>  <i_m_source_file_index>  (439) 
26

>  <i_lp_mmshare_version>  (439) 
48012

>  <i_f3d_flags>  (439) 
0

>  <s_epik_input>  (439) 
W0NIXTE9W0NIXU9bQ0BASF0oW0NAQEhdMTIpW0NASF0oW0NAQEhdKFtDSDJdMilPW0NIM10pL1tDSF09W0NIXS9jM25bY0hdW2NIXW4zW0NIM10=

>  <s_epik_cmdline>  (439) 
J2VwaWtfcHl0aG9uJywgJy1waHQnLCAnMi4wJywgJy1waCcsICc3LjAnLCAnLXRuJywgJzgnLCAnLW1hJywgJzIwMCcsICctaW1hZScsICc8aW5maWxlLm1hZT4nLCAnLW9tYWUnLCAnPG91dGZpbGUubWFlPic=

>  <r_epik_Ionization_Penalty>  (439) 
1.63288

>  <r_epik_Ionization_Penalty_Charging>  (439) 
1.63288

>  <r_epik_Ionization_Penalty_Neutral>  (439) 
2.04652e-12

>  <r_epik_State_Penalty>  (439) 
1.73356

>  <r_epik_Charging_Adjusted_Penalty>  (439) 
3.36645

>  <i_epik_Tot_Q>  (439) 
0

>  <i_epik_Tot_abs_Q>  (439) 
0

>  <s_lp_Force_Field>  (439) 
OPLS3e

>  <r_lp_Energy>  (439) 
11.1984

>  <b_lp_Chiralities_Consistent>  (439) 
1

>  <s_lp_Variant>  (439) 
104:0-4

>  <s_i_glide_gridfile>  (439) 
pfpi4k_grid

>  <i_i_glide_lignum>  (439) 
26

>  <i_i_glide_rotatable_bonds>  (439) 
3

>  <r_i_docking_score>  (439) 
-2.69971

>  <r_i_glide_ligand_efficiency>  (439) 
-0.149984

>  <r_i_glide_ligand_efficiency_sa>  (439) 
-0.393069

>  <r_i_glide_ligand_efficiency_ln>  (439) 
-0.693946

>  <r_i_glide_gscore>  (439) 
-2.69971

>  <r_i_glide_lipo>  (439) 
-0.24567

>  <r_i_glide_hbond>  (439) 
0

>  <r_i_glide_metal>  (439) 
-0

>  <r_i_glide_rewards>  (439) 
-1.72974

>  <r_i_glide_evdw>  (439) 
-19.0277

>  <r_i_glide_ecoul>  (439) 
-1.79704

>  <r_i_glide_erotb>  (439) 
0.574466

>  <r_i_glide_esite>  (439) 
-0.0778243

>  <r_i_glide_emodel>  (439) 
-23.115

>  <r_i_glide_energy>  (439) 
-20.8247

>  <r_i_glide_einternal>  (439) 
2.92126

>  <r_i_glide_intrahb_reward>  (439) 
-0

>  <i_i_glide_confnum>  (439) 
1

>  <i_i_glide_posenum>  (439) 
27

>  <r_i_glide_eff_state_penalty>  (439) 
0

>  <ligand_id>  (439) 
104

>  <original_smiles>  (439) 
COC1CC2C=COC2C1C=Cc1nccn1C

>  <smiles>  (439) 
[H]C1=C([H])C2([H])C([H])([H])C([H])(OC([H])([H])[H])C([H])(C([H])=C([H])c3nc([H])c([H])n3C([H])([H])[H])C2([H])O1

$$$$
104:3:2
     RDKit          3D

 36 38  0  0  1  0  0  0  0  0999 V2000
    3.5922   -0.3973    0.9616 C   0  0  0  0  0  0  0  0  0  0  0  0
    3.4160   -1.5320    0.1223 O   0  0  0  0  0  0  0  0  0  0  0  0
    4.5687   -2.3600   -0.0002 C   0  0  2  0  0  0  0  0  0  0  0  0
    5.5686   -1.7570   -0.9999 C   0  0  0  0  0  0  0  0  0  0  0  0
    5.1717   -2.3008   -2.3808 C   0  0  2  0  0  0  0  0  0  0  0  0
    4.2508   -1.4275   -3.1719 C   0  0  0  0  0  0  0  0  0  0  0  0
    3.0955   -2.0499   -3.3605 C   0  0  0  0  0  0  0  0  0  0  0  0
    3.0262   -3.2618   -2.7412 O   0  0  0  0  0  0  0  0  0  0  0  0
    4.2910   -3.5394   -2.1387 C   0  0  2  0  0  0  0  0  0  0  0  0
    4.1597   -3.7145   -0.6207 C   0  0  1  0  0  0  0  0  0  0  0  0
    5.0587   -4.8582   -0.1577 C   0  0  0  0  0  0  0  0  0  0  0  0
    4.7460   -6.0165    0.4623 C   0  0  0  0  0  0  0  0  0  0  0  0
    3.4359   -6.5182    0.9118 C   0  0  0  0  0  0  0  0  0  0  0  0
    2.2878   -5.8329    0.8831 N   0  0  0  0  0  0  0  0  0  0  0  0
    1.3314   -6.7017    1.3810 C   0  0  0  0  0  0  0  0  0  0  0  0
    1.9166   -7.9028    1.6879 C   0  0  0  0  0  0  0  0  0  0  0  0
    3.2676   -7.7699    1.3716 N   0  0  0  0  0  0  0  0  0  0  0  0
    4.2611   -8.8222    1.5246 C   0  0  0  0  0  0  0  0  0  0  0  0
    2.7007    0.2260    0.8998 H   0  0  0  0  0  0  0  0  0  0  0  0
    4.4412    0.2235    0.6716 H   0  0  0  0  0  0  0  0  0  0  0  0
    3.7302   -0.7002    2.0006 H   0  0  0  0  0  0  0  0  0  0  0  0
    5.0110   -2.5053    0.9887 H   0  0  0  0  0  0  0  0  0  0  0  0
    5.6639   -0.6688   -0.9514 H   0  0  0  0  0  0  0  0  0  0  0  0
    6.5445   -2.1643   -0.7432 H   0  0  0  0  0  0  0  0  0  0  0  0
    6.0442   -2.5557   -2.9824 H   0  0  0  0  0  0  0  0  0  0  0  0
    4.5294   -0.4843   -3.6197 H   0  0  0  0  0  0  0  0  0  0  0  0
    2.2412   -1.7521   -3.9610 H   0  0  0  0  0  0  0  0  0  0  0  0
    4.7119   -4.4195   -2.6215 H   0  0  0  0  0  0  0  0  0  0  0  0
    3.1209   -3.9036   -0.3662 H   0  0  0  0  0  0  0  0  0  0  0  0
    6.1067   -4.6992   -0.3743 H   0  0  0  0  0  0  0  0  0  0  0  0
    5.5895   -6.6660    0.6584 H   0  0  0  0  0  0  0  0  0  0  0  0
    0.2934   -6.4066    1.4801 H   0  0  0  0  0  0  0  0  0  0  0  0
    1.4915   -8.8181    2.0834 H   0  0  0  0  0  0  0  0  0  0  0  0
    3.7763   -9.7600    1.8026 H   0  0  0  0  0  0  0  0  0  0  0  0
    4.9726   -8.5440    2.3024 H   0  0  0  0  0  0  0  0  0  0  0  0
    4.7950   -8.9768    0.5870 H   0  0  0  0  0  0  0  0  0  0  0  0
  1  2  1  0
  1 19  1  0
  1 20  1  0
  1 21  1  0
  2  3  1  0
  3 10  1  0
  3  4  1  0
  3 22  1  1
  4  5  1  0
  4 23  1  0
  4 24  1  0
  5  9  1  0
  5  6  1  0
  5 25  1  6
  6  7  2  0
  6 26  1  0
  7  8  1  0
  7 27  1  0
  8  9  1  0
  9 10  1  0
  9 28  1  6
 10 11  1  0
 10 29  1  6
 11 12  2  3
 11 30  1  0
 12 13  1  0
 12 31  1  0
 13 17  1  0
 13 14  2  0
 14 15  1  0
 15 16  2  0
 15 32  1  0
 16 17  1  0
 16 33  1  0
 17 18  1  0
 18 34  1  0
 18 35  1  0
 18 36  1  0
M  END
>  <i_m_ct_stereo_status>  (440) 
1

>  <s_m_source_file>  (440) 
/var/tmp/pbs.5076255.sched01/tmpk5ywl0l3/150lwq6_0yz.sdf

>  <i_m_source_file_index>  (440) 
26

>  <i_lp_mmshare_version>  (440) 
48012

>  <i_f3d_flags>  (440) 
0

>  <s_epik_input>  (440) 
W0NIXTE9W0NIXU9bQ0BASF0oW0NAQEhdMTIpW0NASF0oW0NAQEhdKFtDSDJdMilPW0NIM10pL1tDSF09W0NIXS9jM25bY0hdW2NIXW4zW0NIM10=

>  <s_epik_cmdline>  (440) 
J2VwaWtfcHl0aG9uJywgJy1waHQnLCAnMi4wJywgJy1waCcsICc3LjAnLCAnLXRuJywgJzgnLCAnLW1hJywgJzIwMCcsICctaW1hZScsICc8aW5maWxlLm1hZT4nLCAnLW9tYWUnLCAnPG91dGZpbGUubWFlPic=

>  <r_epik_Ionization_Penalty>  (440) 
1.63288

>  <r_epik_Ionization_Penalty_Charging>  (440) 
1.63288

>  <r_epik_Ionization_Penalty_Neutral>  (440) 
2.04652e-12

>  <r_epik_State_Penalty>  (440) 
1.73356

>  <r_epik_Charging_Adjusted_Penalty>  (440) 
3.36645

>  <i_epik_Tot_Q>  (440) 
0

>  <i_epik_Tot_abs_Q>  (440) 
0

>  <s_lp_Force_Field>  (440) 
OPLS3e

>  <r_lp_Energy>  (440) 
11.1984

>  <b_lp_Chiralities_Consistent>  (440) 
1

>  <s_lp_Variant>  (440) 
104:0-4

>  <s_i_glide_gridfile>  (440) 
pfpi4k_grid

>  <i_i_glide_lignum>  (440) 
26

>  <i_i_glide_rotatable_bonds>  (440) 
3

>  <r_i_docking_score>  (440) 
-2.42471

>  <r_i_glide_ligand_efficiency>  (440) 
-0.134706

>  <r_i_glide_ligand_efficiency_sa>  (440) 
-0.35303

>  <r_i_glide_ligand_efficiency_ln>  (440) 
-0.62326

>  <r_i_glide_gscore>  (440) 
-2.42471

>  <r_i_glide_lipo>  (440) 
-0.443713

>  <r_i_glide_hbond>  (440) 
0

>  <r_i_glide_metal>  (440) 
-0

>  <r_i_glide_rewards>  (440) 
-1.80959

>  <r_i_glide_evdw>  (440) 
-22.168

>  <r_i_glide_ecoul>  (440) 
2.41681

>  <r_i_glide_erotb>  (440) 
0.574466

>  <r_i_glide_esite>  (440) 
0

>  <r_i_glide_emodel>  (440) 
-23.0099

>  <r_i_glide_energy>  (440) 
-19.7512

>  <r_i_glide_einternal>  (440) 
0.34447

>  <r_i_glide_intrahb_reward>  (440) 
-0

>  <i_i_glide_confnum>  (440) 
4

>  <i_i_glide_posenum>  (440) 
26

>  <r_i_glide_eff_state_penalty>  (440) 
0

>  <ligand_id>  (440) 
104

>  <original_smiles>  (440) 
COC1CC2C=COC2C1C=Cc1nccn1C

>  <smiles>  (440) 
[H]C1=C([H])C2([H])C([H])([H])C([H])(OC([H])([H])[H])C([H])(C([H])=C([H])c3nc([H])c([H])n3C([H])([H])[H])C2([H])O1

$$$$
105:0:0
     RDKit          3D

 45 49  0  0  1  0  0  0  0  0999 V2000
    1.9186   -3.8568   -1.2215 C   0  0  0  0  0  0  0  0  0  0  0  0
    3.3140   -3.7723   -0.5136 C   0  0  2  0  0  0  0  0  0  0  0  0
    3.3817   -2.6443    0.6011 C   0  0  1  0  0  0  0  0  0  0  0  0
    4.2327   -2.8608    1.9745 C   0  0  1  0  0  0  0  0  0  0  0  0
    3.5092   -3.8148    2.7355 O   0  0  0  0  0  0  0  0  0  0  0  0
    5.7731   -3.3245    1.9935 C   0  0  0  0  0  0  0  0  0  0  0  0
    6.2609   -3.3382    0.5519 C   0  0  2  0  0  0  0  0  0  0  0  0
    7.2512   -4.0401   -0.2859 C   0  0  0  0  0  0  0  0  0  0  0  0
    6.3060   -3.5073   -1.4647 C   0  0  2  0  0  0  0  0  0  0  0  0
    6.6116   -2.1164   -1.3250 O   0  0  0  0  0  0  0  0  0  0  0  0
    6.6262   -1.8827    0.0801 C   0  0  2  0  0  0  0  0  0  0  0  0
    8.1171   -1.5447    0.3622 C   0  0  0  0  0  0  0  0  0  0  0  0
    5.8851   -0.6026    0.6501 C   0  0  0  0  0  0  0  0  0  0  0  0
    4.3794   -0.3066    0.5771 C   0  0  0  0  0  0  0  0  0  0  0  0
    3.6225   -1.3347   -0.1992 C   0  0  1  0  0  0  0  0  0  0  0  0
    4.2910   -1.4019   -1.4599 O   0  0  0  0  0  0  0  0  0  0  0  0
    4.2174   -2.5384   -2.2174 C   0  0  1  0  0  0  0  0  0  0  0  0
    4.9026   -2.4168   -3.4637 O   0  0  0  0  0  0  0  0  0  0  0  0
    4.6674   -3.8734   -1.4573 C   0  0  2  0  0  0  0  0  0  0  0  0
    5.2188   -4.3057   -0.0703 C   0  0  1  0  0  0  0  0  0  0  0  0
    5.3444   -5.7360   -0.1679 O   0  0  0  0  0  0  0  0  0  0  0  0
    1.5418   -2.8893   -1.5096 H   0  0  0  0  0  0  0  0  0  0  0  0
    1.2321   -4.3195   -0.5367 H   0  0  0  0  0  0  0  0  0  0  0  0
    1.8235   -4.4766   -2.0969 H   0  0  0  0  0  0  0  0  0  0  0  0
    3.0373   -4.7133   -0.0260 H   0  0  0  0  0  0  0  0  0  0  0  0
    2.3673   -2.5170    0.9795 H   0  0  0  0  0  0  0  0  0  0  0  0
    4.1885   -1.9564    2.5874 H   0  0  0  0  0  0  0  0  0  0  0  0
    2.6346   -3.5177    2.8143 H   0  0  0  0  0  0  0  0  0  0  0  0
    6.3687   -2.6220    2.5775 H   0  0  0  0  0  0  0  0  0  0  0  0
    5.9059   -4.3076    2.4454 H   0  0  0  0  0  0  0  0  0  0  0  0
    8.2706   -3.7057   -0.4365 H   0  0  0  0  0  0  0  0  0  0  0  0
    7.4525   -5.0939   -0.1207 H   0  0  0  0  0  0  0  0  0  0  0  0
    6.7278   -3.8392   -2.4263 H   0  0  0  0  0  0  0  0  0  0  0  0
    8.4847   -2.2474    1.1221 H   0  0  0  0  0  0  0  0  0  0  0  0
    8.3025   -0.5817    0.7904 H   0  0  0  0  0  0  0  0  0  0  0  0
    8.7674   -1.6384   -0.4832 H   0  0  0  0  0  0  0  0  0  0  0  0
    6.1619   -0.5084    1.6976 H   0  0  0  0  0  0  0  0  0  0  0  0
    6.3571    0.2386    0.1496 H   0  0  0  0  0  0  0  0  0  0  0  0
    3.9446   -0.1269    1.5493 H   0  0  0  0  0  0  0  0  0  0  0  0
    4.2125    0.6231    0.0599 H   0  0  0  0  0  0  0  0  0  0  0  0
    2.6396   -0.9122   -0.4098 H   0  0  0  0  0  0  0  0  0  0  0  0
    3.2140   -2.5453   -2.6337 H   0  0  0  0  0  0  0  0  0  0  0  0
    5.8248   -2.4690   -3.2569 H   0  0  0  0  0  0  0  0  0  0  0  0
    4.7090   -4.7972    0.7693 H   0  0  0  0  0  0  0  0  0  0  0  0
    4.7235   -6.0106   -0.8164 H   0  0  0  0  0  0  0  0  0  0  0  0
  1  2  1  0
  1 22  1  0
  1 23  1  0
  1 24  1  0
  2 19  1  0
  2  3  1  0
  2 25  1  1
  3 15  1  0
  3  4  1  0
  3 26  1  1
  4  5  1  0
  4  6  1  0
  4 27  1  1
  5 28  1  0
  7  6  1  1
  6 29  1  0
  6 30  1  0
  7 11  1  0
  7 20  1  0
  7  8  1  0
  8  9  1  0
  8 31  1  0
  8 32  1  0
  9 19  1  0
  9 10  1  0
  9 33  1  6
 10 11  1  0
 11 12  1  1
 11 13  1  0
 12 34  1  0
 12 35  1  0
 12 36  1  0
 13 14  1  0
 13 37  1  0
 13 38  1  0
 14 15  1  0
 14 39  1  0
 14 40  1  0
 15 16  1  0
 15 41  1  6
 16 17  1  0
 17 18  1  0
 19 17  1  6
 17 42  1  6
 18 43  1  0
 19 20  1  0
 20 21  1  0
 20 44  1  1
 21 45  1  0
M  END
>  <i_m_ct_stereo_status>  (441) 
1

>  <s_m_source_file>  (441) 
/var/tmp/pbs.5076255.sched01/tmpk5ywl0l3/150lwq6_0yz.sdf

>  <i_m_source_file_index>  (441) 
27

>  <i_lp_mmshare_version>  (441) 
48012

>  <i_f3d_flags>  (441) 
0

>  <s_epik_input>  (441) 
W09IXVtDQEBIXTFPW0NASF0oW0NIMl1bQ0gyXTIpW0NASF0oW0NAQEhdKFtPSF0pW0NIMl0zKVtDQEBIXShbQ0gzXSlDMShbQ0BIXTRbT0hdKVtDQEhdKFtDSDJdNSlPW0NAQF0yKFtDQEBdMzQ1KVtDSDNd

>  <s_epik_cmdline>  (441) 
J2VwaWtfcHl0aG9uJywgJy1waHQnLCAnMi4wJywgJy1waCcsICc3LjAnLCAnLXRuJywgJzgnLCAnLW1hJywgJzIwMCcsICctaW1hZScsICc8aW5maWxlLm1hZT4nLCAnLW9tYWUnLCAnPG91dGZpbGUubWFlPic=

>  <r_lp_tautomer_probability>  (441) 
1

>  <r_epik_Ionization_Penalty>  (441) 
4.01068e-07

>  <r_epik_Ionization_Penalty_Charging>  (441) 
0

>  <r_epik_Ionization_Penalty_Neutral>  (441) 
4.01068e-07

>  <r_epik_State_Penalty>  (441) 
-0

>  <r_epik_Charging_Adjusted_Penalty>  (441) 
0

>  <i_epik_Tot_Q>  (441) 
0

>  <i_epik_Tot_abs_Q>  (441) 
0

>  <s_epik_Chemistry_Notes>  (441) 
This compound contains an acetal/aminal-like group ( X-CH(R)-Y where X, Y are N, S, or O) that may be acid/base labile, releasing an aldehyde.

>  <s_lp_Force_Field>  (441) 
OPLS3e

>  <r_lp_Energy>  (441) 
316.458

>  <b_lp_Chiralities_Consistent>  (441) 
1

>  <s_lp_Variant>  (441) 
105:0-1

>  <s_i_glide_gridfile>  (441) 
pfpi4k_grid

>  <i_i_glide_lignum>  (441) 
27

>  <i_i_glide_rotatable_bonds>  (441) 
3

>  <r_i_docking_score>  (441) 
-3.53105

>  <r_i_glide_ligand_efficiency>  (441) 
-0.168145

>  <r_i_glide_ligand_efficiency_sa>  (441) 
-0.4639

>  <r_i_glide_ligand_efficiency_ln>  (441) 
-0.873044

>  <r_i_glide_gscore>  (441) 
-3.53105

>  <r_i_glide_lipo>  (441) 
-0.671888

>  <r_i_glide_hbond>  (441) 
-0.16

>  <r_i_glide_metal>  (441) 
-0

>  <r_i_glide_rewards>  (441) 
-1.41458

>  <r_i_glide_evdw>  (441) 
-6.94994

>  <r_i_glide_ecoul>  (441) 
-6.24725

>  <r_i_glide_erotb>  (441) 
0

>  <r_i_glide_esite>  (441) 
0

>  <r_i_glide_emodel>  (441) 
-16.4635

>  <r_i_glide_energy>  (441) 
-13.1972

>  <r_i_glide_einternal>  (441) 
1.07525

>  <r_i_glide_intrahb_reward>  (441) 
-0

>  <i_i_glide_confnum>  (441) 
2

>  <i_i_glide_posenum>  (441) 
36

>  <r_i_glide_eff_state_penalty>  (441) 
0

>  <ligand_id>  (441) 
105

>  <original_smiles>  (441) 
CC1C2C(O)CC34CC5OC3(C)CCC2OC(O)C51C4O

>  <smiles>  (441) 
[H]OC1([H])OC2([H])C([H])([H])C([H])([H])C3(C([H])([H])[H])OC4([H])C([H])([H])C35C([H])([H])C([H])(O[H])C2([H])C([H])(C([H])([H])[H])C14C5([H])O[H]

$$$$
105:0:1
     RDKit          3D

 45 49  0  0  1  0  0  0  0  0999 V2000
    4.4474   -4.1736    4.4291 C   0  0  0  0  0  0  0  0  0  0  0  0
    4.4249   -3.1218    3.2737 C   0  0  2  0  0  0  0  0  0  0  0  0
    3.1569   -3.2985    2.3566 C   0  0  1  0  0  0  0  0  0  0  0  0
    2.3979   -1.9966    1.7328 C   0  0  1  0  0  0  0  0  0  0  0  0
    1.7432   -1.3508    2.8063 O   0  0  0  0  0  0  0  0  0  0  0  0
    3.1433   -0.8530    0.8902 C   0  0  0  0  0  0  0  0  0  0  0  0
    4.5683   -1.3268    0.6632 C   0  0  2  0  0  0  0  0  0  0  0  0
    5.9206   -0.7573    0.4298 C   0  0  0  0  0  0  0  0  0  0  0  0
    6.3771   -2.1970    0.9360 C   0  0  2  0  0  0  0  0  0  0  0  0
    5.8930   -2.8960   -0.2355 O   0  0  0  0  0  0  0  0  0  0  0  0
    4.6041   -2.3740   -0.5223 C   0  0  2  0  0  0  0  0  0  0  0  0
    4.7252   -1.6656   -1.9247 C   0  0  0  0  0  0  0  0  0  0  0  0
    3.4377   -3.3894   -0.8477 C   0  0  0  0  0  0  0  0  0  0  0  0
    2.8773   -4.4591    0.0992 C   0  0  0  0  0  0  0  0  0  0  0  0
    3.5170   -4.5037    1.4480 C   0  0  1  0  0  0  0  0  0  0  0  0
    4.8717   -4.7201    1.0815 O   0  0  0  0  0  0  0  0  0  0  0  0
    5.8845   -4.3468    1.9422 C   0  0  1  0  0  0  0  0  0  0  0  0
    7.1599   -4.7027    1.4442 O   0  0  0  0  0  0  0  0  0  0  0  0
    5.8131   -2.8205    2.4136 C   0  0  2  0  0  0  0  0  0  0  0  0
    5.0384   -1.5224    2.1426 C   0  0  1  0  0  0  0  0  0  0  0  0
    5.7688   -0.5655    2.9527 O   0  0  0  0  0  0  0  0  0  0  0  0
    4.2677   -5.1956    4.0995 H   0  0  0  0  0  0  0  0  0  0  0  0
    3.6426   -3.9725    5.1386 H   0  0  0  0  0  0  0  0  0  0  0  0
    5.3804   -4.1428    4.9917 H   0  0  0  0  0  0  0  0  0  0  0  0
    4.2142   -2.3710    4.0467 H   0  0  0  0  0  0  0  0  0  0  0  0
    2.3825   -3.7054    3.0093 H   0  0  0  0  0  0  0  0  0  0  0  0
    1.5771   -2.3395    1.1135 H   0  0  0  0  0  0  0  0  0  0  0  0
    1.2648   -0.6186    2.4547 H   0  0  0  0  0  0  0  0  0  0  0  0
    2.6410   -0.6867   -0.0579 H   0  0  0  0  0  0  0  0  0  0  0  0
    3.1291    0.1169    1.3952 H   0  0  0  0  0  0  0  0  0  0  0  0
    6.2480   -0.5434   -0.5732 H   0  0  0  0  0  0  0  0  0  0  0  0
    6.2012    0.1752    0.9182 H   0  0  0  0  0  0  0  0  0  0  0  0
    7.4663   -2.2438    0.9162 H   0  0  0  0  0  0  0  0  0  0  0  0
    4.3953   -0.6255   -1.8805 H   0  0  0  0  0  0  0  0  0  0  0  0
    4.1424   -2.1163   -2.7305 H   0  0  0  0  0  0  0  0  0  0  0  0
    5.7507   -1.6790   -2.2973 H   0  0  0  0  0  0  0  0  0  0  0  0
    2.5784   -2.8111   -1.1963 H   0  0  0  0  0  0  0  0  0  0  0  0
    3.7543   -3.9599   -1.7235 H   0  0  0  0  0  0  0  0  0  0  0  0
    1.8109   -4.3393    0.2043 H   0  0  0  0  0  0  0  0  0  0  0  0
    3.0016   -5.4433   -0.3470 H   0  0  0  0  0  0  0  0  0  0  0  0
    3.1998   -5.4148    1.9585 H   0  0  0  0  0  0  0  0  0  0  0  0
    5.8370   -5.0540    2.7571 H   0  0  0  0  0  0  0  0  0  0  0  0
    7.2147   -5.6467    1.4283 H   0  0  0  0  0  0  0  0  0  0  0  0
    4.2951   -1.0204    2.7721 H   0  0  0  0  0  0  0  0  0  0  0  0
    6.6363   -0.4537    2.5914 H   0  0  0  0  0  0  0  0  0  0  0  0
  1  2  1  0
  1 22  1  0
  1 23  1  0
  1 24  1  0
  2 19  1  0
  2  3  1  0
  2 25  1  1
  3 15  1  0
  3  4  1  0
  3 26  1  1
  4  5  1  0
  4  6  1  0
  4 27  1  6
  5 28  1  0
  7  6  1  1
  6 29  1  0
  6 30  1  0
  7 11  1  0
  7 20  1  0
  7  8  1  0
  8  9  1  0
  8 31  1  0
  8 32  1  0
  9 19  1  0
  9 10  1  0
  9 33  1  1
 10 11  1  0
 11 12  1  6
 11 13  1  0
 12 34  1  0
 12 35  1  0
 12 36  1  0
 13 14  1  0
 13 37  1  0
 13 38  1  0
 14 15  1  0
 14 39  1  0
 14 40  1  0
 15 16  1  0
 15 41  1  1
 16 17  1  0
 17 18  1  0
 19 17  1  1
 17 42  1  1
 18 43  1  0
 19 20  1  0
 20 21  1  0
 20 44  1  1
 21 45  1  0
M  END
>  <i_m_ct_stereo_status>  (442) 
1

>  <s_m_source_file>  (442) 
/var/tmp/pbs.5076255.sched01/tmpk5ywl0l3/150lwq6_0yz.sdf

>  <i_m_source_file_index>  (442) 
27

>  <i_lp_mmshare_version>  (442) 
48012

>  <i_f3d_flags>  (442) 
0

>  <s_epik_input>  (442) 
W09IXVtDQEBIXTFPW0NASF0oW0NIMl1bQ0gyXTIpW0NASF0oW0NAQEhdKFtPSF0pW0NIMl0zKVtDQEBIXShbQ0gzXSlDMShbQ0BIXTRbT0hdKVtDQEhdKFtDSDJdNSlPW0NAQF0yKFtDQEBdMzQ1KVtDSDNd

>  <s_epik_cmdline>  (442) 
J2VwaWtfcHl0aG9uJywgJy1waHQnLCAnMi4wJywgJy1waCcsICc3LjAnLCAnLXRuJywgJzgnLCAnLW1hJywgJzIwMCcsICctaW1hZScsICc8aW5maWxlLm1hZT4nLCAnLW9tYWUnLCAnPG91dGZpbGUubWFlPic=

>  <r_lp_tautomer_probability>  (442) 
1

>  <r_epik_Ionization_Penalty>  (442) 
4.01068e-07

>  <r_epik_Ionization_Penalty_Charging>  (442) 
0

>  <r_epik_Ionization_Penalty_Neutral>  (442) 
4.01068e-07

>  <r_epik_State_Penalty>  (442) 
-0

>  <r_epik_Charging_Adjusted_Penalty>  (442) 
0

>  <i_epik_Tot_Q>  (442) 
0

>  <i_epik_Tot_abs_Q>  (442) 
0

>  <s_epik_Chemistry_Notes>  (442) 
This compound contains an acetal/aminal-like group ( X-CH(R)-Y where X, Y are N, S, or O) that may be acid/base labile, releasing an aldehyde.

>  <s_lp_Force_Field>  (442) 
OPLS3e

>  <r_lp_Energy>  (442) 
316.458

>  <b_lp_Chiralities_Consistent>  (442) 
1

>  <s_lp_Variant>  (442) 
105:0-1

>  <s_i_glide_gridfile>  (442) 
pfpi4k_grid

>  <i_i_glide_lignum>  (442) 
27

>  <i_i_glide_rotatable_bonds>  (442) 
3

>  <r_i_docking_score>  (442) 
-3.2282

>  <r_i_glide_ligand_efficiency>  (442) 
-0.153724

>  <r_i_glide_ligand_efficiency_sa>  (442) 
-0.424112

>  <r_i_glide_ligand_efficiency_ln>  (442) 
-0.798166

>  <r_i_glide_gscore>  (442) 
-3.2282

>  <r_i_glide_lipo>  (442) 
-0.407413

>  <r_i_glide_hbond>  (442) 
-0.0688583

>  <r_i_glide_metal>  (442) 
-0

>  <r_i_glide_rewards>  (442) 
-1.44705

>  <r_i_glide_evdw>  (442) 
-18.7698

>  <r_i_glide_ecoul>  (442) 
-2.44258

>  <r_i_glide_erotb>  (442) 
0

>  <r_i_glide_esite>  (442) 
0

>  <r_i_glide_emodel>  (442) 
-24.6651

>  <r_i_glide_energy>  (442) 
-21.2124

>  <r_i_glide_einternal>  (442) 
0.896411

>  <r_i_glide_intrahb_reward>  (442) 
-0

>  <i_i_glide_confnum>  (442) 
1

>  <i_i_glide_posenum>  (442) 
25

>  <r_i_glide_eff_state_penalty>  (442) 
0

>  <ligand_id>  (442) 
105

>  <original_smiles>  (442) 
CC1C2C(O)CC34CC5OC3(C)CCC2OC(O)C51C4O

>  <smiles>  (442) 
[H]OC1([H])OC2([H])C([H])([H])C([H])([H])C3(C([H])([H])[H])OC4([H])C([H])([H])C35C([H])([H])C([H])(O[H])C2([H])C([H])(C([H])([H])[H])C14C5([H])O[H]

$$$$
105:0:2
     RDKit          3D

 45 49  0  0  1  0  0  0  0  0999 V2000
    4.4145   -4.4055    4.2313 C   0  0  0  0  0  0  0  0  0  0  0  0
    4.4123   -3.2671    3.1600 C   0  0  2  0  0  0  0  0  0  0  0  0
    3.1464   -3.3825    2.2171 C   0  0  1  0  0  0  0  0  0  0  0  0
    2.3784   -2.0450    1.6842 C   0  0  1  0  0  0  0  0  0  0  0  0
    1.7016   -1.4994    2.7941 O   0  0  0  0  0  0  0  0  0  0  0  0
    3.1260   -0.8374    0.9472 C   0  0  0  0  0  0  0  0  0  0  0  0
    4.5549   -1.2844    0.7032 C   0  0  2  0  0  0  0  0  0  0  0  0
    5.8969   -0.6858    0.5418 C   0  0  0  0  0  0  0  0  0  0  0  0
    6.3872   -2.1470    0.9404 C   0  0  2  0  0  0  0  0  0  0  0  0
    5.9219   -2.7603   -0.2898 O   0  0  0  0  0  0  0  0  0  0  0  0
    4.6284   -2.2300   -0.5554 C   0  0  2  0  0  0  0  0  0  0  0  0
    4.7660   -1.4123   -1.8939 C   0  0  0  0  0  0  0  0  0  0  0  0
    3.4723   -3.2170   -0.9829 C   0  0  0  0  0  0  0  0  0  0  0  0
    2.8951   -4.3465   -0.1246 C   0  0  0  0  0  0  0  0  0  0  0  0
    3.5270   -4.5055    1.2211 C   0  0  1  0  0  0  0  0  0  0  0  0
    4.8848   -4.6734    0.8646 O   0  0  0  0  0  0  0  0  0  0  0  0
    5.8950   -4.3715    1.7719 C   0  0  1  0  0  0  0  0  0  0  0  0
    7.1787   -4.6772    1.2733 O   0  0  0  0  0  0  0  0  0  0  0  0
    5.8113   -2.8785    2.3587 C   0  0  2  0  0  0  0  0  0  0  0  0
    5.0036   -1.5940    2.1808 C   0  0  1  0  0  0  0  0  0  0  0  0
    5.7082   -0.6795    3.0625 O   0  0  0  0  0  0  0  0  0  0  0  0
    4.2454   -5.4014    3.8210 H   0  0  0  0  0  0  0  0  0  0  0  0
    3.5898   -4.2660    4.9368 H   0  0  0  0  0  0  0  0  0  0  0  0
    5.3332   -4.4141    4.8190 H   0  0  0  0  0  0  0  0  0  0  0  0
    4.1666   -2.5952    3.9909 H   0  0  0  0  0  0  0  0  0  0  0  0
    2.3635   -3.8485    2.8224 H   0  0  0  0  0  0  0  0  0  0  0  0
    1.5775   -2.3459    1.0178 H   0  0  0  0  0  0  0  0  0  0  0  0
    1.1747   -0.7722    2.4816 H   0  0  0  0  0  0  0  0  0  0  0  0
    2.6383   -0.6154    0.0030 H   0  0  0  0  0  0  0  0  0  0  0  0
    3.0962    0.0915    1.5189 H   0  0  0  0  0  0  0  0  0  0  0  0
    6.2454   -0.3763   -0.4262 H   0  0  0  0  0  0  0  0  0  0  0  0
    6.1055    0.2139    1.1015 H   0  0  0  0  0  0  0  0  0  0  0  0
    7.4739   -2.1726    0.9316 H   0  0  0  0  0  0  0  0  0  0  0  0
    4.4264   -0.3807   -1.7761 H   0  0  0  0  0  0  0  0  0  0  0  0
    4.2026   -1.8034   -2.7420 H   0  0  0  0  0  0  0  0  0  0  0  0
    5.7974   -1.3859   -2.2453 H   0  0  0  0  0  0  0  0  0  0  0  0
    2.6171   -2.6181   -1.3082 H   0  0  0  0  0  0  0  0  0  0  0  0
    3.8095   -3.7271   -1.8884 H   0  0  0  0  0  0  0  0  0  0  0  0
    1.8136   -4.2628   -0.0447 H   0  0  0  0  0  0  0  0  0  0  0  0
    3.0558   -5.2774   -0.6558 H   0  0  0  0  0  0  0  0  0  0  0  0
    3.2108   -5.4588    1.6497 H   0  0  0  0  0  0  0  0  0  0  0  0
    5.8444   -5.1436    2.5284 H   0  0  0  0  0  0  0  0  0  0  0  0
    7.2349   -5.6289    1.1633 H   0  0  0  0  0  0  0  0  0  0  0  0
    4.2468   -1.1491    2.8287 H   0  0  0  0  0  0  0  0  0  0  0  0
    5.6651   -1.0171    3.9479 H   0  0  0  0  0  0  0  0  0  0  0  0
  1  2  1  0
  1 22  1  0
  1 23  1  0
  1 24  1  0
  2 19  1  0
  2  3  1  0
  2 25  1  1
  3 15  1  0
  3  4  1  0
  3 26  1  1
  4  5  1  0
  4  6  1  0
  4 27  1  6
  5 28  1  0
  7  6  1  1
  6 29  1  0
  6 30  1  0
  7 11  1  0
  7 20  1  0
  7  8  1  0
  8  9  1  0
  8 31  1  0
  8 32  1  0
  9 19  1  0
  9 10  1  0
  9 33  1  1
 10 11  1  0
 11 12  1  6
 11 13  1  0
 12 34  1  0
 12 35  1  0
 12 36  1  0
 13 14  1  0
 13 37  1  0
 13 38  1  0
 14 15  1  0
 14 39  1  0
 14 40  1  0
 15 16  1  0
 15 41  1  1
 16 17  1  0
 17 18  1  0
 19 17  1  1
 17 42  1  1
 18 43  1  0
 19 20  1  0
 20 21  1  0
 20 44  1  1
 21 45  1  0
M  END
>  <i_m_ct_stereo_status>  (443) 
1

>  <s_m_source_file>  (443) 
/var/tmp/pbs.5076255.sched01/tmpk5ywl0l3/150lwq6_0yz.sdf

>  <i_m_source_file_index>  (443) 
27

>  <i_lp_mmshare_version>  (443) 
48012

>  <i_f3d_flags>  (443) 
0

>  <s_epik_input>  (443) 
W09IXVtDQEBIXTFPW0NASF0oW0NIMl1bQ0gyXTIpW0NASF0oW0NAQEhdKFtPSF0pW0NIMl0zKVtDQEBIXShbQ0gzXSlDMShbQ0BIXTRbT0hdKVtDQEhdKFtDSDJdNSlPW0NAQF0yKFtDQEBdMzQ1KVtDSDNd

>  <s_epik_cmdline>  (443) 
J2VwaWtfcHl0aG9uJywgJy1waHQnLCAnMi4wJywgJy1waCcsICc3LjAnLCAnLXRuJywgJzgnLCAnLW1hJywgJzIwMCcsICctaW1hZScsICc8aW5maWxlLm1hZT4nLCAnLW9tYWUnLCAnPG91dGZpbGUubWFlPic=

>  <r_lp_tautomer_probability>  (443) 
1

>  <r_epik_Ionization_Penalty>  (443) 
4.01068e-07

>  <r_epik_Ionization_Penalty_Charging>  (443) 
0

>  <r_epik_Ionization_Penalty_Neutral>  (443) 
4.01068e-07

>  <r_epik_State_Penalty>  (443) 
-0

>  <r_epik_Charging_Adjusted_Penalty>  (443) 
0

>  <i_epik_Tot_Q>  (443) 
0

>  <i_epik_Tot_abs_Q>  (443) 
0

>  <s_epik_Chemistry_Notes>  (443) 
This compound contains an acetal/aminal-like group ( X-CH(R)-Y where X, Y are N, S, or O) that may be acid/base labile, releasing an aldehyde.

>  <s_lp_Force_Field>  (443) 
OPLS3e

>  <r_lp_Energy>  (443) 
316.458

>  <b_lp_Chiralities_Consistent>  (443) 
1

>  <s_lp_Variant>  (443) 
105:0-1

>  <s_i_glide_gridfile>  (443) 
pfpi4k_grid

>  <i_i_glide_lignum>  (443) 
27

>  <i_i_glide_rotatable_bonds>  (443) 
3

>  <r_i_docking_score>  (443) 
-2.91777

>  <r_i_glide_ligand_efficiency>  (443) 
-0.138941

>  <r_i_glide_ligand_efficiency_sa>  (443) 
-0.383329

>  <r_i_glide_ligand_efficiency_ln>  (443) 
-0.721413

>  <r_i_glide_gscore>  (443) 
-2.91777

>  <r_i_glide_lipo>  (443) 
-0.368364

>  <r_i_glide_hbond>  (443) 
0

>  <r_i_glide_metal>  (443) 
-0

>  <r_i_glide_rewards>  (443) 
-1.45837

>  <r_i_glide_evdw>  (443) 
-18.4474

>  <r_i_glide_ecoul>  (443) 
-1.12443

>  <r_i_glide_erotb>  (443) 
0

>  <r_i_glide_esite>  (443) 
0

>  <r_i_glide_emodel>  (443) 
-22.5057

>  <r_i_glide_energy>  (443) 
-19.5718

>  <r_i_glide_einternal>  (443) 
1.13243

>  <r_i_glide_intrahb_reward>  (443) 
-0

>  <i_i_glide_confnum>  (443) 
1

>  <i_i_glide_posenum>  (443) 
1

>  <r_i_glide_eff_state_penalty>  (443) 
0

>  <ligand_id>  (443) 
105

>  <original_smiles>  (443) 
CC1C2C(O)CC34CC5OC3(C)CCC2OC(O)C51C4O

>  <smiles>  (443) 
[H]OC1([H])OC2([H])C([H])([H])C([H])([H])C3(C([H])([H])[H])OC4([H])C([H])([H])C35C([H])([H])C([H])(O[H])C2([H])C([H])(C([H])([H])[H])C14C5([H])O[H]

$$$$
107:0:0
     RDKit          3D

 67 71  0  0  1  0  0  0  0  0999 V2000
    1.5942   -4.5758    3.4861 C   0  0  0  0  0  0  0  0  0  0  0  0
    1.4563   -5.9154    2.9074 N   0  0  0  0  0  0  0  0  0  0  0  0
    1.9486   -6.2489    1.6779 C   0  0  0  0  0  0  0  0  0  0  0  0
    1.2572   -6.8864    0.8804 O   0  0  0  0  0  0  0  0  0  0  0  0
    3.4529   -6.0930    1.2864 C   0  0  1  0  0  0  0  0  0  0  0  0
    4.3340   -5.0262    2.0407 C   0  0  0  0  0  0  0  0  0  0  0  0
    5.5681   -4.5232    1.3005 C   0  0  0  0  0  0  0  0  0  0  0  0
    5.4778   -3.3953    0.4239 C   0  0  0  0  0  0  0  0  0  0  0  0
    6.6547   -2.9124   -0.1864 C   0  0  0  0  0  0  0  0  0  0  0  0
    6.5810   -1.8033   -1.0036 F   0  0  0  0  0  0  0  0  0  0  0  0
    7.8973   -3.5404    0.0010 C   0  0  0  0  0  0  0  0  0  0  0  0
    7.9696   -4.6471    0.8882 C   0  0  0  0  0  0  0  0  0  0  0  0
    9.1464   -5.2557    1.0927 F   0  0  0  0  0  0  0  0  0  0  0  0
    6.8298   -5.0583    1.5856 C   0  0  0  0  0  0  0  0  0  0  0  0
    4.1648   -7.4880    1.1944 C   0  0  0  0  0  0  0  0  0  0  0  0
    4.4596   -8.2278    2.5354 C   0  0  1  0  0  0  0  0  0  0  0  0
    3.4101   -9.3029    3.0025 C   0  0  1  0  0  0  0  0  0  0  0  0
    4.0998  -10.1076    4.1272 C   0  0  2  0  0  0  0  0  0  0  0  0
    3.6437   -9.8105    5.5650 C   0  0  0  0  0  0  0  0  0  0  0  0
    3.6642   -8.3375    6.0237 C   0  0  0  0  0  0  0  0  0  0  0  0
    2.7662   -7.3468    5.2582 C   0  0  0  0  0  0  0  0  0  0  0  0
    1.6291   -7.9391    4.3890 C   0  0  1  0  0  0  0  0  0  0  0  0
    0.6868   -6.8570    3.7732 C   0  0  2  0  0  0  0  0  0  0  0  0
   -0.5681   -7.5312    3.1170 C   0  0  0  0  0  0  0  0  0  0  0  0
   -0.4999   -9.0791    3.0576 C   0  0  0  0  0  0  0  0  0  0  0  0
    0.9042   -9.6791    2.7752 C   0  0  0  0  0  0  0  0  0  0  0  0
    2.0182   -8.7973    3.2255 N   0  0  2  0  0  0  0  0  0  0  0  0
    5.5842   -9.8390    3.8767 C   0  0  0  0  0  0  0  0  0  0  0  0
    6.4823  -10.2563    4.5940 O   0  0  0  0  0  0  0  0  0  0  0  0
    5.8192   -8.9838    2.6281 C   0  0  0  0  0  0  0  0  0  0  0  0
    6.1055   -9.8969    1.4202 C   0  0  0  0  0  0  0  0  0  0  0  0
    7.0464   -8.1010    2.8257 C   0  0  0  0  0  0  0  0  0  0  0  0
    1.8076   -3.8030    2.7531 H   0  0  0  0  0  0  0  0  0  0  0  0
    2.3696   -4.5800    4.2509 H   0  0  0  0  0  0  0  0  0  0  0  0
    0.6756   -4.2290    3.9545 H   0  0  0  0  0  0  0  0  0  0  0  0
    3.3875   -5.7270    0.2546 H   0  0  0  0  0  0  0  0  0  0  0  0
    3.7785   -4.1175    2.2478 H   0  0  0  0  0  0  0  0  0  0  0  0
    4.6335   -5.3992    3.0159 H   0  0  0  0  0  0  0  0  0  0  0  0
    4.5132   -2.8772    0.3005 H   0  0  0  0  0  0  0  0  0  0  0  0
    8.8120   -3.1578   -0.4863 H   0  0  0  0  0  0  0  0  0  0  0  0
    6.9116   -5.7080    2.3868 H   0  0  0  0  0  0  0  0  0  0  0  0
    3.6094   -8.1569    0.5345 H   0  0  0  0  0  0  0  0  0  0  0  0
    5.1037   -7.3094    0.6679 H   0  0  0  0  0  0  0  0  0  0  0  0
    4.5470   -7.4841    3.3032 H   0  0  0  0  0  0  0  0  0  0  0  0
    3.3290   -9.9864    2.1504 H   0  0  0  0  0  0  0  0  0  0  0  0
    3.9654  -11.1634    3.9319 H   0  0  0  0  0  0  0  0  0  0  0  0
    2.6451  -10.2239    5.6847 H   0  0  0  0  0  0  0  0  0  0  0  0
    4.2687  -10.3876    6.2436 H   0  0  0  0  0  0  0  0  0  0  0  0
    3.3546   -8.3373    7.0679 H   0  0  0  0  0  0  0  0  0  0  0  0
    4.6842   -7.9588    6.0353 H   0  0  0  0  0  0  0  0  0  0  0  0
    2.2933   -6.7112    6.0041 H   0  0  0  0  0  0  0  0  0  0  0  0
    3.3581   -6.6408    4.6962 H   0  0  0  0  0  0  0  0  0  0  0  0
    1.0403   -8.5507    5.0774 H   0  0  0  0  0  0  0  0  0  0  0  0
    0.2781   -6.2914    4.6083 H   0  0  0  0  0  0  0  0  0  0  0  0
   -1.4502   -7.2824    3.7109 H   0  0  0  0  0  0  0  0  0  0  0  0
   -0.8033   -7.1287    2.1340 H   0  0  0  0  0  0  0  0  0  0  0  0
   -0.8462   -9.4642    4.0099 H   0  0  0  0  0  0  0  0  0  0  0  0
   -1.2163   -9.4658    2.3394 H   0  0  0  0  0  0  0  0  0  0  0  0
    0.9962  -10.6682    3.2300 H   0  0  0  0  0  0  0  0  0  0  0  0
    1.0257   -9.8374    1.6989 H   0  0  0  0  0  0  0  0  0  0  0  0
    6.1754   -9.3288    0.4976 H   0  0  0  0  0  0  0  0  0  0  0  0
    5.3533  -10.6663    1.2836 H   0  0  0  0  0  0  0  0  0  0  0  0
    7.0539  -10.4193    1.5398 H   0  0  0  0  0  0  0  0  0  0  0  0
    7.1793   -7.6285    1.8678 H   0  0  0  0  0  0  0  0  0  0  0  0
    7.9852   -8.6220    3.0006 H   0  0  0  0  0  0  0  0  0  0  0  0
    6.9044   -7.3964    3.6400 H   0  0  0  0  0  0  0  0  0  0  0  0
    1.9642   -8.1186    2.4903 H   0  0  0  0  0  0  0  0  0  0  0  0
  1  2  1  0
  1 33  1  0
  1 34  1  0
  1 35  1  0
  2 23  1  0
  2  3  1  0
  3  4  2  0
  3  5  1  0
  5  6  1  0
  5 15  1  0
  5 36  1  6
  6  7  1  0
  6 37  1  0
  6 38  1  0
  7 14  1  0
  7  8  2  0
  8  9  1  0
  8 39  1  0
  9 10  1  0
  9 11  2  0
 11 12  1  0
 11 40  1  0
 12 13  1  0
 12 14  2  0
 14 41  1  0
 15 16  1  0
 15 42  1  0
 15 43  1  0
 16 30  1  0
 16 17  1  0
 16 44  1  1
 17 27  1  0
 17 18  1  0
 17 45  1  6
 18 19  1  0
 18 28  1  0
 18 46  1  6
 19 20  1  0
 19 47  1  0
 19 48  1  0
 20 21  1  0
 20 49  1  0
 20 50  1  0
 21 22  1  0
 21 51  1  0
 21 52  1  0
 22 27  1  0
 22 23  1  0
 22 53  1  1
 23 24  1  0
 23 54  1  1
 24 25  1  0
 24 55  1  0
 24 56  1  0
 25 26  1  0
 25 57  1  0
 25 58  1  0
 26 27  1  0
 26 59  1  0
 26 60  1  0
 27 67  1  6
 28 29  2  0
 28 30  1  0
 30 31  1  0
 30 32  1  0
 31 61  1  0
 31 62  1  0
 31 63  1  0
 32 64  1  0
 32 65  1  0
 32 66  1  0
M  CHG  1  27   1
M  END
>  <i_m_ct_stereo_status>  (444) 
1

>  <s_m_source_file>  (444) 
/var/tmp/pbs.5076255.sched01/tmpk5ywl0l3/150lwq6_0yz.sdf

>  <i_m_source_file_index>  (444) 
29

>  <i_lp_mmshare_version>  (444) 
48012

>  <i_f3d_flags>  (444) 
0

>  <s_epik_input>  (444) 
W0NIM11DMShbQ0gzXSlDKD1PKVtDQEhdKFtDQEBIXTJbQ0BASF0xMylbQ0gyXVtDSDJdW0NIMl1bQ0BIXTRbQ0BIXShbQ0gyXVtDSDJdW0NIMl1OMjQpTihbQ0gzXSlDKD1PKVtDQEhdKFtDSDJdMylbQ0gyXWM1W2NIXWMoRilbY0hdYyhGKVtjSF01

>  <s_epik_cmdline>  (444) 
J2VwaWtfcHl0aG9uJywgJy1waHQnLCAnMi4wJywgJy1waCcsICc3LjAnLCAnLXRuJywgJzgnLCAnLW1hJywgJzIwMCcsICctaW1hZScsICc8aW5maWxlLm1hZT4nLCAnLW9tYWUnLCAnPG91dGZpbGUubWFlPic=

>  <r_epik_Ionization_Penalty>  (444) 
0.0203334

>  <r_epik_Ionization_Penalty_Charging>  (444) 
0.0203334

>  <r_epik_Ionization_Penalty_Neutral>  (444) 
7.07203e-10

>  <r_epik_State_Penalty>  (444) 
0.0162916

>  <r_epik_Charging_Adjusted_Penalty>  (444) 
0.036625

>  <i_epik_Tot_Q>  (444) 
1

>  <i_epik_Tot_abs_Q>  (444) 
1

>  <s_lp_Force_Field>  (444) 
OPLS3e

>  <r_lp_Energy>  (444) 
90.3351

>  <b_lp_Chiralities_Consistent>  (444) 
1

>  <s_lp_Variant>  (444) 
107:0-1

>  <s_i_glide_gridfile>  (444) 
pfpi4k_grid

>  <i_i_glide_lignum>  (444) 
29

>  <i_i_glide_rotatable_bonds>  (444) 
2

>  <r_i_docking_score>  (444) 
-3.36404

>  <r_i_glide_ligand_efficiency>  (444) 
-0.105126

>  <r_i_glide_ligand_efficiency_sa>  (444) 
-0.333755

>  <r_i_glide_ligand_efficiency_ln>  (444) 
-0.753299

>  <r_i_glide_gscore>  (444) 
-3.36404

>  <r_i_glide_lipo>  (444) 
-0.835283

>  <r_i_glide_hbond>  (444) 
0

>  <r_i_glide_metal>  (444) 
-0

>  <r_i_glide_rewards>  (444) 
-0.371147

>  <r_i_glide_evdw>  (444) 
-26.0483

>  <r_i_glide_ecoul>  (444) 
-5.69604

>  <r_i_glide_erotb>  (444) 
0.201576

>  <r_i_glide_esite>  (444) 
-0.202362

>  <r_i_glide_emodel>  (444) 
-36.7017

>  <r_i_glide_energy>  (444) 
-31.7443

>  <r_i_glide_einternal>  (444) 
1.76941

>  <r_i_glide_intrahb_reward>  (444) 
-0

>  <i_i_glide_confnum>  (444) 
6

>  <i_i_glide_posenum>  (444) 
29

>  <r_i_glide_eff_state_penalty>  (444) 
0

>  <ligand_id>  (444) 
107

>  <original_smiles>  (444) 
CN1C(=O)C(Cc2cc(F)cc(F)c2)CC2C3C(CCCC4C1CCCN43)C(=O)C2(C)C

>  <smiles>  (444) 
[H]c1c(F)c([H])c(C([H])([H])C2([H])C(=O)N(C([H])([H])[H])C3([H])C([H])([H])C([H])([H])C([H])([H])[N+]4([H])C3([H])C([H])([H])C([H])([H])C([H])([H])C3([H])C(=O)C(C([H])([H])[H])(C([H])([H])[H])C([H])(C2([H])[H])C34[H])c([H])c1F

$$$$
107:0:1
     RDKit          3D

 67 71  0  0  1  0  0  0  0  0999 V2000
    4.2804   -6.3738   -0.1100 C   0  0  0  0  0  0  0  0  0  0  0  0
    3.8809   -4.9986   -0.3219 N   0  0  0  0  0  0  0  0  0  0  0  0
    2.7100   -4.5120    0.1474 C   0  0  0  0  0  0  0  0  0  0  0  0
    1.9457   -3.9510   -0.5936 O   0  0  0  0  0  0  0  0  0  0  0  0
    2.4120   -4.4016    1.6751 C   0  0  1  0  0  0  0  0  0  0  0  0
    3.1144   -5.3424    2.6739 C   0  0  0  0  0  0  0  0  0  0  0  0
    2.6746   -6.8131    2.6667 C   0  0  0  0  0  0  0  0  0  0  0  0
    3.6681   -7.8104    2.6752 C   0  0  0  0  0  0  0  0  0  0  0  0
    3.3377   -9.1729    2.6349 C   0  0  0  0  0  0  0  0  0  0  0  0
    4.3339  -10.0865    2.5631 F   0  0  0  0  0  0  0  0  0  0  0  0
    1.9943   -9.5704    2.6277 C   0  0  0  0  0  0  0  0  0  0  0  0
    0.9775   -8.5893    2.6542 C   0  0  0  0  0  0  0  0  0  0  0  0
   -0.3212   -8.9646    2.6648 F   0  0  0  0  0  0  0  0  0  0  0  0
    1.3182   -7.2200    2.6720 C   0  0  0  0  0  0  0  0  0  0  0  0
    2.4940   -2.8944    2.0880 C   0  0  0  0  0  0  0  0  0  0  0  0
    3.9268   -2.2951    2.0953 C   0  0  1  0  0  0  0  0  0  0  0  0
    4.3734   -1.4491    0.8585 C   0  0  1  0  0  0  0  0  0  0  0  0
    5.6467   -0.7212    1.2710 C   0  0  2  0  0  0  0  0  0  0  0  0
    6.9979   -1.2867    0.7569 C   0  0  0  0  0  0  0  0  0  0  0  0
    7.3111   -2.7848    0.9615 C   0  0  0  0  0  0  0  0  0  0  0  0
    6.3591   -3.7612    0.3316 C   0  0  0  0  0  0  0  0  0  0  0  0
    5.4793   -3.1748   -0.7813 C   0  0  1  0  0  0  0  0  0  0  0  0
    4.6649   -4.2963   -1.4051 C   0  0  2  0  0  0  0  0  0  0  0  0
    3.9140   -3.7534   -2.6793 C   0  0  0  0  0  0  0  0  0  0  0  0
    4.0613   -2.2580   -2.9125 C   0  0  0  0  0  0  0  0  0  0  0  0
    3.9693   -1.4125   -1.6234 C   0  0  0  0  0  0  0  0  0  0  0  0
    4.4368   -2.1672   -0.4451 N   0  0  2  0  0  0  0  0  0  0  0  0
    5.4829   -0.6665    2.7997 C   0  0  0  0  0  0  0  0  0  0  0  0
    6.1349    0.0639    3.5253 O   0  0  0  0  0  0  0  0  0  0  0  0
    4.2211   -1.3712    3.2941 C   0  0  0  0  0  0  0  0  0  0  0  0
    3.1939   -0.2448    3.5297 C   0  0  0  0  0  0  0  0  0  0  0  0
    4.4827   -2.1301    4.6157 C   0  0  0  0  0  0  0  0  0  0  0  0
    3.3861   -6.9230    0.1731 H   0  0  0  0  0  0  0  0  0  0  0  0
    5.0777   -6.4851    0.6319 H   0  0  0  0  0  0  0  0  0  0  0  0
    4.6045   -6.8121   -1.0526 H   0  0  0  0  0  0  0  0  0  0  0  0
    1.3783   -4.6877    1.7644 H   0  0  0  0  0  0  0  0  0  0  0  0
    4.1936   -5.2772    2.5305 H   0  0  0  0  0  0  0  0  0  0  0  0
    2.9164   -4.9556    3.6781 H   0  0  0  0  0  0  0  0  0  0  0  0
    4.7090   -7.5371    2.6992 H   0  0  0  0  0  0  0  0  0  0  0  0
    1.7486  -10.6201    2.5800 H   0  0  0  0  0  0  0  0  0  0  0  0
    0.5280   -6.4861    2.6825 H   0  0  0  0  0  0  0  0  0  0  0  0
    1.8665   -2.2495    1.4637 H   0  0  0  0  0  0  0  0  0  0  0  0
    2.0698   -2.8089    3.0933 H   0  0  0  0  0  0  0  0  0  0  0  0
    4.6145   -3.1139    2.2648 H   0  0  0  0  0  0  0  0  0  0  0  0
    3.6160   -0.6739    0.7309 H   0  0  0  0  0  0  0  0  0  0  0  0
    5.5981    0.3106    0.9343 H   0  0  0  0  0  0  0  0  0  0  0  0
    7.0713   -1.0695   -0.3164 H   0  0  0  0  0  0  0  0  0  0  0  0
    7.8207   -0.7221    1.1858 H   0  0  0  0  0  0  0  0  0  0  0  0
    8.3191   -2.9777    0.5751 H   0  0  0  0  0  0  0  0  0  0  0  0
    7.2542   -3.1234    1.9902 H   0  0  0  0  0  0  0  0  0  0  0  0
    6.9562   -4.5713   -0.0962 H   0  0  0  0  0  0  0  0  0  0  0  0
    5.8075   -4.2554    1.1257 H   0  0  0  0  0  0  0  0  0  0  0  0
    6.1778   -2.8047   -1.5433 H   0  0  0  0  0  0  0  0  0  0  0  0
    5.4182   -4.9872   -1.7677 H   0  0  0  0  0  0  0  0  0  0  0  0
    4.3594   -4.2555   -3.5464 H   0  0  0  0  0  0  0  0  0  0  0  0
    2.8414   -3.9416   -2.7541 H   0  0  0  0  0  0  0  0  0  0  0  0
    5.0164   -2.0894   -3.4056 H   0  0  0  0  0  0  0  0  0  0  0  0
    3.2875   -1.9321   -3.6018 H   0  0  0  0  0  0  0  0  0  0  0  0
    4.5587   -0.5077   -1.7601 H   0  0  0  0  0  0  0  0  0  0  0  0
    2.9289   -1.1416   -1.4506 H   0  0  0  0  0  0  0  0  0  0  0  0
    2.2164   -0.6357    3.7954 H   0  0  0  0  0  0  0  0  0  0  0  0
    3.0894    0.4038    2.6592 H   0  0  0  0  0  0  0  0  0  0  0  0
    3.5180    0.4027    4.3467 H   0  0  0  0  0  0  0  0  0  0  0  0
    3.6011   -2.6848    4.9298 H   0  0  0  0  0  0  0  0  0  0  0  0
    4.7274   -1.4467    5.4277 H   0  0  0  0  0  0  0  0  0  0  0  0
    5.3142   -2.8296    4.5409 H   0  0  0  0  0  0  0  0  0  0  0  0
    3.6408   -2.7768   -0.3137 H   0  0  0  0  0  0  0  0  0  0  0  0
  1  2  1  0
  1 33  1  0
  1 34  1  0
  1 35  1  0
  2 23  1  0
  2  3  1  0
  3  4  2  0
  3  5  1  0
  5  6  1  0
  5 15  1  0
  5 36  1  6
  6  7  1  0
  6 37  1  0
  6 38  1  0
  7 14  1  0
  7  8  2  0
  8  9  1  0
  8 39  1  0
  9 10  1  0
  9 11  2  0
 11 12  1  0
 11 40  1  0
 12 13  1  0
 12 14  2  0
 14 41  1  0
 15 16  1  0
 15 42  1  0
 15 43  1  0
 16 30  1  0
 16 17  1  0
 16 44  1  1
 17 27  1  0
 17 18  1  0
 17 45  1  6
 18 19  1  0
 18 28  1  0
 18 46  1  6
 19 20  1  0
 19 47  1  0
 19 48  1  0
 20 21  1  0
 20 49  1  0
 20 50  1  0
 21 22  1  0
 21 51  1  0
 21 52  1  0
 22 27  1  0
 22 23  1  0
 22 53  1  6
 23 24  1  0
 23 54  1  6
 24 25  1  0
 24 55  1  0
 24 56  1  0
 25 26  1  0
 25 57  1  0
 25 58  1  0
 26 27  1  0
 26 59  1  0
 26 60  1  0
 27 67  1  1
 28 29  2  0
 28 30  1  0
 30 31  1  0
 30 32  1  0
 31 61  1  0
 31 62  1  0
 31 63  1  0
 32 64  1  0
 32 65  1  0
 32 66  1  0
M  CHG  1  27   1
M  END
>  <i_m_ct_stereo_status>  (445) 
1

>  <s_m_source_file>  (445) 
/var/tmp/pbs.5076255.sched01/tmpk5ywl0l3/150lwq6_0yz.sdf

>  <i_m_source_file_index>  (445) 
29

>  <i_lp_mmshare_version>  (445) 
48012

>  <i_f3d_flags>  (445) 
0

>  <s_epik_input>  (445) 
W0NIM11DMShbQ0gzXSlDKD1PKVtDQEhdKFtDQEBIXTJbQ0BASF0xMylbQ0gyXVtDSDJdW0NIMl1bQ0BIXTRbQ0BIXShbQ0gyXVtDSDJdW0NIMl1OMjQpTihbQ0gzXSlDKD1PKVtDQEhdKFtDSDJdMylbQ0gyXWM1W2NIXWMoRilbY0hdYyhGKVtjSF01

>  <s_epik_cmdline>  (445) 
J2VwaWtfcHl0aG9uJywgJy1waHQnLCAnMi4wJywgJy1waCcsICc3LjAnLCAnLXRuJywgJzgnLCAnLW1hJywgJzIwMCcsICctaW1hZScsICc8aW5maWxlLm1hZT4nLCAnLW9tYWUnLCAnPG91dGZpbGUubWFlPic=

>  <r_epik_Ionization_Penalty>  (445) 
0.0203334

>  <r_epik_Ionization_Penalty_Charging>  (445) 
0.0203334

>  <r_epik_Ionization_Penalty_Neutral>  (445) 
7.07203e-10

>  <r_epik_State_Penalty>  (445) 
0.0162916

>  <r_epik_Charging_Adjusted_Penalty>  (445) 
0.036625

>  <i_epik_Tot_Q>  (445) 
1

>  <i_epik_Tot_abs_Q>  (445) 
1

>  <s_lp_Force_Field>  (445) 
OPLS3e

>  <r_lp_Energy>  (445) 
90.3351

>  <b_lp_Chiralities_Consistent>  (445) 
1

>  <s_lp_Variant>  (445) 
107:0-1

>  <s_i_glide_gridfile>  (445) 
pfpi4k_grid

>  <i_i_glide_lignum>  (445) 
29

>  <i_i_glide_rotatable_bonds>  (445) 
2

>  <r_i_docking_score>  (445) 
-2.23529

>  <r_i_glide_ligand_efficiency>  (445) 
-0.0698528

>  <r_i_glide_ligand_efficiency_sa>  (445) 
-0.221769

>  <r_i_glide_ligand_efficiency_ln>  (445) 
-0.500542

>  <r_i_glide_gscore>  (445) 
-2.23529

>  <r_i_glide_lipo>  (445) 
-0.531342

>  <r_i_glide_hbond>  (445) 
-0.0395405

>  <r_i_glide_metal>  (445) 
-0

>  <r_i_glide_rewards>  (445) 
-0.515858

>  <r_i_glide_evdw>  (445) 
-19.0973

>  <r_i_glide_ecoul>  (445) 
-1.42952

>  <r_i_glide_erotb>  (445) 
0.201576

>  <r_i_glide_esite>  (445) 
-0.180835

>  <r_i_glide_emodel>  (445) 
-24.4497

>  <r_i_glide_energy>  (445) 
-20.5268

>  <r_i_glide_einternal>  (445) 
0.282789

>  <r_i_glide_intrahb_reward>  (445) 
-0

>  <i_i_glide_confnum>  (445) 
6

>  <i_i_glide_posenum>  (445) 
3

>  <r_i_glide_eff_state_penalty>  (445) 
0

>  <ligand_id>  (445) 
107

>  <original_smiles>  (445) 
CN1C(=O)C(Cc2cc(F)cc(F)c2)CC2C3C(CCCC4C1CCCN43)C(=O)C2(C)C

>  <smiles>  (445) 
[H]c1c(F)c([H])c(C([H])([H])C2([H])C(=O)N(C([H])([H])[H])C3([H])C([H])([H])C([H])([H])C([H])([H])[N+]4([H])C3([H])C([H])([H])C([H])([H])C([H])([H])C3([H])C(=O)C(C([H])([H])[H])(C([H])([H])[H])C([H])(C2([H])[H])C34[H])c([H])c1F

$$$$
107:0:2
     RDKit          3D

 67 71  0  0  1  0  0  0  0  0999 V2000
    5.5230   -5.5562    0.2056 C   0  0  0  0  0  0  0  0  0  0  0  0
    4.7824   -4.4012   -0.2967 N   0  0  0  0  0  0  0  0  0  0  0  0
    3.4246   -4.2955   -0.2197 C   0  0  0  0  0  0  0  0  0  0  0  0
    2.7995   -3.6949   -1.0761 O   0  0  0  0  0  0  0  0  0  0  0  0
    2.6162   -4.5627    1.0750 C   0  0  1  0  0  0  0  0  0  0  0  0
    3.2079   -5.3819    2.2753 C   0  0  0  0  0  0  0  0  0  0  0  0
    2.2441   -6.3406    2.9540 C   0  0  0  0  0  0  0  0  0  0  0  0
    2.4651   -7.7314    2.8687 C   0  0  0  0  0  0  0  0  0  0  0  0
    1.6642   -8.6280    3.6069 C   0  0  0  0  0  0  0  0  0  0  0  0
    1.9044   -9.9604    3.5375 F   0  0  0  0  0  0  0  0  0  0  0  0
    0.6306   -8.1353    4.4331 C   0  0  0  0  0  0  0  0  0  0  0  0
    0.3949   -6.7497    4.5047 C   0  0  0  0  0  0  0  0  0  0  0  0
   -0.5869   -6.2562    5.3024 F   0  0  0  0  0  0  0  0  0  0  0  0
    1.1882   -5.8636    3.7526 C   0  0  0  0  0  0  0  0  0  0  0  0
    2.0263   -3.1836    1.5449 C   0  0  0  0  0  0  0  0  0  0  0  0
    2.9724   -2.1498    2.1609 C   0  0  1  0  0  0  0  0  0  0  0  0
    3.4488   -1.0461    1.1926 C   0  0  1  0  0  0  0  0  0  0  0  0
    4.0605    0.0201    2.0877 C   0  0  2  0  0  0  0  0  0  0  0  0
    5.5776    0.0488    2.1604 C   0  0  0  0  0  0  0  0  0  0  0  0
    6.3243   -1.2198    2.4411 C   0  0  0  0  0  0  0  0  0  0  0  0
    6.1683   -2.4226    1.5132 C   0  0  0  0  0  0  0  0  0  0  0  0
    5.6408   -2.0840    0.1226 C   0  0  1  0  0  0  0  0  0  0  0  0
    5.6611   -3.3040   -0.8341 C   0  0  2  0  0  0  0  0  0  0  0  0
    5.3294   -2.8698   -2.3029 C   0  0  0  0  0  0  0  0  0  0  0  0
    4.8713   -1.3940   -2.4122 C   0  0  0  0  0  0  0  0  0  0  0  0
    3.9850   -0.8805   -1.2735 C   0  0  0  0  0  0  0  0  0  0  0  0
    4.2525   -1.5349    0.0267 N   0  0  2  0  0  0  0  0  0  0  0  0
    3.4151   -0.2607    3.4488 C   0  0  0  0  0  0  0  0  0  0  0  0
    3.6993    0.3384    4.4868 O   0  0  0  0  0  0  0  0  0  0  0  0
    2.3996   -1.3977    3.3840 C   0  0  0  0  0  0  0  0  0  0  0  0
    0.9929   -0.7931    3.1609 C   0  0  0  0  0  0  0  0  0  0  0  0
    2.4125   -2.2338    4.6851 C   0  0  0  0  0  0  0  0  0  0  0  0
    4.9536   -6.4888    0.1586 H   0  0  0  0  0  0  0  0  0  0  0  0
    5.9565   -5.3680    1.1881 H   0  0  0  0  0  0  0  0  0  0  0  0
    6.3961   -5.7757   -0.3780 H   0  0  0  0  0  0  0  0  0  0  0  0
    1.8178   -5.1794    0.6695 H   0  0  0  0  0  0  0  0  0  0  0  0
    4.0032   -6.0517    2.0063 H   0  0  0  0  0  0  0  0  0  0  0  0
    3.6593   -4.7345    3.0309 H   0  0  0  0  0  0  0  0  0  0  0  0
    3.2791   -8.1292    2.2786 H   0  0  0  0  0  0  0  0  0  0  0  0
    0.0163   -8.8220    5.0016 H   0  0  0  0  0  0  0  0  0  0  0  0
    0.9838   -4.8178    3.8445 H   0  0  0  0  0  0  0  0  0  0  0  0
    1.5151   -2.6427    0.7527 H   0  0  0  0  0  0  0  0  0  0  0  0
    1.2886   -3.4181    2.3037 H   0  0  0  0  0  0  0  0  0  0  0  0
    3.8207   -2.6764    2.5679 H   0  0  0  0  0  0  0  0  0  0  0  0
    2.5677   -0.5861    0.7590 H   0  0  0  0  0  0  0  0  0  0  0  0
    3.7097    1.0150    1.8033 H   0  0  0  0  0  0  0  0  0  0  0  0
    5.9182    0.4627    1.2181 H   0  0  0  0  0  0  0  0  0  0  0  0
    5.8863    0.6982    2.9911 H   0  0  0  0  0  0  0  0  0  0  0  0
    7.4118   -0.8578    2.3899 H   0  0  0  0  0  0  0  0  0  0  0  0
    6.0908   -1.5408    3.4538 H   0  0  0  0  0  0  0  0  0  0  0  0
    7.1580   -2.8506    1.3803 H   0  0  0  0  0  0  0  0  0  0  0  0
    5.6256   -3.2310    1.9861 H   0  0  0  0  0  0  0  0  0  0  0  0
    6.3411   -1.3480   -0.2576 H   0  0  0  0  0  0  0  0  0  0  0  0
    6.6990   -3.6394   -0.8639 H   0  0  0  0  0  0  0  0  0  0  0  0
    6.2279   -2.9814   -2.9270 H   0  0  0  0  0  0  0  0  0  0  0  0
    4.5829   -3.5178   -2.7754 H   0  0  0  0  0  0  0  0  0  0  0  0
    5.7492   -0.7477   -2.3755 H   0  0  0  0  0  0  0  0  0  0  0  0
    4.3885   -1.1966   -3.3647 H   0  0  0  0  0  0  0  0  0  0  0  0
    4.2318    0.1442   -1.1384 H   0  0  0  0  0  0  0  0  0  0  0  0
    2.9417   -0.9584   -1.5299 H   0  0  0  0  0  0  0  0  0  0  0  0
    0.2380   -1.5589    2.9925 H   0  0  0  0  0  0  0  0  0  0  0  0
    0.9645   -0.1058    2.3153 H   0  0  0  0  0  0  0  0  0  0  0  0
    0.6737   -0.2261    4.0362 H   0  0  0  0  0  0  0  0  0  0  0  0
    1.7422   -3.0773    4.6042 H   0  0  0  0  0  0  0  0  0  0  0  0
    2.0509   -1.6609    5.5396 H   0  0  0  0  0  0  0  0  0  0  0  0
    3.4042   -2.6142    4.9247 H   0  0  0  0  0  0  0  0  0  0  0  0
    3.7427   -2.3901   -0.1717 H   0  0  0  0  0  0  0  0  0  0  0  0
  1  2  1  0
  1 33  1  0
  1 34  1  0
  1 35  1  0
  2 23  1  0
  2  3  1  0
  3  4  2  0
  3  5  1  0
  5  6  1  0
  5 15  1  0
  5 36  1  6
  6  7  1  0
  6 37  1  0
  6 38  1  0
  7 14  1  0
  7  8  2  0
  8  9  1  0
  8 39  1  0
  9 10  1  0
  9 11  2  0
 11 12  1  0
 11 40  1  0
 12 13  1  0
 12 14  2  0
 14 41  1  0
 15 16  1  0
 15 42  1  0
 15 43  1  0
 16 30  1  0
 16 17  1  0
 16 44  1  1
 17 27  1  0
 17 18  1  0
 17 45  1  6
 18 19  1  0
 18 28  1  0
 18 46  1  6
 19 20  1  0
 19 47  1  0
 19 48  1  0
 20 21  1  0
 20 49  1  0
 20 50  1  0
 21 22  1  0
 21 51  1  0
 21 52  1  0
 22 27  1  0
 22 23  1  0
 22 53  1  6
 23 24  1  0
 23 54  1  6
 24 25  1  0
 24 55  1  0
 24 56  1  0
 25 26  1  0
 25 57  1  0
 25 58  1  0
 26 27  1  0
 26 59  1  0
 26 60  1  0
 27 67  1  6
 28 29  2  0
 28 30  1  0
 30 31  1  0
 30 32  1  0
 31 61  1  0
 31 62  1  0
 31 63  1  0
 32 64  1  0
 32 65  1  0
 32 66  1  0
M  CHG  1  27   1
M  END
>  <i_m_ct_stereo_status>  (446) 
1

>  <s_m_source_file>  (446) 
/var/tmp/pbs.5076255.sched01/tmpk5ywl0l3/150lwq6_0yz.sdf

>  <i_m_source_file_index>  (446) 
29

>  <i_lp_mmshare_version>  (446) 
48012

>  <i_f3d_flags>  (446) 
0

>  <s_epik_input>  (446) 
W0NIM11DMShbQ0gzXSlDKD1PKVtDQEhdKFtDQEBIXTJbQ0BASF0xMylbQ0gyXVtDSDJdW0NIMl1bQ0BIXTRbQ0BIXShbQ0gyXVtDSDJdW0NIMl1OMjQpTihbQ0gzXSlDKD1PKVtDQEhdKFtDSDJdMylbQ0gyXWM1W2NIXWMoRilbY0hdYyhGKVtjSF01

>  <s_epik_cmdline>  (446) 
J2VwaWtfcHl0aG9uJywgJy1waHQnLCAnMi4wJywgJy1waCcsICc3LjAnLCAnLXRuJywgJzgnLCAnLW1hJywgJzIwMCcsICctaW1hZScsICc8aW5maWxlLm1hZT4nLCAnLW9tYWUnLCAnPG91dGZpbGUubWFlPic=

>  <r_epik_Ionization_Penalty>  (446) 
0.0203334

>  <r_epik_Ionization_Penalty_Charging>  (446) 
0.0203334

>  <r_epik_Ionization_Penalty_Neutral>  (446) 
7.07203e-10

>  <r_epik_State_Penalty>  (446) 
0.0162916

>  <r_epik_Charging_Adjusted_Penalty>  (446) 
0.036625

>  <i_epik_Tot_Q>  (446) 
1

>  <i_epik_Tot_abs_Q>  (446) 
1

>  <s_lp_Force_Field>  (446) 
OPLS3e

>  <r_lp_Energy>  (446) 
90.3351

>  <b_lp_Chiralities_Consistent>  (446) 
1

>  <s_lp_Variant>  (446) 
107:0-1

>  <s_i_glide_gridfile>  (446) 
pfpi4k_grid

>  <i_i_glide_lignum>  (446) 
29

>  <i_i_glide_rotatable_bonds>  (446) 
2

>  <r_i_docking_score>  (446) 
-1.87125

>  <r_i_glide_ligand_efficiency>  (446) 
-0.0584766

>  <r_i_glide_ligand_efficiency_sa>  (446) 
-0.185652

>  <r_i_glide_ligand_efficiency_ln>  (446) 
-0.419024

>  <r_i_glide_gscore>  (446) 
-1.87125

>  <r_i_glide_lipo>  (446) 
-0.569566

>  <r_i_glide_hbond>  (446) 
0

>  <r_i_glide_metal>  (446) 
-0

>  <r_i_glide_rewards>  (446) 
-0.422055

>  <r_i_glide_evdw>  (446) 
-14.4

>  <r_i_glide_ecoul>  (446) 
-1.94162

>  <r_i_glide_erotb>  (446) 
0.201576

>  <r_i_glide_esite>  (446) 
-0.069963

>  <r_i_glide_emodel>  (446) 
-17.5235

>  <r_i_glide_energy>  (446) 
-16.3416

>  <r_i_glide_einternal>  (446) 
3.28614

>  <r_i_glide_intrahb_reward>  (446) 
-0

>  <i_i_glide_confnum>  (446) 
6

>  <i_i_glide_posenum>  (446) 
7

>  <r_i_glide_eff_state_penalty>  (446) 
0

>  <ligand_id>  (446) 
107

>  <original_smiles>  (446) 
CN1C(=O)C(Cc2cc(F)cc(F)c2)CC2C3C(CCCC4C1CCCN43)C(=O)C2(C)C

>  <smiles>  (446) 
[H]c1c(F)c([H])c(C([H])([H])C2([H])C(=O)N(C([H])([H])[H])C3([H])C([H])([H])C([H])([H])C([H])([H])[N+]4([H])C3([H])C([H])([H])C([H])([H])C([H])([H])C3([H])C(=O)C(C([H])([H])[H])(C([H])([H])[H])C([H])(C2([H])[H])C34[H])c([H])c1F

$$$$
107:1:0
     RDKit          3D

 67 71  0  0  1  0  0  0  0  0999 V2000
   -1.4366   -8.0990    3.1135 C   0  0  0  0  0  0  0  0  0  0  0  0
   -0.0043   -8.4311    3.2800 N   0  0  0  0  0  0  0  0  0  0  0  0
    0.9309   -7.4770    3.0319 C   0  0  0  0  0  0  0  0  0  0  0  0
    0.6129   -6.3145    2.7558 O   0  0  0  0  0  0  0  0  0  0  0  0
    2.4364   -7.8088    3.0410 C   0  0  1  0  0  0  0  0  0  0  0  0
    3.0668   -7.4630    1.6715 C   0  0  0  0  0  0  0  0  0  0  0  0
    4.5656   -7.6832    1.6145 C   0  0  0  0  0  0  0  0  0  0  0  0
    5.4505   -6.5840    1.7036 C   0  0  0  0  0  0  0  0  0  0  0  0
    6.8451   -6.7918    1.6801 C   0  0  0  0  0  0  0  0  0  0  0  0
    7.6859   -5.7352    1.7622 F   0  0  0  0  0  0  0  0  0  0  0  0
    7.3582   -8.0984    1.5710 C   0  0  0  0  0  0  0  0  0  0  0  0
    6.4768   -9.1995    1.4771 C   0  0  0  0  0  0  0  0  0  0  0  0
    6.9574  -10.4574    1.3663 F   0  0  0  0  0  0  0  0  0  0  0  0
    5.0839   -8.9893    1.4968 C   0  0  0  0  0  0  0  0  0  0  0  0
    3.2086   -7.1843    4.2293 C   0  0  0  0  0  0  0  0  0  0  0  0
    2.6172   -7.3446    5.6522 C   0  0  1  0  0  0  0  0  0  0  0  0
    2.6791   -8.7646    6.3091 C   0  0  1  0  0  0  0  0  0  0  0  0
    2.3933   -8.5033    7.8200 C   0  0  2  0  0  0  0  0  0  0  0  0
    0.9373   -8.2492    8.2840 C   0  0  0  0  0  0  0  0  0  0  0  0
   -0.0974   -9.2335    7.7532 C   0  0  0  0  0  0  0  0  0  0  0  0
   -0.3525   -9.0363    6.2561 C   0  0  0  0  0  0  0  0  0  0  0  0
    0.5431   -9.8963    5.3481 C   0  0  1  0  0  0  0  0  0  0  0  0
    0.2161   -9.8034    3.8137 C   0  0  2  0  0  0  0  0  0  0  0  0
    1.0305  -10.7853    2.9364 C   0  0  0  0  0  0  0  0  0  0  0  0
    2.0375  -11.6057    3.7732 C   0  0  0  0  0  0  0  0  0  0  0  0
    2.8255  -10.7725    4.8159 C   0  0  0  0  0  0  0  0  0  0  0  0
    1.9754   -9.9499    5.7133 N   0  0  1  0  0  0  0  0  0  0  0  0
    3.1292   -7.1865    8.0066 C   0  0  0  0  0  0  0  0  0  0  0  0
    3.4898   -6.7682    9.1127 O   0  0  0  0  0  0  0  0  0  0  0  0
    3.3534   -6.4257    6.7003 C   0  0  0  0  0  0  0  0  0  0  0  0
    4.8812   -6.2886    6.4797 C   0  0  0  0  0  0  0  0  0  0  0  0
    2.7281   -5.0175    6.7770 C   0  0  0  0  0  0  0  0  0  0  0  0
   -1.6339   -7.1146    2.6882 H   0  0  0  0  0  0  0  0  0  0  0  0
   -1.9527   -8.1311    4.0751 H   0  0  0  0  0  0  0  0  0  0  0  0
   -1.9230   -8.8145    2.4469 H   0  0  0  0  0  0  0  0  0  0  0  0
    2.5739   -8.8621    3.1328 H   0  0  0  0  0  0  0  0  0  0  0  0
    2.6041   -8.0794    0.9016 H   0  0  0  0  0  0  0  0  0  0  0  0
    2.8575   -6.4294    1.3971 H   0  0  0  0  0  0  0  0  0  0  0  0
    5.0669   -5.5829    1.7996 H   0  0  0  0  0  0  0  0  0  0  0  0
    8.4250   -8.2502    1.5474 H   0  0  0  0  0  0  0  0  0  0  0  0
    4.4237   -9.8397    1.4253 H   0  0  0  0  0  0  0  0  0  0  0  0
    4.2175   -7.5994    4.2407 H   0  0  0  0  0  0  0  0  0  0  0  0
    3.3265   -6.1198    4.0167 H   0  0  0  0  0  0  0  0  0  0  0  0
    1.5865   -7.0019    5.6294 H   0  0  0  0  0  0  0  0  0  0  0  0
    3.7329   -9.0415    6.3067 H   0  0  0  0  0  0  0  0  0  0  0  0
    2.8452   -9.2701    8.4402 H   0  0  0  0  0  0  0  0  0  0  0  0
    0.9151   -8.3065    9.3756 H   0  0  0  0  0  0  0  0  0  0  0  0
    0.5978   -7.2374    8.0566 H   0  0  0  0  0  0  0  0  0  0  0  0
    0.1897  -10.2558    7.9922 H   0  0  0  0  0  0  0  0  0  0  0  0
   -1.0323   -9.0463    8.2838 H   0  0  0  0  0  0  0  0  0  0  0  0
   -1.3791   -9.3333    6.0819 H   0  0  0  0  0  0  0  0  0  0  0  0
   -0.2971   -7.9819    5.9896 H   0  0  0  0  0  0  0  0  0  0  0  0
    0.2132  -10.9111    5.6059 H   0  0  0  0  0  0  0  0  0  0  0  0
   -0.7624  -10.2543    3.7077 H   0  0  0  0  0  0  0  0  0  0  0  0
    0.3478  -11.5035    2.4750 H   0  0  0  0  0  0  0  0  0  0  0  0
    1.5030  -10.2992    2.0839 H   0  0  0  0  0  0  0  0  0  0  0  0
    1.4971  -12.3913    4.3073 H   0  0  0  0  0  0  0  0  0  0  0  0
    2.7285  -12.1180    3.1019 H   0  0  0  0  0  0  0  0  0  0  0  0
    3.3935  -11.4681    5.4393 H   0  0  0  0  0  0  0  0  0  0  0  0
    3.5932  -10.1822    4.3094 H   0  0  0  0  0  0  0  0  0  0  0  0
    5.1218   -5.7351    5.5734 H   0  0  0  0  0  0  0  0  0  0  0  0
    5.3791   -7.2563    6.4231 H   0  0  0  0  0  0  0  0  0  0  0  0
    5.3527   -5.7430    7.3017 H   0  0  0  0  0  0  0  0  0  0  0  0
    2.8152   -4.4854    5.8308 H   0  0  0  0  0  0  0  0  0  0  0  0
    3.2228   -4.4036    7.5344 H   0  0  0  0  0  0  0  0  0  0  0  0
    1.6713   -5.0544    7.0429 H   0  0  0  0  0  0  0  0  0  0  0  0
    1.9088  -10.5705    6.5208 H   0  0  0  0  0  0  0  0  0  0  0  0
  1  2  1  0
  1 33  1  0
  1 34  1  0
  1 35  1  0
  2 23  1  0
  2  3  1  0
  3  4  2  0
  3  5  1  0
  5  6  1  0
  5 15  1  0
  5 36  1  1
  6  7  1  0
  6 37  1  0
  6 38  1  0
  7 14  1  0
  7  8  2  0
  8  9  1  0
  8 39  1  0
  9 10  1  0
  9 11  2  0
 11 12  1  0
 11 40  1  0
 12 13  1  0
 12 14  2  0
 14 41  1  0
 15 16  1  0
 15 42  1  0
 15 43  1  0
 16 30  1  0
 16 17  1  0
 16 44  1  6
 17 27  1  0
 17 18  1  0
 17 45  1  1
 18 19  1  0
 18 28  1  0
 18 46  1  1
 19 20  1  0
 19 47  1  0
 19 48  1  0
 20 21  1  0
 20 49  1  0
 20 50  1  0
 21 22  1  0
 21 51  1  0
 21 52  1  0
 22 27  1  0
 22 23  1  0
 22 53  1  1
 23 24  1  0
 23 54  1  1
 24 25  1  0
 24 55  1  0
 24 56  1  0
 25 26  1  0
 25 57  1  0
 25 58  1  0
 26 27  1  0
 26 59  1  0
 26 60  1  0
 27 67  1  1
 28 29  2  0
 28 30  1  0
 30 31  1  0
 30 32  1  0
 31 61  1  0
 31 62  1  0
 31 63  1  0
 32 64  1  0
 32 65  1  0
 32 66  1  0
M  CHG  1  27   1
M  END
>  <i_m_ct_stereo_status>  (447) 
1

>  <s_m_source_file>  (447) 
/var/tmp/pbs.5076255.sched01/tmpk5ywl0l3/150lwq6_0yz.sdf

>  <i_m_source_file_index>  (447) 
30

>  <i_lp_mmshare_version>  (447) 
48012

>  <i_f3d_flags>  (447) 
0

>  <s_epik_input>  (447) 
W0NIM11DMShbQ0gzXSlDKD1PKVtDQEhdKFtDQEBIXTJbQ0BASF0xMylbQ0gyXVtDSDJdW0NIMl1bQ0BIXTRbQ0BIXShbQ0gyXVtDSDJdW0NIMl1OMjQpTihbQ0gzXSlDKD1PKVtDQEhdKFtDSDJdMylbQ0gyXWM1W2NIXWMoRilbY0hdYyhGKVtjSF01

>  <s_epik_cmdline>  (447) 
J2VwaWtfcHl0aG9uJywgJy1waHQnLCAnMi4wJywgJy1waCcsICc3LjAnLCAnLXRuJywgJzgnLCAnLW1hJywgJzIwMCcsICctaW1hZScsICc8aW5maWxlLm1hZT4nLCAnLW9tYWUnLCAnPG91dGZpbGUubWFlPic=

>  <r_epik_Ionization_Penalty>  (447) 
0.0203334

>  <r_epik_Ionization_Penalty_Charging>  (447) 
0.0203334

>  <r_epik_Ionization_Penalty_Neutral>  (447) 
7.07203e-10

>  <r_epik_State_Penalty>  (447) 
0.0162916

>  <r_epik_Charging_Adjusted_Penalty>  (447) 
0.036625

>  <i_epik_Tot_Q>  (447) 
1

>  <i_epik_Tot_abs_Q>  (447) 
1

>  <s_lp_Force_Field>  (447) 
OPLS3e

>  <r_lp_Energy>  (447) 
73.726

>  <b_lp_Chiralities_Consistent>  (447) 
1

>  <s_lp_Variant>  (447) 
107:0-2

>  <s_i_glide_gridfile>  (447) 
pfpi4k_grid

>  <i_i_glide_lignum>  (447) 
30

>  <i_i_glide_rotatable_bonds>  (447) 
2

>  <r_i_docking_score>  (447) 
-3.32428

>  <r_i_glide_ligand_efficiency>  (447) 
-0.103884

>  <r_i_glide_ligand_efficiency_sa>  (447) 
-0.329811

>  <r_i_glide_ligand_efficiency_ln>  (447) 
-0.744397

>  <r_i_glide_gscore>  (447) 
-3.32428

>  <r_i_glide_lipo>  (447) 
-0.509242

>  <r_i_glide_hbond>  (447) 
-0.141251

>  <r_i_glide_metal>  (447) 
-0

>  <r_i_glide_rewards>  (447) 
-0.420474

>  <r_i_glide_evdw>  (447) 
-24.281

>  <r_i_glide_ecoul>  (447) 
-7.16173

>  <r_i_glide_erotb>  (447) 
0.201576

>  <r_i_glide_esite>  (447) 
-0.166581

>  <r_i_glide_emodel>  (447) 
-40.6778

>  <r_i_glide_energy>  (447) 
-31.4427

>  <r_i_glide_einternal>  (447) 
0.2429

>  <r_i_glide_intrahb_reward>  (447) 
-0

>  <i_i_glide_confnum>  (447) 
3

>  <i_i_glide_posenum>  (447) 
8

>  <r_i_glide_eff_state_penalty>  (447) 
0

>  <ligand_id>  (447) 
107

>  <original_smiles>  (447) 
CN1C(=O)C(Cc2cc(F)cc(F)c2)CC2C3C(CCCC4C1CCCN43)C(=O)C2(C)C

>  <smiles>  (447) 
[H]c1c(F)c([H])c(C([H])([H])C2([H])C(=O)N(C([H])([H])[H])C3([H])C([H])([H])C([H])([H])C([H])([H])[N+]4([H])C3([H])C([H])([H])C([H])([H])C([H])([H])C3([H])C(=O)C(C([H])([H])[H])(C([H])([H])[H])C([H])(C2([H])[H])C34[H])c([H])c1F

$$$$
107:1:1
     RDKit          3D

 67 71  0  0  1  0  0  0  0  0999 V2000
   -1.1296   -8.1504    3.0360 C   0  0  0  0  0  0  0  0  0  0  0  0
    0.2692   -8.5532    3.2956 N   0  0  0  0  0  0  0  0  0  0  0  0
    1.2666   -7.6464    3.0993 C   0  0  0  0  0  0  0  0  0  0  0  0
    1.0234   -6.4734    2.8079 O   0  0  0  0  0  0  0  0  0  0  0  0
    2.7518   -8.0478    3.2051 C   0  0  1  0  0  0  0  0  0  0  0  0
    3.4915   -7.7638    1.8669 C   0  0  0  0  0  0  0  0  0  0  0  0
    5.0068   -7.7432    1.9680 C   0  0  0  0  0  0  0  0  0  0  0  0
    5.7375   -6.6108    1.5433 C   0  0  0  0  0  0  0  0  0  0  0  0
    7.1382   -6.5720    1.6884 C   0  0  0  0  0  0  0  0  0  0  0  0
    7.8332   -5.4881    1.2759 F   0  0  0  0  0  0  0  0  0  0  0  0
    7.8157   -7.6616    2.2777 C   0  0  0  0  0  0  0  0  0  0  0  0
    7.0884   -8.7926    2.7019 C   0  0  0  0  0  0  0  0  0  0  0  0
    7.7272   -9.8255    3.2956 F   0  0  0  0  0  0  0  0  0  0  0  0
    5.6969   -8.8443    2.5233 C   0  0  0  0  0  0  0  0  0  0  0  0
    3.4614   -7.4389    4.4450 C   0  0  0  0  0  0  0  0  0  0  0  0
    2.7763   -7.5618    5.8235 C   0  0  1  0  0  0  0  0  0  0  0  0
    2.7390   -8.9799    6.4919 C   0  0  1  0  0  0  0  0  0  0  0  0
    2.3783   -8.6843    7.9796 C   0  0  2  0  0  0  0  0  0  0  0  0
    0.9113   -8.3495    8.3468 C   0  0  0  0  0  0  0  0  0  0  0  0
   -0.1395   -9.2842    7.7618 C   0  0  0  0  0  0  0  0  0  0  0  0
   -0.2913   -9.0797    6.2534 C   0  0  0  0  0  0  0  0  0  0  0  0
    0.6130  -10.0065    5.4136 C   0  0  1  0  0  0  0  0  0  0  0  0
    0.3876   -9.9233    3.8649 C   0  0  2  0  0  0  0  0  0  0  0  0
    1.2013  -10.9566    3.0475 C   0  0  0  0  0  0  0  0  0  0  0  0
    2.1119  -11.8172    3.9528 C   0  0  0  0  0  0  0  0  0  0  0  0
    2.8741  -11.0114    5.0341 C   0  0  0  0  0  0  0  0  0  0  0  0
    2.0134  -10.1390    5.8694 N   0  0  1  0  0  0  0  0  0  0  0  0
    3.1670   -7.4034    8.1989 C   0  0  0  0  0  0  0  0  0  0  0  0
    3.4792   -6.9898    9.3222 O   0  0  0  0  0  0  0  0  0  0  0  0
    3.5054   -6.6704    6.9019 C   0  0  0  0  0  0  0  0  0  0  0  0
    5.0509   -6.6147    6.7729 C   0  0  0  0  0  0  0  0  0  0  0  0
    2.9534   -5.2313    6.9236 C   0  0  0  0  0  0  0  0  0  0  0  0
   -1.2463   -7.1624    2.5885 H   0  0  0  0  0  0  0  0  0  0  0  0
   -1.7058   -8.1407    3.9639 H   0  0  0  0  0  0  0  0  0  0  0  0
   -1.6077   -8.8493    2.3462 H   0  0  0  0  0  0  0  0  0  0  0  0
    2.8346   -9.1039    3.3275 H   0  0  0  0  0  0  0  0  0  0  0  0
    3.2130   -8.5255    1.1382 H   0  0  0  0  0  0  0  0  0  0  0  0
    3.1672   -6.8151    1.4394 H   0  0  0  0  0  0  0  0  0  0  0  0
    5.2272   -5.7625    1.1193 H   0  0  0  0  0  0  0  0  0  0  0  0
    8.8815   -7.6291    2.4088 H   0  0  0  0  0  0  0  0  0  0  0  0
    5.1546   -9.7097    2.8615 H   0  0  0  0  0  0  0  0  0  0  0  0
    4.4380   -7.9025    4.5674 H   0  0  0  0  0  0  0  0  0  0  0  0
    3.6513   -6.3844    4.2283 H   0  0  0  0  0  0  0  0  0  0  0  0
    1.7667   -7.1677    5.7370 H   0  0  0  0  0  0  0  0  0  0  0  0
    3.7772   -9.3062    6.5540 H   0  0  0  0  0  0  0  0  0  0  0  0
    2.7502   -9.4659    8.6315 H   0  0  0  0  0  0  0  0  0  0  0  0
    0.8177   -8.3916    9.4356 H   0  0  0  0  0  0  0  0  0  0  0  0
    0.6405   -7.3238    8.0874 H   0  0  0  0  0  0  0  0  0  0  0  0
    0.0839  -10.3187    8.0164 H   0  0  0  0  0  0  0  0  0  0  0  0
   -1.0961   -9.0565    8.2321 H   0  0  0  0  0  0  0  0  0  0  0  0
   -1.3232   -9.3229    6.0267 H   0  0  0  0  0  0  0  0  0  0  0  0
   -0.1738   -8.0330    5.9801 H   0  0  0  0  0  0  0  0  0  0  0  0
    0.2110  -10.9977    5.6591 H   0  0  0  0  0  0  0  0  0  0  0  0
   -0.6006  -10.3380    3.7440 H   0  0  0  0  0  0  0  0  0  0  0  0
    0.5172  -11.6430    2.5389 H   0  0  0  0  0  0  0  0  0  0  0  0
    1.7564  -10.5054    2.2263 H   0  0  0  0  0  0  0  0  0  0  0  0
    1.5058  -12.5749    4.4604 H   0  0  0  0  0  0  0  0  0  0  0  0
    2.8255  -12.3539    3.3276 H   0  0  0  0  0  0  0  0  0  0  0  0
    3.3669  -11.7290    5.6972 H   0  0  0  0  0  0  0  0  0  0  0  0
    3.7003  -10.4647    4.5719 H   0  0  0  0  0  0  0  0  0  0  0  0
    5.3769   -6.0856    5.8788 H   0  0  0  0  0  0  0  0  0  0  0  0
    5.5032   -7.6060    6.7568 H   0  0  0  0  0  0  0  0  0  0  0  0
    5.4999   -6.0828    7.6165 H   0  0  0  0  0  0  0  0  0  0  0  0
    3.1272   -4.7180    5.9789 H   0  0  0  0  0  0  0  0  0  0  0  0
    3.4328   -4.6338    7.7034 H   0  0  0  0  0  0  0  0  0  0  0  0
    1.8818   -5.2105    7.1221 H   0  0  0  0  0  0  0  0  0  0  0  0
    1.8626  -10.7644    6.6688 H   0  0  0  0  0  0  0  0  0  0  0  0
  1  2  1  0
  1 33  1  0
  1 34  1  0
  1 35  1  0
  2 23  1  0
  2  3  1  0
  3  4  2  0
  3  5  1  0
  5  6  1  0
  5 15  1  0
  5 36  1  1
  6  7  1  0
  6 37  1  0
  6 38  1  0
  7 14  1  0
  7  8  2  0
  8  9  1  0
  8 39  1  0
  9 10  1  0
  9 11  2  0
 11 12  1  0
 11 40  1  0
 12 13  1  0
 12 14  2  0
 14 41  1  0
 15 16  1  0
 15 42  1  0
 15 43  1  0
 16 30  1  0
 16 17  1  0
 16 44  1  6
 17 27  1  0
 17 18  1  0
 17 45  1  1
 18 19  1  0
 18 28  1  0
 18 46  1  1
 19 20  1  0
 19 47  1  0
 19 48  1  0
 20 21  1  0
 20 49  1  0
 20 50  1  0
 21 22  1  0
 21 51  1  0
 21 52  1  0
 22 27  1  0
 22 23  1  0
 22 53  1  1
 23 24  1  0
 23 54  1  1
 24 25  1  0
 24 55  1  0
 24 56  1  0
 25 26  1  0
 25 57  1  0
 25 58  1  0
 26 27  1  0
 26 59  1  0
 26 60  1  0
 27 67  1  1
 28 29  2  0
 28 30  1  0
 30 31  1  0
 30 32  1  0
 31 61  1  0
 31 62  1  0
 31 63  1  0
 32 64  1  0
 32 65  1  0
 32 66  1  0
M  CHG  1  27   1
M  END
>  <i_m_ct_stereo_status>  (448) 
1

>  <s_m_source_file>  (448) 
/var/tmp/pbs.5076255.sched01/tmpk5ywl0l3/150lwq6_0yz.sdf

>  <i_m_source_file_index>  (448) 
30

>  <i_lp_mmshare_version>  (448) 
48012

>  <i_f3d_flags>  (448) 
0

>  <s_epik_input>  (448) 
W0NIM11DMShbQ0gzXSlDKD1PKVtDQEhdKFtDQEBIXTJbQ0BASF0xMylbQ0gyXVtDSDJdW0NIMl1bQ0BIXTRbQ0BIXShbQ0gyXVtDSDJdW0NIMl1OMjQpTihbQ0gzXSlDKD1PKVtDQEhdKFtDSDJdMylbQ0gyXWM1W2NIXWMoRilbY0hdYyhGKVtjSF01

>  <s_epik_cmdline>  (448) 
J2VwaWtfcHl0aG9uJywgJy1waHQnLCAnMi4wJywgJy1waCcsICc3LjAnLCAnLXRuJywgJzgnLCAnLW1hJywgJzIwMCcsICctaW1hZScsICc8aW5maWxlLm1hZT4nLCAnLW9tYWUnLCAnPG91dGZpbGUubWFlPic=

>  <r_epik_Ionization_Penalty>  (448) 
0.0203334

>  <r_epik_Ionization_Penalty_Charging>  (448) 
0.0203334

>  <r_epik_Ionization_Penalty_Neutral>  (448) 
7.07203e-10

>  <r_epik_State_Penalty>  (448) 
0.0162916

>  <r_epik_Charging_Adjusted_Penalty>  (448) 
0.036625

>  <i_epik_Tot_Q>  (448) 
1

>  <i_epik_Tot_abs_Q>  (448) 
1

>  <s_lp_Force_Field>  (448) 
OPLS3e

>  <r_lp_Energy>  (448) 
73.726

>  <b_lp_Chiralities_Consistent>  (448) 
1

>  <s_lp_Variant>  (448) 
107:0-2

>  <s_i_glide_gridfile>  (448) 
pfpi4k_grid

>  <i_i_glide_lignum>  (448) 
30

>  <i_i_glide_rotatable_bonds>  (448) 
2

>  <r_i_docking_score>  (448) 
-3.2962

>  <r_i_glide_ligand_efficiency>  (448) 
-0.103006

>  <r_i_glide_ligand_efficiency_sa>  (448) 
-0.327024

>  <r_i_glide_ligand_efficiency_ln>  (448) 
-0.738109

>  <r_i_glide_gscore>  (448) 
-3.2962

>  <r_i_glide_lipo>  (448) 
-0.426441

>  <r_i_glide_hbond>  (448) 
-0.2

>  <r_i_glide_metal>  (448) 
-0

>  <r_i_glide_rewards>  (448) 
-0.526966

>  <r_i_glide_evdw>  (448) 
-22.9081

>  <r_i_glide_ecoul>  (448) 
-7.09482

>  <r_i_glide_erotb>  (448) 
0.201576

>  <r_i_glide_esite>  (448) 
-0.134739

>  <r_i_glide_emodel>  (448) 
-38.3003

>  <r_i_glide_energy>  (448) 
-30.0029

>  <r_i_glide_einternal>  (448) 
1.63259

>  <r_i_glide_intrahb_reward>  (448) 
-0

>  <i_i_glide_confnum>  (448) 
3

>  <i_i_glide_posenum>  (448) 
21

>  <r_i_glide_eff_state_penalty>  (448) 
0

>  <ligand_id>  (448) 
107

>  <original_smiles>  (448) 
CN1C(=O)C(Cc2cc(F)cc(F)c2)CC2C3C(CCCC4C1CCCN43)C(=O)C2(C)C

>  <smiles>  (448) 
[H]c1c(F)c([H])c(C([H])([H])C2([H])C(=O)N(C([H])([H])[H])C3([H])C([H])([H])C([H])([H])C([H])([H])[N+]4([H])C3([H])C([H])([H])C([H])([H])C([H])([H])C3([H])C(=O)C(C([H])([H])[H])(C([H])([H])[H])C([H])(C2([H])[H])C34[H])c([H])c1F

$$$$
107:1:2
     RDKit          3D

 67 71  0  0  1  0  0  0  0  0999 V2000
   -0.9748   -8.0411    2.9915 C   0  0  0  0  0  0  0  0  0  0  0  0
    0.3892   -8.5601    3.2255 N   0  0  0  0  0  0  0  0  0  0  0  0
    1.4440   -7.7179    3.0591 C   0  0  0  0  0  0  0  0  0  0  0  0
    1.2650   -6.5094    2.9141 O   0  0  0  0  0  0  0  0  0  0  0  0
    2.9108   -8.2270    3.0587 C   0  0  1  0  0  0  0  0  0  0  0  0
    3.6444   -8.0393    1.6973 C   0  0  0  0  0  0  0  0  0  0  0  0
    3.9357   -6.6016    1.2914 C   0  0  0  0  0  0  0  0  0  0  0  0
    5.1585   -5.9859    1.6494 C   0  0  0  0  0  0  0  0  0  0  0  0
    5.3945   -4.6304    1.3298 C   0  0  0  0  0  0  0  0  0  0  0  0
    6.5571   -4.0440    1.6812 F   0  0  0  0  0  0  0  0  0  0  0  0
    4.4045   -3.8831    0.6519 C   0  0  0  0  0  0  0  0  0  0  0  0
    3.1953   -4.4986    0.2765 C   0  0  0  0  0  0  0  0  0  0  0  0
    2.2308   -3.7825   -0.3502 F   0  0  0  0  0  0  0  0  0  0  0  0
    2.9749   -5.8545    0.5754 C   0  0  0  0  0  0  0  0  0  0  0  0
    3.7383   -7.6949    4.2514 C   0  0  0  0  0  0  0  0  0  0  0  0
    3.0854   -7.7191    5.6549 C   0  0  1  0  0  0  0  0  0  0  0  0
    2.9334   -9.0960    6.3732 C   0  0  1  0  0  0  0  0  0  0  0  0
    2.6294   -8.7454    7.8507 C   0  0  2  0  0  0  0  0  0  0  0  0
    1.2043   -8.2814    8.2428 C   0  0  0  0  0  0  0  0  0  0  0  0
    0.0574   -9.1376    7.7167 C   0  0  0  0  0  0  0  0  0  0  0  0
   -0.1238   -8.9515    6.2041 C   0  0  0  0  0  0  0  0  0  0  0  0
    0.6759   -9.9645    5.3672 C   0  0  1  0  0  0  0  0  0  0  0  0
    0.4065   -9.9135    3.8263 C   0  0  2  0  0  0  0  0  0  0  0  0
    1.1217  -11.0095    3.0112 C   0  0  0  0  0  0  0  0  0  0  0  0
    1.9887  -11.9077    3.9092 C   0  0  0  0  0  0  0  0  0  0  0  0
    2.8490  -11.1646    4.9439 C   0  0  0  0  0  0  0  0  0  0  0  0
    2.0850  -10.2019    5.7880 N   0  0  1  0  0  0  0  0  0  0  0  0
    3.5291   -7.5363    8.0097 C   0  0  0  0  0  0  0  0  0  0  0  0
    3.9115   -7.1264    9.1175 O   0  0  0  0  0  0  0  0  0  0  0  0
    3.8993   -6.8658    6.6876 C   0  0  0  0  0  0  0  0  0  0  0  0
    5.4395   -6.9398    6.5249 C   0  0  0  0  0  0  0  0  0  0  0  0
    3.4727   -5.3798    6.6935 C   0  0  0  0  0  0  0  0  0  0  0  0
   -1.0153   -7.0601    2.5159 H   0  0  0  0  0  0  0  0  0  0  0  0
   -1.5129   -7.9417    3.9354 H   0  0  0  0  0  0  0  0  0  0  0  0
   -1.5308   -8.7024    2.3261 H   0  0  0  0  0  0  0  0  0  0  0  0
    2.9095   -9.2872    3.1760 H   0  0  0  0  0  0  0  0  0  0  0  0
    4.5885   -8.5878    1.7330 H   0  0  0  0  0  0  0  0  0  0  0  0
    3.0768   -8.5261    0.9017 H   0  0  0  0  0  0  0  0  0  0  0  0
    5.9008   -6.5409    2.2011 H   0  0  0  0  0  0  0  0  0  0  0  0
    4.5630   -2.8402    0.4283 H   0  0  0  0  0  0  0  0  0  0  0  0
    2.0383   -6.3045    0.2916 H   0  0  0  0  0  0  0  0  0  0  0  0
    4.6838   -8.2373    4.2751 H   0  0  0  0  0  0  0  0  0  0  0  0
    3.9964   -6.6555    4.0415 H   0  0  0  0  0  0  0  0  0  0  0  0
    2.1159   -7.2376    5.5856 H   0  0  0  0  0  0  0  0  0  0  0  0
    3.9369   -9.5187    6.4104 H   0  0  0  0  0  0  0  0  0  0  0  0
    2.9531   -9.5416    8.5147 H   0  0  0  0  0  0  0  0  0  0  0  0
    1.1428   -8.2833    9.3365 H   0  0  0  0  0  0  0  0  0  0  0  0
    1.0193   -7.2383    7.9691 H   0  0  0  0  0  0  0  0  0  0  0  0
    0.1980  -10.1827    7.9911 H   0  0  0  0  0  0  0  0  0  0  0  0
   -0.8609   -8.8135    8.2111 H   0  0  0  0  0  0  0  0  0  0  0  0
   -1.1681   -9.1066    5.9731 H   0  0  0  0  0  0  0  0  0  0  0  0
    0.0864   -7.9269    5.9096 H   0  0  0  0  0  0  0  0  0  0  0  0
    0.2235  -10.9150    5.6567 H   0  0  0  0  0  0  0  0  0  0  0  0
   -0.6148  -10.2569    3.7632 H   0  0  0  0  0  0  0  0  0  0  0  0
    0.3733  -11.6496    2.5282 H   0  0  0  0  0  0  0  0  0  0  0  0
    1.6877  -10.6099    2.1680 H   0  0  0  0  0  0  0  0  0  0  0  0
    1.3363  -12.6009    4.4471 H   0  0  0  0  0  0  0  0  0  0  0  0
    2.6421  -12.5032    3.2809 H   0  0  0  0  0  0  0  0  0  0  0  0
    3.2865  -11.9000    5.6135 H   0  0  0  0  0  0  0  0  0  0  0  0
    3.6980  -10.6947    4.4538 H   0  0  0  0  0  0  0  0  0  0  0  0
    5.7839   -6.4584    5.6101 H   0  0  0  0  0  0  0  0  0  0  0  0
    5.8028   -7.9663    6.5228 H   0  0  0  0  0  0  0  0  0  0  0  0
    5.9541   -6.4293    7.3456 H   0  0  0  0  0  0  0  0  0  0  0  0
    3.6641   -4.9005    5.7336 H   0  0  0  0  0  0  0  0  0  0  0  0
    4.0224   -4.8064    7.4482 H   0  0  0  0  0  0  0  0  0  0  0  0
    2.4137   -5.2601    6.9217 H   0  0  0  0  0  0  0  0  0  0  0  0
    1.9065  -10.7985    6.6122 H   0  0  0  0  0  0  0  0  0  0  0  0
  1  2  1  0
  1 33  1  0
  1 34  1  0
  1 35  1  0
  2 23  1  0
  2  3  1  0
  3  4  2  0
  3  5  1  0
  5  6  1  0
  5 15  1  0
  5 36  1  1
  6  7  1  0
  6 37  1  0
  6 38  1  0
  7 14  1  0
  7  8  2  0
  8  9  1  0
  8 39  1  0
  9 10  1  0
  9 11  2  0
 11 12  1  0
 11 40  1  0
 12 13  1  0
 12 14  2  0
 14 41  1  0
 15 16  1  0
 15 42  1  0
 15 43  1  0
 16 30  1  0
 16 17  1  0
 16 44  1  6
 17 27  1  0
 17 18  1  0
 17 45  1  1
 18 19  1  0
 18 28  1  0
 18 46  1  1
 19 20  1  0
 19 47  1  0
 19 48  1  0
 20 21  1  0
 20 49  1  0
 20 50  1  0
 21 22  1  0
 21 51  1  0
 21 52  1  0
 22 27  1  0
 22 23  1  0
 22 53  1  1
 23 24  1  0
 23 54  1  1
 24 25  1  0
 24 55  1  0
 24 56  1  0
 25 26  1  0
 25 57  1  0
 25 58  1  0
 26 27  1  0
 26 59  1  0
 26 60  1  0
 27 67  1  1
 28 29  2  0
 28 30  1  0
 30 31  1  0
 30 32  1  0
 31 61  1  0
 31 62  1  0
 31 63  1  0
 32 64  1  0
 32 65  1  0
 32 66  1  0
M  CHG  1  27   1
M  END
>  <i_m_ct_stereo_status>  (449) 
1

>  <s_m_source_file>  (449) 
/var/tmp/pbs.5076255.sched01/tmpk5ywl0l3/150lwq6_0yz.sdf

>  <i_m_source_file_index>  (449) 
30

>  <i_lp_mmshare_version>  (449) 
48012

>  <i_f3d_flags>  (449) 
0

>  <s_epik_input>  (449) 
W0NIM11DMShbQ0gzXSlDKD1PKVtDQEhdKFtDQEBIXTJbQ0BASF0xMylbQ0gyXVtDSDJdW0NIMl1bQ0BIXTRbQ0BIXShbQ0gyXVtDSDJdW0NIMl1OMjQpTihbQ0gzXSlDKD1PKVtDQEhdKFtDSDJdMylbQ0gyXWM1W2NIXWMoRilbY0hdYyhGKVtjSF01

>  <s_epik_cmdline>  (449) 
J2VwaWtfcHl0aG9uJywgJy1waHQnLCAnMi4wJywgJy1waCcsICc3LjAnLCAnLXRuJywgJzgnLCAnLW1hJywgJzIwMCcsICctaW1hZScsICc8aW5maWxlLm1hZT4nLCAnLW9tYWUnLCAnPG91dGZpbGUubWFlPic=

>  <r_epik_Ionization_Penalty>  (449) 
0.0203334

>  <r_epik_Ionization_Penalty_Charging>  (449) 
0.0203334

>  <r_epik_Ionization_Penalty_Neutral>  (449) 
7.07203e-10

>  <r_epik_State_Penalty>  (449) 
0.0162916

>  <r_epik_Charging_Adjusted_Penalty>  (449) 
0.036625

>  <i_epik_Tot_Q>  (449) 
1

>  <i_epik_Tot_abs_Q>  (449) 
1

>  <s_lp_Force_Field>  (449) 
OPLS3e

>  <r_lp_Energy>  (449) 
73.726

>  <b_lp_Chiralities_Consistent>  (449) 
1

>  <s_lp_Variant>  (449) 
107:0-2

>  <s_i_glide_gridfile>  (449) 
pfpi4k_grid

>  <i_i_glide_lignum>  (449) 
30

>  <i_i_glide_rotatable_bonds>  (449) 
2

>  <r_i_docking_score>  (449) 
-2.97357

>  <r_i_glide_ligand_efficiency>  (449) 
-0.0929241

>  <r_i_glide_ligand_efficiency_sa>  (449) 
-0.295016

>  <r_i_glide_ligand_efficiency_ln>  (449) 
-0.665863

>  <r_i_glide_gscore>  (449) 
-2.97357

>  <r_i_glide_lipo>  (449) 
-0.375168

>  <r_i_glide_hbond>  (449) 
-0.2

>  <r_i_glide_metal>  (449) 
-0

>  <r_i_glide_rewards>  (449) 
-0.456922

>  <r_i_glide_evdw>  (449) 
-22.9282

>  <r_i_glide_ecoul>  (449) 
-5.37943

>  <r_i_glide_erotb>  (449) 
0.201576

>  <r_i_glide_esite>  (449) 
-0.189734

>  <r_i_glide_emodel>  (449) 
-34.4432

>  <r_i_glide_energy>  (449) 
-28.3076

>  <r_i_glide_einternal>  (449) 
4.01597

>  <r_i_glide_intrahb_reward>  (449) 
-0

>  <i_i_glide_confnum>  (449) 
6

>  <i_i_glide_posenum>  (449) 
2

>  <r_i_glide_eff_state_penalty>  (449) 
0

>  <ligand_id>  (449) 
107

>  <original_smiles>  (449) 
CN1C(=O)C(Cc2cc(F)cc(F)c2)CC2C3C(CCCC4C1CCCN43)C(=O)C2(C)C

>  <smiles>  (449) 
[H]c1c(F)c([H])c(C([H])([H])C2([H])C(=O)N(C([H])([H])[H])C3([H])C([H])([H])C([H])([H])C([H])([H])[N+]4([H])C3([H])C([H])([H])C([H])([H])C([H])([H])C3([H])C(=O)C(C([H])([H])[H])(C([H])([H])[H])C([H])(C2([H])[H])C34[H])c([H])c1F

$$$$
107:2:0
     RDKit          3D

 66 70  0  0  1  0  0  0  0  0999 V2000
   -0.7218   -8.1060    2.0087 C   0  0  0  0  0  0  0  0  0  0  0  0
    0.5996   -7.6699    2.5008 N   0  0  0  0  0  0  0  0  0  0  0  0
    1.3310   -6.7844    1.7586 C   0  0  0  0  0  0  0  0  0  0  0  0
    0.8540   -6.2569    0.7533 O   0  0  0  0  0  0  0  0  0  0  0  0
    2.7922   -6.4159    2.1083 C   0  0  1  0  0  0  0  0  0  0  0  0
    3.7427   -6.7122    0.9178 C   0  0  0  0  0  0  0  0  0  0  0  0
    5.2218   -6.6273    1.2766 C   0  0  0  0  0  0  0  0  0  0  0  0
    5.8534   -7.7022    1.9336 C   0  0  0  0  0  0  0  0  0  0  0  0
    7.2187   -7.6286    2.2636 C   0  0  0  0  0  0  0  0  0  0  0  0
    7.8146   -8.6610    2.9048 F   0  0  0  0  0  0  0  0  0  0  0  0
    7.9628   -6.4824    1.9317 C   0  0  0  0  0  0  0  0  0  0  0  0
    7.3407   -5.4068    1.2757 C   0  0  0  0  0  0  0  0  0  0  0  0
    8.0582   -4.3024    0.9522 F   0  0  0  0  0  0  0  0  0  0  0  0
    5.9734   -5.4795    0.9490 C   0  0  0  0  0  0  0  0  0  0  0  0
    2.9497   -4.9469    2.5658 C   0  0  0  0  0  0  0  0  0  0  0  0
    2.0286   -4.4298    3.6999 C   0  0  1  0  0  0  0  0  0  0  0  0
    2.2253   -5.0608    5.1002 C   0  0  1  0  0  0  0  0  0  0  0  0
    1.4814   -4.1269    6.0797 C   0  0  2  0  0  0  0  0  0  0  0  0
   -0.0670   -4.1631    6.1236 C   0  0  0  0  0  0  0  0  0  0  0  0
   -0.7082   -5.5376    6.2952 C   0  0  0  0  0  0  0  0  0  0  0  0
   -0.5439   -6.4100    5.0443 C   0  0  0  0  0  0  0  0  0  0  0  0
    0.7599   -7.2216    5.0292 C   0  0  1  0  0  0  0  0  0  0  0  0
    0.9045   -8.2204    3.8475 C   0  0  2  0  0  0  0  0  0  0  0  0
    2.1577   -9.1284    3.9532 C   0  0  0  0  0  0  0  0  0  0  0  0
    2.9767   -8.8328    5.2269 C   0  0  0  0  0  0  0  0  0  0  0  0
    3.2150   -7.3236    5.4770 C   0  0  0  0  0  0  0  0  0  0  0  0
    2.0103   -6.5038    5.2934 N   0  0  0  0  0  0  0  0  0  0  0  0
    1.8656   -2.7873    5.4721 C   0  0  0  0  0  0  0  0  0  0  0  0
    1.8711   -1.7335    6.1065 O   0  0  0  0  0  0  0  0  0  0  0  0
    2.1988   -2.8989    3.9756 C   0  0  0  0  0  0  0  0  0  0  0  0
    3.6323   -2.3552    3.7609 C   0  0  0  0  0  0  0  0  0  0  0  0
    1.2129   -2.0553    3.1446 C   0  0  0  0  0  0  0  0  0  0  0  0
   -0.9669   -7.7946    0.9922 H   0  0  0  0  0  0  0  0  0  0  0  0
   -1.5137   -7.7349    2.6607 H   0  0  0  0  0  0  0  0  0  0  0  0
   -0.7822   -9.1962    2.0056 H   0  0  0  0  0  0  0  0  0  0  0  0
    3.1284   -7.0378    2.9127 H   0  0  0  0  0  0  0  0  0  0  0  0
    3.5626   -7.7104    0.5260 H   0  0  0  0  0  0  0  0  0  0  0  0
    3.5336   -6.0314    0.0915 H   0  0  0  0  0  0  0  0  0  0  0  0
    5.2955   -8.5914    2.1905 H   0  0  0  0  0  0  0  0  0  0  0  0
    9.0140   -6.4341    2.1806 H   0  0  0  0  0  0  0  0  0  0  0  0
    5.5030   -4.6489    0.4449 H   0  0  0  0  0  0  0  0  0  0  0  0
    3.9833   -4.8055    2.8820 H   0  0  0  0  0  0  0  0  0  0  0  0
    2.8103   -4.3037    1.6950 H   0  0  0  0  0  0  0  0  0  0  0  0
    0.9952   -4.5858    3.3959 H   0  0  0  0  0  0  0  0  0  0  0  0
    3.2816   -4.9170    5.3432 H   0  0  0  0  0  0  0  0  0  0  0  0
    1.8890   -4.2133    7.0881 H   0  0  0  0  0  0  0  0  0  0  0  0
   -0.3941   -3.5386    6.9553 H   0  0  0  0  0  0  0  0  0  0  0  0
   -0.4983   -3.6922    5.2397 H   0  0  0  0  0  0  0  0  0  0  0  0
   -0.3287   -6.0389    7.1875 H   0  0  0  0  0  0  0  0  0  0  0  0
   -1.7747   -5.3913    6.4752 H   0  0  0  0  0  0  0  0  0  0  0  0
   -1.3578   -7.1342    5.0472 H   0  0  0  0  0  0  0  0  0  0  0  0
   -0.6825   -5.8363    4.1310 H   0  0  0  0  0  0  0  0  0  0  0  0
    0.6604   -7.8557    5.9123 H   0  0  0  0  0  0  0  0  0  0  0  0
    0.0962   -8.9213    4.0718 H   0  0  0  0  0  0  0  0  0  0  0  0
    1.8379  -10.1707    3.9954 H   0  0  0  0  0  0  0  0  0  0  0  0
    2.7879   -9.0879    3.0676 H   0  0  0  0  0  0  0  0  0  0  0  0
    2.4624   -9.2602    6.0896 H   0  0  0  0  0  0  0  0  0  0  0  0
    3.9368   -9.3428    5.1752 H   0  0  0  0  0  0  0  0  0  0  0  0
    3.5864   -7.1746    6.4918 H   0  0  0  0  0  0  0  0  0  0  0  0
    4.0055   -6.9587    4.8212 H   0  0  0  0  0  0  0  0  0  0  0  0
    3.9311   -2.3900    2.7125 H   0  0  0  0  0  0  0  0  0  0  0  0
    4.3693   -2.9155    4.3364 H   0  0  0  0  0  0  0  0  0  0  0  0
    3.7152   -1.3116    4.0690 H   0  0  0  0  0  0  0  0  0  0  0  0
    1.3969   -2.1652    2.0743 H   0  0  0  0  0  0  0  0  0  0  0  0
    1.2946   -0.9922    3.3792 H   0  0  0  0  0  0  0  0  0  0  0  0
    0.1805   -2.3454    3.3350 H   0  0  0  0  0  0  0  0  0  0  0  0
  1  2  1  0
  1 33  1  0
  1 34  1  0
  1 35  1  0
  2 23  1  0
  2  3  1  0
  3  4  2  0
  3  5  1  0
  5  6  1  0
  5 15  1  0
  5 36  1  1
  6  7  1  0
  6 37  1  0
  6 38  1  0
  7 14  1  0
  7  8  2  0
  8  9  1  0
  8 39  1  0
  9 10  1  0
  9 11  2  0
 11 12  1  0
 11 40  1  0
 12 13  1  0
 12 14  2  0
 14 41  1  0
 15 16  1  0
 15 42  1  0
 15 43  1  0
 16 30  1  0
 16 17  1  0
 16 44  1  6
 17 27  1  0
 17 18  1  0
 17 45  1  1
 18 19  1  0
 18 28  1  0
 18 46  1  1
 19 20  1  0
 19 47  1  0
 19 48  1  0
 20 21  1  0
 20 49  1  0
 20 50  1  0
 21 22  1  0
 21 51  1  0
 21 52  1  0
 22 27  1  0
 22 23  1  0
 22 53  1  1
 23 24  1  0
 23 54  1  1
 24 25  1  0
 24 55  1  0
 24 56  1  0
 25 26  1  0
 25 57  1  0
 25 58  1  0
 26 27  1  0
 26 59  1  0
 26 60  1  0
 28 29  2  0
 28 30  1  0
 30 31  1  0
 30 32  1  0
 31 61  1  0
 31 62  1  0
 31 63  1  0
 32 64  1  0
 32 65  1  0
 32 66  1  0
M  END
>  <i_m_ct_stereo_status>  (450) 
1

>  <s_m_source_file>  (450) 
/var/tmp/pbs.5076255.sched01/tmpk5ywl0l3/150lwq6_0yz.sdf

>  <i_m_source_file_index>  (450) 
31

>  <i_lp_mmshare_version>  (450) 
48012

>  <i_f3d_flags>  (450) 
0

>  <s_epik_input>  (450) 
W0NIM11DMShbQ0gzXSlDKD1PKVtDQEhdKFtDQEBIXTJbQ0BASF0xMylbQ0gyXVtDSDJdW0NIMl1bQ0BIXTRbQ0BIXShbQ0gyXVtDSDJdW0NIMl1OMjQpTihbQ0gzXSlDKD1PKVtDQEhdKFtDSDJdMylbQ0gyXWM1W2NIXWMoRilbY0hdYyhGKVtjSF01

>  <s_epik_cmdline>  (450) 
J2VwaWtfcHl0aG9uJywgJy1waHQnLCAnMi4wJywgJy1waCcsICc3LjAnLCAnLXRuJywgJzgnLCAnLW1hJywgJzIwMCcsICctaW1hZScsICc8aW5maWxlLm1hZT4nLCAnLW9tYWUnLCAnPG91dGZpbGUubWFlPic=

>  <r_epik_Ionization_Penalty>  (450) 
2.00804

>  <r_epik_Ionization_Penalty_Charging>  (450) 
0

>  <r_epik_Ionization_Penalty_Neutral>  (450) 
2.00804

>  <r_epik_State_Penalty>  (450) 
2.13733

>  <r_epik_Charging_Adjusted_Penalty>  (450) 
2.13733

>  <i_epik_Tot_Q>  (450) 
0

>  <i_epik_Tot_abs_Q>  (450) 
0

>  <s_lp_Force_Field>  (450) 
OPLS3e

>  <r_lp_Energy>  (450) 
62.5014

>  <b_lp_Chiralities_Consistent>  (450) 
1

>  <s_lp_Variant>  (450) 
107:0-3

>  <s_i_glide_gridfile>  (450) 
pfpi4k_grid

>  <i_i_glide_lignum>  (450) 
31

>  <i_i_glide_rotatable_bonds>  (450) 
2

>  <r_i_docking_score>  (450) 
-3.21051

>  <r_i_glide_ligand_efficiency>  (450) 
-0.100328

>  <r_i_glide_ligand_efficiency_sa>  (450) 
-0.318522

>  <r_i_glide_ligand_efficiency_ln>  (450) 
-0.71892

>  <r_i_glide_gscore>  (450) 
-3.21051

>  <r_i_glide_lipo>  (450) 
-0.535551

>  <r_i_glide_hbond>  (450) 
-0.16

>  <r_i_glide_metal>  (450) 
-0

>  <r_i_glide_rewards>  (450) 
-0.582416

>  <r_i_glide_evdw>  (450) 
-25.3625

>  <r_i_glide_ecoul>  (450) 
-5.12866

>  <r_i_glide_erotb>  (450) 
0.202407

>  <r_i_glide_esite>  (450) 
-0.0975231

>  <r_i_glide_emodel>  (450) 
-36.3014

>  <r_i_glide_energy>  (450) 
-30.4911

>  <r_i_glide_einternal>  (450) 
1.01742

>  <r_i_glide_intrahb_reward>  (450) 
-0

>  <i_i_glide_confnum>  (450) 
2

>  <i_i_glide_posenum>  (450) 
9

>  <r_i_glide_eff_state_penalty>  (450) 
0

>  <ligand_id>  (450) 
107

>  <original_smiles>  (450) 
CN1C(=O)C(Cc2cc(F)cc(F)c2)CC2C3C(CCCC4C1CCCN43)C(=O)C2(C)C

>  <smiles>  (450) 
[H]c1c(F)c([H])c(C([H])([H])C2([H])C(=O)N(C([H])([H])[H])C3([H])C([H])([H])C([H])([H])C([H])([H])N4C3([H])C([H])([H])C([H])([H])C([H])([H])C3([H])C(=O)C(C([H])([H])[H])(C([H])([H])[H])C([H])(C2([H])[H])C43[H])c([H])c1F

$$$$
107:2:1
     RDKit          3D

 66 70  0  0  1  0  0  0  0  0999 V2000
   -0.2899   -7.8969    1.8589 C   0  0  0  0  0  0  0  0  0  0  0  0
    0.9826   -7.3190    2.3287 N   0  0  0  0  0  0  0  0  0  0  0  0
    1.5787   -6.3378    1.5884 C   0  0  0  0  0  0  0  0  0  0  0  0
    1.0142   -5.8579    0.5993 O   0  0  0  0  0  0  0  0  0  0  0  0
    2.9868   -5.7851    1.9081 C   0  0  1  0  0  0  0  0  0  0  0  0
    3.9432   -5.9372    0.6812 C   0  0  0  0  0  0  0  0  0  0  0  0
    4.4750   -4.6309    0.1006 C   0  0  0  0  0  0  0  0  0  0  0  0
    3.6598   -3.8585   -0.7556 C   0  0  0  0  0  0  0  0  0  0  0  0
    4.1139   -2.6278   -1.2594 C   0  0  0  0  0  0  0  0  0  0  0  0
    3.3283   -1.8978   -2.0851 F   0  0  0  0  0  0  0  0  0  0  0  0
    5.3834   -2.1484   -0.8967 C   0  0  0  0  0  0  0  0  0  0  0  0
    6.2050   -2.9087   -0.0441 C   0  0  0  0  0  0  0  0  0  0  0  0
    7.4239   -2.4368    0.3075 F   0  0  0  0  0  0  0  0  0  0  0  0
    5.7534   -4.1454    0.4574 C   0  0  0  0  0  0  0  0  0  0  0  0
    2.9639   -4.3308    2.4549 C   0  0  0  0  0  0  0  0  0  0  0  0
    2.0272   -3.9733    3.6238 C   0  0  1  0  0  0  0  0  0  0  0  0
    2.3506   -4.6152    4.9891 C   0  0  1  0  0  0  0  0  0  0  0  0
    1.5257   -3.8096    6.0146 C   0  0  2  0  0  0  0  0  0  0  0  0
   -0.0029   -4.0428    6.0927 C   0  0  0  0  0  0  0  0  0  0  0  0
   -0.4654   -5.4917    6.2328 C   0  0  0  0  0  0  0  0  0  0  0  0
   -0.2319   -6.3002    4.9508 C   0  0  0  0  0  0  0  0  0  0  0  0
    1.1654   -6.9368    4.8668 C   0  0  1  0  0  0  0  0  0  0  0  0
    1.3967   -7.8702    3.6492 C   0  0  2  0  0  0  0  0  0  0  0  0
    2.7550   -8.6179    3.6869 C   0  0  0  0  0  0  0  0  0  0  0  0
    3.5717   -8.2659    4.9482 C   0  0  0  0  0  0  0  0  0  0  0  0
    3.6293   -6.7480    5.2478 C   0  0  0  0  0  0  0  0  0  0  0  0
    2.3246   -6.0796    5.1297 N   0  0  0  0  0  0  0  0  0  0  0  0
    1.7242   -2.4110    5.4444 C   0  0  0  0  0  0  0  0  0  0  0  0
    1.6239   -1.3839    6.1131 O   0  0  0  0  0  0  0  0  0  0  0  0
    2.0214   -2.4372    3.9404 C   0  0  0  0  0  0  0  0  0  0  0  0
    3.3708   -1.7126    3.6989 C   0  0  0  0  0  0  0  0  0  0  0  0
    0.9134   -1.6985    3.1620 C   0  0  0  0  0  0  0  0  0  0  0  0
   -0.6045   -7.5812    0.8616 H   0  0  0  0  0  0  0  0  0  0  0  0
   -1.1016   -7.6535    2.5451 H   0  0  0  0  0  0  0  0  0  0  0  0
   -0.2175   -8.9844    1.8143 H   0  0  0  0  0  0  0  0  0  0  0  0
    3.4274   -6.3797    2.6834 H   0  0  0  0  0  0  0  0  0  0  0  0
    4.7922   -6.5549    0.9709 H   0  0  0  0  0  0  0  0  0  0  0  0
    3.4781   -6.4947   -0.1330 H   0  0  0  0  0  0  0  0  0  0  0  0
    2.6770   -4.2149   -1.0222 H   0  0  0  0  0  0  0  0  0  0  0  0
    5.7173   -1.1996   -1.2745 H   0  0  0  0  0  0  0  0  0  0  0  0
    6.3772   -4.7086    1.1343 H   0  0  0  0  0  0  0  0  0  0  0  0
    3.9836   -4.0700    2.7402 H   0  0  0  0  0  0  0  0  0  0  0  0
    2.6618   -3.6511    1.6617 H   0  0  0  0  0  0  0  0  0  0  0  0
    1.0122   -4.2481    3.3373 H   0  0  0  0  0  0  0  0  0  0  0  0
    3.3900   -4.3441    5.1998 H   0  0  0  0  0  0  0  0  0  0  0  0
    1.9730   -3.8780    7.0057 H   0  0  0  0  0  0  0  0  0  0  0  0
   -0.3794   -3.4939    6.9542 H   0  0  0  0  0  0  0  0  0  0  0  0
   -0.5179   -3.6035    5.2373 H   0  0  0  0  0  0  0  0  0  0  0  0
   -0.0040   -5.9730    7.0952 H   0  0  0  0  0  0  0  0  0  0  0  0
   -1.5375   -5.4753    6.4351 H   0  0  0  0  0  0  0  0  0  0  0  0
   -0.9468   -7.1227    4.9529 H   0  0  0  0  0  0  0  0  0  0  0  0
   -0.4769   -5.7105    4.0700 H   0  0  0  0  0  0  0  0  0  0  0  0
    1.1752   -7.6063    5.7281 H   0  0  0  0  0  0  0  0  0  0  0  0
    0.6886   -8.6737    3.8623 H   0  0  0  0  0  0  0  0  0  0  0  0
    2.5680   -9.6914    3.7003 H   0  0  0  0  0  0  0  0  0  0  0  0
    3.3475   -8.4686    2.7880 H   0  0  0  0  0  0  0  0  0  0  0  0
    3.1467   -8.7824    5.8106 H   0  0  0  0  0  0  0  0  0  0  0  0
    4.5869   -8.6493    4.8499 H   0  0  0  0  0  0  0  0  0  0  0  0
    4.0125   -6.5855    6.2561 H   0  0  0  0  0  0  0  0  0  0  0  0
    4.3476   -6.2691    4.5813 H   0  0  0  0  0  0  0  0  0  0  0  0
    3.6380   -1.6757    2.6409 H   0  0  0  0  0  0  0  0  0  0  0  0
    4.1906   -2.1914    4.2310 H   0  0  0  0  0  0  0  0  0  0  0  0
    3.3344   -0.6759    4.0379 H   0  0  0  0  0  0  0  0  0  0  0  0
    1.0716   -1.7524    2.0823 H   0  0  0  0  0  0  0  0  0  0  0  0
    0.8718   -0.6400    3.4271 H   0  0  0  0  0  0  0  0  0  0  0  0
   -0.0666   -2.1202    3.3748 H   0  0  0  0  0  0  0  0  0  0  0  0
  1  2  1  0
  1 33  1  0
  1 34  1  0
  1 35  1  0
  2 23  1  0
  2  3  1  0
  3  4  2  0
  3  5  1  0
  5  6  1  0
  5 15  1  0
  5 36  1  1
  6  7  1  0
  6 37  1  0
  6 38  1  0
  7 14  1  0
  7  8  2  0
  8  9  1  0
  8 39  1  0
  9 10  1  0
  9 11  2  0
 11 12  1  0
 11 40  1  0
 12 13  1  0
 12 14  2  0
 14 41  1  0
 15 16  1  0
 15 42  1  0
 15 43  1  0
 16 30  1  0
 16 17  1  0
 16 44  1  6
 17 27  1  0
 17 18  1  0
 17 45  1  1
 18 19  1  0
 18 28  1  0
 18 46  1  1
 19 20  1  0
 19 47  1  0
 19 48  1  0
 20 21  1  0
 20 49  1  0
 20 50  1  0
 21 22  1  0
 21 51  1  0
 21 52  1  0
 22 27  1  0
 22 23  1  0
 22 53  1  1
 23 24  1  0
 23 54  1  1
 24 25  1  0
 24 55  1  0
 24 56  1  0
 25 26  1  0
 25 57  1  0
 25 58  1  0
 26 27  1  0
 26 59  1  0
 26 60  1  0
 28 29  2  0
 28 30  1  0
 30 31  1  0
 30 32  1  0
 31 61  1  0
 31 62  1  0
 31 63  1  0
 32 64  1  0
 32 65  1  0
 32 66  1  0
M  END
>  <i_m_ct_stereo_status>  (451) 
1

>  <s_m_source_file>  (451) 
/var/tmp/pbs.5076255.sched01/tmpk5ywl0l3/150lwq6_0yz.sdf

>  <i_m_source_file_index>  (451) 
31

>  <i_lp_mmshare_version>  (451) 
48012

>  <i_f3d_flags>  (451) 
0

>  <s_epik_input>  (451) 
W0NIM11DMShbQ0gzXSlDKD1PKVtDQEhdKFtDQEBIXTJbQ0BASF0xMylbQ0gyXVtDSDJdW0NIMl1bQ0BIXTRbQ0BIXShbQ0gyXVtDSDJdW0NIMl1OMjQpTihbQ0gzXSlDKD1PKVtDQEhdKFtDSDJdMylbQ0gyXWM1W2NIXWMoRilbY0hdYyhGKVtjSF01

>  <s_epik_cmdline>  (451) 
J2VwaWtfcHl0aG9uJywgJy1waHQnLCAnMi4wJywgJy1waCcsICc3LjAnLCAnLXRuJywgJzgnLCAnLW1hJywgJzIwMCcsICctaW1hZScsICc8aW5maWxlLm1hZT4nLCAnLW9tYWUnLCAnPG91dGZpbGUubWFlPic=

>  <r_epik_Ionization_Penalty>  (451) 
2.00804

>  <r_epik_Ionization_Penalty_Charging>  (451) 
0

>  <r_epik_Ionization_Penalty_Neutral>  (451) 
2.00804

>  <r_epik_State_Penalty>  (451) 
2.13733

>  <r_epik_Charging_Adjusted_Penalty>  (451) 
2.13733

>  <i_epik_Tot_Q>  (451) 
0

>  <i_epik_Tot_abs_Q>  (451) 
0

>  <s_lp_Force_Field>  (451) 
OPLS3e

>  <r_lp_Energy>  (451) 
62.5014

>  <b_lp_Chiralities_Consistent>  (451) 
1

>  <s_lp_Variant>  (451) 
107:0-3

>  <s_i_glide_gridfile>  (451) 
pfpi4k_grid

>  <i_i_glide_lignum>  (451) 
31

>  <i_i_glide_rotatable_bonds>  (451) 
2

>  <r_i_docking_score>  (451) 
-2.9094

>  <r_i_glide_ligand_efficiency>  (451) 
-0.0909188

>  <r_i_glide_ligand_efficiency_sa>  (451) 
-0.288649

>  <r_i_glide_ligand_efficiency_ln>  (451) 
-0.651495

>  <r_i_glide_gscore>  (451) 
-2.9094

>  <r_i_glide_lipo>  (451) 
-0.247392

>  <r_i_glide_hbond>  (451) 
-0.16

>  <r_i_glide_metal>  (451) 
-0

>  <r_i_glide_rewards>  (451) 
-0.574471

>  <r_i_glide_evdw>  (451) 
-23.6366

>  <r_i_glide_ecoul>  (451) 
-5.30401

>  <r_i_glide_erotb>  (451) 
0.202407

>  <r_i_glide_esite>  (451) 
-0.152517

>  <r_i_glide_emodel>  (451) 
-32.4277

>  <r_i_glide_energy>  (451) 
-28.9406

>  <r_i_glide_einternal>  (451) 
4.2258

>  <r_i_glide_intrahb_reward>  (451) 
-0

>  <i_i_glide_confnum>  (451) 
2

>  <i_i_glide_posenum>  (451) 
1

>  <r_i_glide_eff_state_penalty>  (451) 
0

>  <ligand_id>  (451) 
107

>  <original_smiles>  (451) 
CN1C(=O)C(Cc2cc(F)cc(F)c2)CC2C3C(CCCC4C1CCCN43)C(=O)C2(C)C

>  <smiles>  (451) 
[H]c1c(F)c([H])c(C([H])([H])C2([H])C(=O)N(C([H])([H])[H])C3([H])C([H])([H])C([H])([H])C([H])([H])N4C3([H])C([H])([H])C([H])([H])C([H])([H])C3([H])C(=O)C(C([H])([H])[H])(C([H])([H])[H])C([H])(C2([H])[H])C43[H])c([H])c1F

$$$$
107:2:2
     RDKit          3D

 66 70  0  0  1  0  0  0  0  0999 V2000
    5.8266   -5.2264    6.0147 C   0  0  0  0  0  0  0  0  0  0  0  0
    4.7245   -4.6067    5.2507 N   0  0  0  0  0  0  0  0  0  0  0  0
    4.6154   -3.2451    5.2187 C   0  0  0  0  0  0  0  0  0  0  0  0
    5.4656   -2.5183    5.7311 O   0  0  0  0  0  0  0  0  0  0  0  0
    3.4055   -2.5246    4.5805 C   0  0  1  0  0  0  0  0  0  0  0  0
    2.7440   -1.5645    5.6090 C   0  0  0  0  0  0  0  0  0  0  0  0
    1.4121   -0.9751    5.1534 C   0  0  0  0  0  0  0  0  0  0  0  0
    0.1956   -1.5072    5.6316 C   0  0  0  0  0  0  0  0  0  0  0  0
   -1.0318   -0.9649    5.2063 C   0  0  0  0  0  0  0  0  0  0  0  0
   -2.1948   -1.4717    5.6765 F   0  0  0  0  0  0  0  0  0  0  0  0
   -1.0545    0.1076    4.2951 C   0  0  0  0  0  0  0  0  0  0  0  0
    0.1529    0.6378    3.8099 C   0  0  0  0  0  0  0  0  0  0  0  0
    0.1353    1.6493    2.9145 F   0  0  0  0  0  0  0  0  0  0  0  0
    1.3767    0.1148    4.2605 C   0  0  0  0  0  0  0  0  0  0  0  0
    3.7805   -1.7706    3.2831 C   0  0  0  0  0  0  0  0  0  0  0  0
    4.5269   -2.5237    2.1637 C   0  0  1  0  0  0  0  0  0  0  0  0
    3.7347   -3.6543    1.4660 C   0  0  1  0  0  0  0  0  0  0  0  0
    4.5286   -3.9605    0.1767 C   0  0  2  0  0  0  0  0  0  0  0  0
    5.8598   -4.7379    0.3009 C   0  0  0  0  0  0  0  0  0  0  0  0
    5.8211   -6.0478    1.0838 C   0  0  0  0  0  0  0  0  0  0  0  0
    5.6277   -5.8117    2.5840 C   0  0  0  0  0  0  0  0  0  0  0  0
    4.1520   -5.7216    3.0043 C   0  0  1  0  0  0  0  0  0  0  0  0
    3.9024   -5.6196    4.5340 C   0  0  2  0  0  0  0  0  0  0  0  0
    2.4020   -5.6877    4.9261 C   0  0  0  0  0  0  0  0  0  0  0  0
    1.4915   -5.8530    3.6922 C   0  0  0  0  0  0  0  0  0  0  0  0
    1.8436   -4.8942    2.5306 C   0  0  0  0  0  0  0  0  0  0  0  0
    3.2831   -4.8162    2.2470 N   0  0  0  0  0  0  0  0  0  0  0  0
    4.8950   -2.5399   -0.2325 C   0  0  0  0  0  0  0  0  0  0  0  0
    5.1921   -2.2066   -1.3821 O   0  0  0  0  0  0  0  0  0  0  0  0
    4.9231   -1.5892    0.9713 C   0  0  0  0  0  0  0  0  0  0  0  0
    3.9405   -0.4239    0.6860 C   0  0  0  0  0  0  0  0  0  0  0  0
    6.3348   -1.0166    1.1640 C   0  0  0  0  0  0  0  0  0  0  0  0
    6.4290   -4.5325    6.6044 H   0  0  0  0  0  0  0  0  0  0  0  0
    6.5111   -5.7405    5.3370 H   0  0  0  0  0  0  0  0  0  0  0  0
    5.4348   -5.9656    6.7181 H   0  0  0  0  0  0  0  0  0  0  0  0
    2.6523   -3.2417    4.3248 H   0  0  0  0  0  0  0  0  0  0  0  0
    2.5928   -2.0875    6.5517 H   0  0  0  0  0  0  0  0  0  0  0  0
    3.4178   -0.7402    5.8447 H   0  0  0  0  0  0  0  0  0  0  0  0
    0.1982   -2.3317    6.3276 H   0  0  0  0  0  0  0  0  0  0  0  0
   -1.9936    0.5221    3.9604 H   0  0  0  0  0  0  0  0  0  0  0  0
    2.2920    0.5477    3.8859 H   0  0  0  0  0  0  0  0  0  0  0  0
    2.8587   -1.4171    2.8260 H   0  0  0  0  0  0  0  0  0  0  0  0
    4.3655   -0.8882    3.5557 H   0  0  0  0  0  0  0  0  0  0  0  0
    5.4454   -2.9362    2.5796 H   0  0  0  0  0  0  0  0  0  0  0  0
    2.8083   -3.1981    1.1066 H   0  0  0  0  0  0  0  0  0  0  0  0
    3.8911   -4.4224   -0.5766 H   0  0  0  0  0  0  0  0  0  0  0  0
    6.1926   -4.9599   -0.7102 H   0  0  0  0  0  0  0  0  0  0  0  0
    6.6495   -4.1172    0.7241 H   0  0  0  0  0  0  0  0  0  0  0  0
    5.0681   -6.7269    0.6806 H   0  0  0  0  0  0  0  0  0  0  0  0
    6.7791   -6.5514    0.9436 H   0  0  0  0  0  0  0  0  0  0  0  0
    6.0434   -6.6780    3.1003 H   0  0  0  0  0  0  0  0  0  0  0  0
    6.2162   -4.9646    2.9302 H   0  0  0  0  0  0  0  0  0  0  0  0
    3.7645   -6.7033    2.7271 H   0  0  0  0  0  0  0  0  0  0  0  0
    4.2718   -6.5920    4.8681 H   0  0  0  0  0  0  0  0  0  0  0  0
    2.2442   -6.5483    5.5782 H   0  0  0  0  0  0  0  0  0  0  0  0
    2.0836   -4.8418    5.5307 H   0  0  0  0  0  0  0  0  0  0  0  0
    1.5591   -6.8817    3.3350 H   0  0  0  0  0  0  0  0  0  0  0  0
    0.4508   -5.7071    3.9782 H   0  0  0  0  0  0  0  0  0  0  0  0
    1.3510   -5.2339    1.6208 H   0  0  0  0  0  0  0  0  0  0  0  0
    1.4557   -3.8957    2.7378 H   0  0  0  0  0  0  0  0  0  0  0  0
    3.9177    0.3113    1.4907 H   0  0  0  0  0  0  0  0  0  0  0  0
    2.9198   -0.7771    0.5299 H   0  0  0  0  0  0  0  0  0  0  0  0
    4.2231    0.1216   -0.2148 H   0  0  0  0  0  0  0  0  0  0  0  0
    6.3763   -0.3895    2.0544 H   0  0  0  0  0  0  0  0  0  0  0  0
    6.6341   -0.4008    0.3153 H   0  0  0  0  0  0  0  0  0  0  0  0
    7.0833   -1.8013    1.2799 H   0  0  0  0  0  0  0  0  0  0  0  0
  1  2  1  0
  1 33  1  0
  1 34  1  0
  1 35  1  0
  2 23  1  0
  2  3  1  0
  3  4  2  0
  3  5  1  0
  5  6  1  0
  5 15  1  0
  5 36  1  6
  6  7  1  0
  6 37  1  0
  6 38  1  0
  7 14  1  0
  7  8  2  0
  8  9  1  0
  8 39  1  0
  9 10  1  0
  9 11  2  0
 11 12  1  0
 11 40  1  0
 12 13  1  0
 12 14  2  0
 14 41  1  0
 15 16  1  0
 15 42  1  0
 15 43  1  0
 16 30  1  0
 16 17  1  0
 16 44  1  1
 17 27  1  0
 17 18  1  0
 17 45  1  6
 18 19  1  0
 18 28  1  0
 18 46  1  6
 19 20  1  0
 19 47  1  0
 19 48  1  0
 20 21  1  0
 20 49  1  0
 20 50  1  0
 21 22  1  0
 21 51  1  0
 21 52  1  0
 22 27  1  0
 22 23  1  0
 22 53  1  6
 23 24  1  0
 23 54  1  1
 24 25  1  0
 24 55  1  0
 24 56  1  0
 25 26  1  0
 25 57  1  0
 25 58  1  0
 26 27  1  0
 26 59  1  0
 26 60  1  0
 28 29  2  0
 28 30  1  0
 30 31  1  0
 30 32  1  0
 31 61  1  0
 31 62  1  0
 31 63  1  0
 32 64  1  0
 32 65  1  0
 32 66  1  0
M  END
>  <i_m_ct_stereo_status>  (452) 
1

>  <s_m_source_file>  (452) 
/var/tmp/pbs.5076255.sched01/tmpk5ywl0l3/150lwq6_0yz.sdf

>  <i_m_source_file_index>  (452) 
31

>  <i_lp_mmshare_version>  (452) 
48012

>  <i_f3d_flags>  (452) 
0

>  <s_epik_input>  (452) 
W0NIM11DMShbQ0gzXSlDKD1PKVtDQEhdKFtDQEBIXTJbQ0BASF0xMylbQ0gyXVtDSDJdW0NIMl1bQ0BIXTRbQ0BIXShbQ0gyXVtDSDJdW0NIMl1OMjQpTihbQ0gzXSlDKD1PKVtDQEhdKFtDSDJdMylbQ0gyXWM1W2NIXWMoRilbY0hdYyhGKVtjSF01

>  <s_epik_cmdline>  (452) 
J2VwaWtfcHl0aG9uJywgJy1waHQnLCAnMi4wJywgJy1waCcsICc3LjAnLCAnLXRuJywgJzgnLCAnLW1hJywgJzIwMCcsICctaW1hZScsICc8aW5maWxlLm1hZT4nLCAnLW9tYWUnLCAnPG91dGZpbGUubWFlPic=

>  <r_epik_Ionization_Penalty>  (452) 
2.00804

>  <r_epik_Ionization_Penalty_Charging>  (452) 
0

>  <r_epik_Ionization_Penalty_Neutral>  (452) 
2.00804

>  <r_epik_State_Penalty>  (452) 
2.13733

>  <r_epik_Charging_Adjusted_Penalty>  (452) 
2.13733

>  <i_epik_Tot_Q>  (452) 
0

>  <i_epik_Tot_abs_Q>  (452) 
0

>  <s_lp_Force_Field>  (452) 
OPLS3e

>  <r_lp_Energy>  (452) 
62.5014

>  <b_lp_Chiralities_Consistent>  (452) 
1

>  <s_lp_Variant>  (452) 
107:0-3

>  <s_i_glide_gridfile>  (452) 
pfpi4k_grid

>  <i_i_glide_lignum>  (452) 
31

>  <i_i_glide_rotatable_bonds>  (452) 
2

>  <r_i_docking_score>  (452) 
-2.19376

>  <r_i_glide_ligand_efficiency>  (452) 
-0.0685551

>  <r_i_glide_ligand_efficiency_sa>  (452) 
-0.217649

>  <r_i_glide_ligand_efficiency_ln>  (452) 
-0.491243

>  <r_i_glide_gscore>  (452) 
-2.19376

>  <r_i_glide_lipo>  (452) 
-0.440965

>  <r_i_glide_hbond>  (452) 
0

>  <r_i_glide_metal>  (452) 
-0

>  <r_i_glide_rewards>  (452) 
-0.392092

>  <r_i_glide_evdw>  (452) 
-21.9254

>  <r_i_glide_ecoul>  (452) 
-2.38939

>  <r_i_glide_erotb>  (452) 
0.202407

>  <r_i_glide_esite>  (452) 
-0.108432

>  <r_i_glide_emodel>  (452) 
-28.2005

>  <r_i_glide_energy>  (452) 
-24.3148

>  <r_i_glide_einternal>  (452) 
0.518387

>  <r_i_glide_intrahb_reward>  (452) 
-0

>  <i_i_glide_confnum>  (452) 
5

>  <i_i_glide_posenum>  (452) 
6

>  <r_i_glide_eff_state_penalty>  (452) 
0

>  <ligand_id>  (452) 
107

>  <original_smiles>  (452) 
CN1C(=O)C(Cc2cc(F)cc(F)c2)CC2C3C(CCCC4C1CCCN43)C(=O)C2(C)C

>  <smiles>  (452) 
[H]c1c(F)c([H])c(C([H])([H])C2([H])C(=O)N(C([H])([H])[H])C3([H])C([H])([H])C([H])([H])C([H])([H])N4C3([H])C([H])([H])C([H])([H])C([H])([H])C3([H])C(=O)C(C([H])([H])[H])(C([H])([H])[H])C([H])(C2([H])[H])C43[H])c([H])c1F

$$$$
108:0:0
     RDKit          3D

 38 41  0  0  1  0  0  0  0  0999 V2000
    2.8595   -1.2697    1.5160 C   0  0  0  0  0  0  0  0  0  0  0  0
    4.0996   -2.1468    1.2118 C   0  0  0  0  0  0  0  0  0  0  0  0
    4.6201   -2.5507    2.6204 C   0  0  0  0  0  0  0  0  0  0  0  0
    3.6379   -3.4569    0.5064 C   0  0  0  0  0  0  0  0  0  0  0  0
    2.7682   -4.1224    1.0787 O   0  0  0  0  0  0  0  0  0  0  0  0
    4.2236   -3.8915   -0.8287 C   0  0  2  0  0  0  0  0  0  0  0  0
    5.7245   -3.7634   -1.0504 C   0  0  0  0  0  0  0  0  0  0  0  0
    5.6053   -3.2644   -2.2895 C   0  0  0  0  0  0  0  0  0  0  0  0
    4.1128   -2.9254   -2.0341 C   0  0  1  0  0  0  0  0  0  0  0  0
    3.2047   -3.1549   -3.2300 C   0  0  0  0  0  0  0  0  0  0  0  0
    3.2430   -1.9406   -3.9883 O   0  0  0  0  0  0  0  0  0  0  0  0
    3.8093   -0.8818   -3.2134 C   0  0  0  0  0  0  0  0  0  0  0  0
    3.8589   -1.4459   -1.7960 C   0  0  2  0  0  0  0  0  0  0  0  0
    4.9113   -0.8767   -0.8717 C   0  0  0  0  0  0  0  0  0  0  0  0
    5.1253   -1.3231    0.3881 C   0  0  0  0  0  0  0  0  0  0  0  0
    6.5598   -1.2715    0.8810 C   0  0  0  0  0  0  0  0  0  0  0  0
    7.4711   -2.3548    0.2282 C   0  0  0  0  0  0  0  0  0  0  0  0
    6.8732   -3.7600   -0.0407 C   0  0  0  0  0  0  0  0  0  0  0  0
    2.3298   -0.9504    0.6249 H   0  0  0  0  0  0  0  0  0  0  0  0
    3.1291   -0.3633    2.0545 H   0  0  0  0  0  0  0  0  0  0  0  0
    2.1296   -1.8056    2.1277 H   0  0  0  0  0  0  0  0  0  0  0  0
    5.5027   -3.1913    2.5727 H   0  0  0  0  0  0  0  0  0  0  0  0
    3.8575   -3.1058    3.1748 H   0  0  0  0  0  0  0  0  0  0  0  0
    4.8536   -1.6716    3.2224 H   0  0  0  0  0  0  0  0  0  0  0  0
    3.8496   -4.8756   -1.1044 H   0  0  0  0  0  0  0  0  0  0  0  0
    6.3173   -2.8913   -3.0246 H   0  0  0  0  0  0  0  0  0  0  0  0
    3.5059   -4.0075   -3.8420 H   0  0  0  0  0  0  0  0  0  0  0  0
    2.1766   -3.3257   -2.8933 H   0  0  0  0  0  0  0  0  0  0  0  0
    4.8038   -0.6868   -3.6120 H   0  0  0  0  0  0  0  0  0  0  0  0
    3.2237    0.0367   -3.2890 H   0  0  0  0  0  0  0  0  0  0  0  0
    2.8740   -1.3120   -1.3621 H   0  0  0  0  0  0  0  0  0  0  0  0
    5.7102   -0.3740   -1.3923 H   0  0  0  0  0  0  0  0  0  0  0  0
    6.9589   -0.2999    0.5884 H   0  0  0  0  0  0  0  0  0  0  0  0
    6.6447   -1.2750    1.9653 H   0  0  0  0  0  0  0  0  0  0  0  0
    7.8546   -1.9624   -0.7148 H   0  0  0  0  0  0  0  0  0  0  0  0
    8.3501   -2.4766    0.8634 H   0  0  0  0  0  0  0  0  0  0  0  0
    6.5380   -4.2379    0.8757 H   0  0  0  0  0  0  0  0  0  0  0  0
    7.6797   -4.3741   -0.4366 H   0  0  0  0  0  0  0  0  0  0  0  0
  1  2  1  0
  1 19  1  0
  1 20  1  0
  1 21  1  0
  2 15  1  0
  2  3  1  0
  2  4  1  0
  3 22  1  0
  3 23  1  0
  3 24  1  0
  4  5  2  0
  4  6  1  0
  6  9  1  0
  6  7  1  0
  6 25  1  6
  7 18  1  0
  7  8  2  0
  8  9  1  0
  8 26  1  0
  9 13  1  0
  9 10  1  6
 10 11  1  0
 10 27  1  0
 10 28  1  0
 11 12  1  0
 12 13  1  0
 12 29  1  0
 12 30  1  0
 13 14  1  0
 13 31  1  1
 14 15  2  0
 14 32  1  0
 15 16  1  0
 16 17  1  0
 16 33  1  0
 16 34  1  0
 17 18  1  0
 17 35  1  0
 17 36  1  0
 18 37  1  0
 18 38  1  0
M  END
>  <i_m_ct_stereo_status>  (453) 
1

>  <s_m_source_file>  (453) 
/var/tmp/pbs.5076255.sched01/tmpk5ywl0l3/150lwq6_0yz.sdf

>  <i_m_source_file_index>  (453) 
32

>  <i_lp_mmshare_version>  (453) 
48012

>  <i_f3d_flags>  (453) 
0

>  <s_epik_input>  (453) 
W0NIMl0xT1tDSDJdW0NAQEhdMltDSF09QyhDKFtDSDNdKShbQ0gzXSlDMz1PKVtDSDJdW0NIMl1bQ0gyXUMoW0NAQEhdM1tDQEBdMTI0KT1bQ0hdNA==

>  <s_epik_cmdline>  (453) 
J2VwaWtfcHl0aG9uJywgJy1waHQnLCAnMi4wJywgJy1waCcsICc3LjAnLCAnLXRuJywgJzgnLCAnLW1hJywgJzIwMCcsICctaW1hZScsICc8aW5maWxlLm1hZT4nLCAnLW9tYWUnLCAnPG91dGZpbGUubWFlPic=

>  <r_lp_tautomer_probability>  (453) 
1

>  <r_epik_Ionization_Penalty>  (453) 
6.52305e-12

>  <r_epik_Ionization_Penalty_Charging>  (453) 
0

>  <r_epik_Ionization_Penalty_Neutral>  (453) 
6.52305e-12

>  <r_epik_State_Penalty>  (453) 
-0

>  <r_epik_Charging_Adjusted_Penalty>  (453) 
0

>  <i_epik_Tot_Q>  (453) 
0

>  <i_epik_Tot_abs_Q>  (453) 
0

>  <s_lp_Force_Field>  (453) 
OPLS3e

>  <r_lp_Energy>  (453) 
52.5274

>  <b_lp_Chiralities_Consistent>  (453) 
1

>  <s_lp_Variant>  (453) 
108:0-1

>  <s_i_glide_gridfile>  (453) 
pfpi4k_grid

>  <i_i_glide_lignum>  (453) 
32

>  <i_i_glide_rotatable_bonds>  (453) 
0

>  <r_i_docking_score>  (453) 
-4.11205

>  <r_i_glide_ligand_efficiency>  (453) 
-0.228447

>  <r_i_glide_ligand_efficiency_sa>  (453) 
-0.598701

>  <r_i_glide_ligand_efficiency_ln>  (453) 
-1.05698

>  <r_i_glide_gscore>  (453) 
-4.11205

>  <r_i_glide_lipo>  (453) 
-0.861567

>  <r_i_glide_hbond>  (453) 
-0.025867

>  <r_i_glide_metal>  (453) 
-0

>  <r_i_glide_rewards>  (453) 
-1.74321

>  <r_i_glide_evdw>  (453) 
-23.935

>  <r_i_glide_ecoul>  (453) 
-1.88834

>  <r_i_glide_erotb>  (453) 
0

>  <r_i_glide_esite>  (453) 
-0.00140116

>  <r_i_glide_emodel>  (453) 
-32.0571

>  <r_i_glide_energy>  (453) 
-25.8233

>  <r_i_glide_einternal>  (453) 
0

>  <r_i_glide_intrahb_reward>  (453) 
-0

>  <i_i_glide_confnum>  (453) 
1

>  <i_i_glide_posenum>  (453) 
5

>  <r_i_glide_eff_state_penalty>  (453) 
0

>  <ligand_id>  (453) 
108

>  <original_smiles>  (453) 
CC1(C)C(=O)C2C3=CC24COCC4C=C1CCC3

>  <smiles>  (453) 
[H]C1=C2C([H])([H])C([H])([H])C([H])([H])C3=C([H])C4(C([H])([H])OC([H])([H])C14[H])C3([H])C(=O)C2(C([H])([H])[H])C([H])([H])[H]

$$$$
110:0:0
     RDKit          3D

 33 36  0  0  1  0  0  0  0  0999 V2000
    1.7516   -6.8043    5.0927 O   0  0  0  0  0  0  0  0  0  0  0  0
    1.9110   -7.9719    4.4515 C   0  0  0  0  0  0  0  0  0  0  0  0
    0.8959   -8.9938    4.9336 C   0  0  0  0  0  0  0  0  0  0  0  0
    0.6830  -10.1463    3.9283 C   0  0  0  0  0  0  0  0  0  0  0  0
    1.9069  -10.4151    3.0687 C   0  0  0  0  0  0  0  0  0  0  0  0
    2.9015   -9.5325    2.8819 C   0  0  0  0  0  0  0  0  0  0  0  0
    4.0079   -9.8623    2.1068 N   0  0  0  0  0  0  0  0  0  0  0  0
    5.1425   -9.0684    2.0859 C   0  0  0  0  0  0  0  0  0  0  0  0
    6.3643   -9.4102    1.7098 N   0  0  0  0  0  0  0  0  0  0  0  0
    7.0248   -8.2555    2.0383 C   0  0  0  0  0  0  0  0  0  0  0  0
    6.2814   -7.2636    2.5352 N   0  0  0  0  0  0  0  0  0  0  0  0
    5.0460   -7.8215    2.5553 N   0  0  0  0  0  0  0  0  0  0  0  0
    3.8374   -7.1404    3.0078 C   0  0  1  0  0  0  0  0  0  0  0  0
    3.2819   -6.2696    1.8744 C   0  0  0  0  0  0  0  0  0  0  0  0
    4.0311   -5.1912    1.3533 C   0  0  0  0  0  0  0  0  0  0  0  0
    3.4884   -4.4284    0.2995 C   0  0  0  0  0  0  0  0  0  0  0  0
    2.2191   -4.7726   -0.1961 C   0  0  0  0  0  0  0  0  0  0  0  0
    1.4814   -5.8013    0.2815 N   0  0  0  0  0  0  0  0  0  0  0  0
    2.0125   -6.5218    1.2896 C   0  0  0  0  0  0  0  0  0  0  0  0
    2.8352   -8.2010    3.4917 C   0  0  0  0  0  0  0  0  0  0  0  0
   -0.0602   -8.5129    5.1489 H   0  0  0  0  0  0  0  0  0  0  0  0
    1.2725   -9.4037    5.8744 H   0  0  0  0  0  0  0  0  0  0  0  0
    0.4313  -11.0597    4.4700 H   0  0  0  0  0  0  0  0  0  0  0  0
   -0.1528   -9.9309    3.2572 H   0  0  0  0  0  0  0  0  0  0  0  0
    1.9445  -11.3857    2.5973 H   0  0  0  0  0  0  0  0  0  0  0  0
    8.0944   -8.1463    1.9100 H   0  0  0  0  0  0  0  0  0  0  0  0
    4.1170   -6.5046    3.8411 H   0  0  0  0  0  0  0  0  0  0  0  0
    5.0115   -4.9492    1.7445 H   0  0  0  0  0  0  0  0  0  0  0  0
    4.0307   -3.5994   -0.1314 H   0  0  0  0  0  0  0  0  0  0  0  0
    1.7758   -4.2137   -1.0035 H   0  0  0  0  0  0  0  0  0  0  0  0
    1.3681   -7.3226    1.6218 H   0  0  0  0  0  0  0  0  0  0  0  0
    4.0898  -10.7973    1.7175 H   0  0  0  0  0  0  0  0  0  0  0  0
    2.4205   -6.2172    4.7799 H   0  0  0  0  0  0  0  0  0  0  0  0
  1  2  1  0
  1 33  1  0
  2  3  1  0
  2 20  2  0
  3  4  1  0
  3 21  1  0
  3 22  1  0
  4  5  1  0
  4 23  1  0
  4 24  1  0
  5 25  1  0
  5  6  2  0
  6 20  1  0
  6  7  1  0
  7  8  1  0
  7 32  1  0
  8 12  1  0
  8  9  2  0
  9 10  1  0
 10 11  2  0
 10 26  1  0
 11 12  1  0
 12 13  1  0
 13 14  1  0
 13 27  1  1
 13 20  1  0
 14 19  1  0
 14 15  2  0
 15 16  1  0
 15 28  1  0
 16 17  2  0
 16 29  1  0
 17 18  1  0
 17 30  1  0
 18 19  2  0
 19 31  1  0
M  END
>  <i_m_ct_stereo_status>  (454) 
1

>  <s_m_source_file>  (454) 
/var/tmp/pbs.5076255.sched01/tmpk5ywl0l3/150lwq6_0yz.sdf

>  <i_m_source_file_index>  (454) 
35

>  <i_lp_mmshare_version>  (454) 
48012

>  <i_f3d_flags>  (454) 
0

>  <s_epik_input>  (454) 
W0NIMl0xW0NIMl1bQ0gyXUMoPU8pW0NAQEhdKEMxPTIpW0NAQEhdKG4zYyhOMiluW2NIXW4zKWM0W2NIXVtjSF1bY0hdbltjSF00

>  <s_epik_cmdline>  (454) 
J2VwaWtfcHl0aG9uJywgJy1waHQnLCAnMi4wJywgJy1waCcsICc3LjAnLCAnLXRuJywgJzgnLCAnLW1hJywgJzIwMCcsICctaW1hZScsICc8aW5maWxlLm1hZT4nLCAnLW9tYWUnLCAnPG91dGZpbGUubWFlPic=

>  <r_epik_Ionization_Penalty>  (454) 
0.305879

>  <r_epik_Ionization_Penalty_Charging>  (454) 
2.93331e-10

>  <r_epik_Ionization_Penalty_Neutral>  (454) 
0.305879

>  <r_epik_State_Penalty>  (454) 
0.299045

>  <r_epik_Charging_Adjusted_Penalty>  (454) 
0.299045

>  <i_epik_Tot_Q>  (454) 
0

>  <i_epik_Tot_abs_Q>  (454) 
0

>  <s_epik_Chemistry_Notes>  (454) 
This compound has an imine and may undergo hydrolysis.

>  <s_lp_Force_Field>  (454) 
OPLS3e

>  <r_lp_Energy>  (454) 
34.9558

>  <b_lp_Chiralities_Consistent>  (454) 
1

>  <s_lp_Variant>  (454) 
110:0-1

>  <s_i_glide_gridfile>  (454) 
pfpi4k_grid

>  <i_i_glide_lignum>  (454) 
35

>  <i_i_glide_rotatable_bonds>  (454) 
2

>  <r_i_docking_score>  (454) 
-3.94129

>  <r_i_glide_ligand_efficiency>  (454) 
-0.197065

>  <r_i_glide_ligand_efficiency_sa>  (454) 
-0.534916

>  <r_i_glide_ligand_efficiency_ln>  (454) 
-0.986376

>  <r_i_glide_gscore>  (454) 
-3.94129

>  <r_i_glide_lipo>  (454) 
-0.128181

>  <r_i_glide_hbond>  (454) 
-0.304865

>  <r_i_glide_metal>  (454) 
-0

>  <r_i_glide_rewards>  (454) 
-1.73811

>  <r_i_glide_evdw>  (454) 
-18.3661

>  <r_i_glide_ecoul>  (454) 
-6.69517

>  <r_i_glide_erotb>  (454) 
0.249566

>  <r_i_glide_esite>  (454) 
-0.0971258

>  <r_i_glide_emodel>  (454) 
-31.4447

>  <r_i_glide_energy>  (454) 
-25.0613

>  <r_i_glide_einternal>  (454) 
0.877841

>  <r_i_glide_intrahb_reward>  (454) 
-0

>  <i_i_glide_confnum>  (454) 
4

>  <i_i_glide_posenum>  (454) 
37

>  <r_i_glide_eff_state_penalty>  (454) 
0

>  <ligand_id>  (454) 
110

>  <original_smiles>  (454) 
O=C1CCCC2=Nc3ncnn3C(c3cccnc3)C12

>  <smiles>  (454) 
[H]OC1=C2C(=C([H])C([H])([H])C1([H])[H])N([H])c1nc([H])nn1C2([H])c1c([H])nc([H])c([H])c1[H]

$$$$
110:0:1
     RDKit          3D

 33 36  0  0  1  0  0  0  0  0999 V2000
    2.2828   -6.9400    5.1795 O   0  0  0  0  0  0  0  0  0  0  0  0
    2.4041   -8.0840    4.4900 C   0  0  0  0  0  0  0  0  0  0  0  0
    1.4635   -9.1539    5.0299 C   0  0  0  0  0  0  0  0  0  0  0  0
    1.1940  -10.2809    4.0058 C   0  0  0  0  0  0  0  0  0  0  0  0
    2.3443  -10.4879    3.0384 C   0  0  0  0  0  0  0  0  0  0  0  0
    3.2986   -9.5677    2.8018 C   0  0  0  0  0  0  0  0  0  0  0  0
    4.3520   -9.8538    1.9448 N   0  0  0  0  0  0  0  0  0  0  0  0
    5.4411   -8.9997    1.8394 C   0  0  0  0  0  0  0  0  0  0  0  0
    6.6249   -9.2754    1.3355 N   0  0  0  0  0  0  0  0  0  0  0  0
    7.2809   -8.1131    1.6618 C   0  0  0  0  0  0  0  0  0  0  0  0
    6.5530   -7.1621    2.2469 N   0  0  0  0  0  0  0  0  0  0  0  0
    5.3454   -7.7691    2.3544 N   0  0  0  0  0  0  0  0  0  0  0  0
    4.1609   -7.1448    2.9252 C   0  0  1  0  0  0  0  0  0  0  0  0
    3.4906   -6.2470    1.8775 C   0  0  0  0  0  0  0  0  0  0  0  0
    4.1134   -5.0622    1.4302 C   0  0  0  0  0  0  0  0  0  0  0  0
    3.4636   -4.2869    0.4497 C   0  0  0  0  0  0  0  0  0  0  0  0
    2.2202   -4.7217   -0.0434 C   0  0  0  0  0  0  0  0  0  0  0  0
    1.6002   -5.8433    0.3805 N   0  0  0  0  0  0  0  0  0  0  0  0
    2.2342   -6.5837    1.3113 C   0  0  0  0  0  0  0  0  0  0  0  0
    3.2408   -8.2563    3.4484 C   0  0  0  0  0  0  0  0  0  0  0  0
    0.5131   -8.7186    5.3447 H   0  0  0  0  0  0  0  0  0  0  0  0
    1.9292   -9.5870    5.9183 H   0  0  0  0  0  0  0  0  0  0  0  0
    1.0202  -11.2220    4.5316 H   0  0  0  0  0  0  0  0  0  0  0  0
    0.2991  -10.0682    3.4177 H   0  0  0  0  0  0  0  0  0  0  0  0
    2.3769  -11.4398    2.5318 H   0  0  0  0  0  0  0  0  0  0  0  0
    8.3327   -7.9572    1.4445 H   0  0  0  0  0  0  0  0  0  0  0  0
    4.4861   -6.5272    3.7630 H   0  0  0  0  0  0  0  0  0  0  0  0
    5.0718   -4.7509    1.8223 H   0  0  0  0  0  0  0  0  0  0  0  0
    3.9009   -3.3702    0.0791 H   0  0  0  0  0  0  0  0  0  0  0  0
    1.7020   -4.1510   -0.7937 H   0  0  0  0  0  0  0  0  0  0  0  0
    1.6913   -7.4762    1.5892 H   0  0  0  0  0  0  0  0  0  0  0  0
    4.3948  -10.7616    1.4750 H   0  0  0  0  0  0  0  0  0  0  0  0
    1.6710   -7.1045    5.8816 H   0  0  0  0  0  0  0  0  0  0  0  0
  1  2  1  0
  1 33  1  0
  2  3  1  0
  2 20  2  0
  3  4  1  0
  3 21  1  0
  3 22  1  0
  4  5  1  0
  4 23  1  0
  4 24  1  0
  5 25  1  0
  5  6  2  0
  6 20  1  0
  6  7  1  0
  7  8  1  0
  7 32  1  0
  8 12  1  0
  8  9  2  0
  9 10  1  0
 10 11  2  0
 10 26  1  0
 11 12  1  0
 12 13  1  0
 13 14  1  0
 13 27  1  1
 13 20  1  0
 14 19  1  0
 14 15  2  0
 15 16  1  0
 15 28  1  0
 16 17  2  0
 16 29  1  0
 17 18  1  0
 17 30  1  0
 18 19  2  0
 19 31  1  0
M  END
>  <i_m_ct_stereo_status>  (455) 
1

>  <s_m_source_file>  (455) 
/var/tmp/pbs.5076255.sched01/tmpk5ywl0l3/150lwq6_0yz.sdf

>  <i_m_source_file_index>  (455) 
35

>  <i_lp_mmshare_version>  (455) 
48012

>  <i_f3d_flags>  (455) 
0

>  <s_epik_input>  (455) 
W0NIMl0xW0NIMl1bQ0gyXUMoPU8pW0NAQEhdKEMxPTIpW0NAQEhdKG4zYyhOMiluW2NIXW4zKWM0W2NIXVtjSF1bY0hdbltjSF00

>  <s_epik_cmdline>  (455) 
J2VwaWtfcHl0aG9uJywgJy1waHQnLCAnMi4wJywgJy1waCcsICc3LjAnLCAnLXRuJywgJzgnLCAnLW1hJywgJzIwMCcsICctaW1hZScsICc8aW5maWxlLm1hZT4nLCAnLW9tYWUnLCAnPG91dGZpbGUubWFlPic=

>  <r_epik_Ionization_Penalty>  (455) 
0.305879

>  <r_epik_Ionization_Penalty_Charging>  (455) 
2.93331e-10

>  <r_epik_Ionization_Penalty_Neutral>  (455) 
0.305879

>  <r_epik_State_Penalty>  (455) 
0.299045

>  <r_epik_Charging_Adjusted_Penalty>  (455) 
0.299045

>  <i_epik_Tot_Q>  (455) 
0

>  <i_epik_Tot_abs_Q>  (455) 
0

>  <s_epik_Chemistry_Notes>  (455) 
This compound has an imine and may undergo hydrolysis.

>  <s_lp_Force_Field>  (455) 
OPLS3e

>  <r_lp_Energy>  (455) 
34.9558

>  <b_lp_Chiralities_Consistent>  (455) 
1

>  <s_lp_Variant>  (455) 
110:0-1

>  <s_i_glide_gridfile>  (455) 
pfpi4k_grid

>  <i_i_glide_lignum>  (455) 
35

>  <i_i_glide_rotatable_bonds>  (455) 
2

>  <r_i_docking_score>  (455) 
-3.87367

>  <r_i_glide_ligand_efficiency>  (455) 
-0.193684

>  <r_i_glide_ligand_efficiency_sa>  (455) 
-0.525738

>  <r_i_glide_ligand_efficiency_ln>  (455) 
-0.969452

>  <r_i_glide_gscore>  (455) 
-3.87367

>  <r_i_glide_lipo>  (455) 
-0.0677854

>  <r_i_glide_hbond>  (455) 
-0.287079

>  <r_i_glide_metal>  (455) 
-0

>  <r_i_glide_rewards>  (455) 
-1.71144

>  <r_i_glide_evdw>  (455) 
-18.4446

>  <r_i_glide_ecoul>  (455) 
-6.94878

>  <r_i_glide_erotb>  (455) 
0.249566

>  <r_i_glide_esite>  (455) 
-0.0923835

>  <r_i_glide_emodel>  (455) 
-30.6508

>  <r_i_glide_energy>  (455) 
-25.3934

>  <r_i_glide_einternal>  (455) 
2.74559

>  <r_i_glide_intrahb_reward>  (455) 
-0

>  <i_i_glide_confnum>  (455) 
2

>  <i_i_glide_posenum>  (455) 
34

>  <r_i_glide_eff_state_penalty>  (455) 
0

>  <ligand_id>  (455) 
110

>  <original_smiles>  (455) 
O=C1CCCC2=Nc3ncnn3C(c3cccnc3)C12

>  <smiles>  (455) 
[H]OC1=C2C(=C([H])C([H])([H])C1([H])[H])N([H])c1nc([H])nn1C2([H])c1c([H])nc([H])c([H])c1[H]

$$$$
110:0:2
     RDKit          3D

 33 36  0  0  1  0  0  0  0  0999 V2000
    1.0437   -5.4552   -0.7182 O   0  0  0  0  0  0  0  0  0  0  0  0
    2.0793   -5.1834    0.0946 C   0  0  0  0  0  0  0  0  0  0  0  0
    2.7274   -3.8517   -0.2675 C   0  0  0  0  0  0  0  0  0  0  0  0
    3.5932   -3.2727    0.8789 C   0  0  0  0  0  0  0  0  0  0  0  0
    4.1864   -4.3423    1.7677 C   0  0  0  0  0  0  0  0  0  0  0  0
    3.6990   -5.5988    1.8478 C   0  0  0  0  0  0  0  0  0  0  0  0
    4.3563   -6.5559    2.6070 N   0  0  0  0  0  0  0  0  0  0  0  0
    4.0320   -7.9009    2.5217 C   0  0  0  0  0  0  0  0  0  0  0  0
    4.7588   -8.9274    2.9298 N   0  0  0  0  0  0  0  0  0  0  0  0
    3.9581   -9.9468    2.4802 C   0  0  0  0  0  0  0  0  0  0  0  0
    2.8169   -9.5836    1.8778 N   0  0  0  0  0  0  0  0  0  0  0  0
    2.8938   -8.2396    1.9130 N   0  0  0  0  0  0  0  0  0  0  0  0
    1.8603   -7.3370    1.4161 C   0  0  1  0  0  0  0  0  0  0  0  0
    0.7367   -7.2240    2.4314 C   0  0  0  0  0  0  0  0  0  0  0  0
    0.9887   -6.8042    3.7545 C   0  0  0  0  0  0  0  0  0  0  0  0
   -0.0873   -6.7285    4.6536 C   0  0  0  0  0  0  0  0  0  0  0  0
   -1.3675   -7.0733    4.1919 C   0  0  0  0  0  0  0  0  0  0  0  0
   -1.6279   -7.4569    2.9255 N   0  0  0  0  0  0  0  0  0  0  0  0
   -0.5867   -7.5567    2.0740 C   0  0  0  0  0  0  0  0  0  0  0  0
    2.4991   -5.9811    1.0990 C   0  0  0  0  0  0  0  0  0  0  0  0
    1.9649   -3.1204   -0.5384 H   0  0  0  0  0  0  0  0  0  0  0  0
    3.3529   -4.0092   -1.1504 H   0  0  0  0  0  0  0  0  0  0  0  0
    4.4079   -2.6805    0.4611 H   0  0  0  0  0  0  0  0  0  0  0  0
    3.0029   -2.6154    1.5171 H   0  0  0  0  0  0  0  0  0  0  0  0
    5.0516   -4.0569    2.3465 H   0  0  0  0  0  0  0  0  0  0  0  0
    4.2295  -10.9915    2.5765 H   0  0  0  0  0  0  0  0  0  0  0  0
    1.4344   -7.7647    0.5106 H   0  0  0  0  0  0  0  0  0  0  0  0
    1.9885   -6.5542    4.0803 H   0  0  0  0  0  0  0  0  0  0  0  0
    0.0670   -6.4169    5.6720 H   0  0  0  0  0  0  0  0  0  0  0  0
   -2.2089   -7.0080    4.8544 H   0  0  0  0  0  0  0  0  0  0  0  0
   -0.8369   -7.8707    1.0681 H   0  0  0  0  0  0  0  0  0  0  0  0
    5.2229   -6.3316    3.0701 H   0  0  0  0  0  0  0  0  0  0  0  0
    1.1399   -4.8820   -1.4697 H   0  0  0  0  0  0  0  0  0  0  0  0
  1  2  1  0
  1 33  1  0
  2  3  1  0
  2 20  2  0
  3  4  1  0
  3 21  1  0
  3 22  1  0
  4  5  1  0
  4 23  1  0
  4 24  1  0
  5 25  1  0
  5  6  2  0
  6 20  1  0
  6  7  1  0
  7  8  1  0
  7 32  1  0
  8 12  1  0
  8  9  2  0
  9 10  1  0
 10 11  2  0
 10 26  1  0
 11 12  1  0
 12 13  1  0
 13 14  1  0
 13 27  1  6
 13 20  1  0
 14 19  1  0
 14 15  2  0
 15 16  1  0
 15 28  1  0
 16 17  2  0
 16 29  1  0
 17 18  1  0
 17 30  1  0
 18 19  2  0
 19 31  1  0
M  END
>  <i_m_ct_stereo_status>  (456) 
1

>  <s_m_source_file>  (456) 
/var/tmp/pbs.5076255.sched01/tmpk5ywl0l3/150lwq6_0yz.sdf

>  <i_m_source_file_index>  (456) 
35

>  <i_lp_mmshare_version>  (456) 
48012

>  <i_f3d_flags>  (456) 
0

>  <s_epik_input>  (456) 
W0NIMl0xW0NIMl1bQ0gyXUMoPU8pW0NAQEhdKEMxPTIpW0NAQEhdKG4zYyhOMiluW2NIXW4zKWM0W2NIXVtjSF1bY0hdbltjSF00

>  <s_epik_cmdline>  (456) 
J2VwaWtfcHl0aG9uJywgJy1waHQnLCAnMi4wJywgJy1waCcsICc3LjAnLCAnLXRuJywgJzgnLCAnLW1hJywgJzIwMCcsICctaW1hZScsICc8aW5maWxlLm1hZT4nLCAnLW9tYWUnLCAnPG91dGZpbGUubWFlPic=

>  <r_epik_Ionization_Penalty>  (456) 
0.305879

>  <r_epik_Ionization_Penalty_Charging>  (456) 
2.93331e-10

>  <r_epik_Ionization_Penalty_Neutral>  (456) 
0.305879

>  <r_epik_State_Penalty>  (456) 
0.299045

>  <r_epik_Charging_Adjusted_Penalty>  (456) 
0.299045

>  <i_epik_Tot_Q>  (456) 
0

>  <i_epik_Tot_abs_Q>  (456) 
0

>  <s_epik_Chemistry_Notes>  (456) 
This compound has an imine and may undergo hydrolysis.

>  <s_lp_Force_Field>  (456) 
OPLS3e

>  <r_lp_Energy>  (456) 
34.9558

>  <b_lp_Chiralities_Consistent>  (456) 
1

>  <s_lp_Variant>  (456) 
110:0-1

>  <s_i_glide_gridfile>  (456) 
pfpi4k_grid

>  <i_i_glide_lignum>  (456) 
35

>  <i_i_glide_rotatable_bonds>  (456) 
2

>  <r_i_docking_score>  (456) 
-3.58188

>  <r_i_glide_ligand_efficiency>  (456) 
-0.179094

>  <r_i_glide_ligand_efficiency_sa>  (456) 
-0.486136

>  <r_i_glide_ligand_efficiency_ln>  (456) 
-0.896426

>  <r_i_glide_gscore>  (456) 
-3.58188

>  <r_i_glide_lipo>  (456) 
-0.0260946

>  <r_i_glide_hbond>  (456) 
-0.452093

>  <r_i_glide_metal>  (456) 
-0

>  <r_i_glide_rewards>  (456) 
-1.58669

>  <r_i_glide_evdw>  (456) 
-18.7687

>  <r_i_glide_ecoul>  (456) 
-5.02032

>  <r_i_glide_erotb>  (456) 
0.249566

>  <r_i_glide_esite>  (456) 
-0.0750877

>  <r_i_glide_emodel>  (456) 
-28.4579

>  <r_i_glide_energy>  (456) 
-23.789

>  <r_i_glide_einternal>  (456) 
2.64636

>  <r_i_glide_intrahb_reward>  (456) 
-0

>  <i_i_glide_confnum>  (456) 
1

>  <i_i_glide_posenum>  (456) 
7

>  <r_i_glide_eff_state_penalty>  (456) 
0

>  <ligand_id>  (456) 
110

>  <original_smiles>  (456) 
O=C1CCCC2=Nc3ncnn3C(c3cccnc3)C12

>  <smiles>  (456) 
[H]OC1=C2C(=C([H])C([H])([H])C1([H])[H])N([H])c1nc([H])nn1C2([H])c1c([H])nc([H])c([H])c1[H]

$$$$
110:1:0
     RDKit          3D

 32 35  0  0  1  0  0  0  0  0999 V2000
   -0.6285   -6.7070    2.2872 O   0  0  0  0  0  0  0  0  0  0  0  0
   -0.2835   -7.4356    3.2516 C   0  0  0  0  0  0  0  0  0  0  0  0
   -0.4200   -8.9144    2.8618 C   0  0  0  0  0  0  0  0  0  0  0  0
    0.5201   -9.8598    3.6379 C   0  0  0  0  0  0  0  0  0  0  0  0
    0.6775   -9.4313    5.0757 C   0  0  0  0  0  0  0  0  0  0  0  0
    0.4740   -8.1697    5.4866 C   0  0  0  0  0  0  0  0  0  0  0  0
    0.5875   -7.8453    6.8335 N   0  0  0  0  0  0  0  0  0  0  0  0
    0.2091   -6.5996    7.3163 C   0  0  0  0  0  0  0  0  0  0  0  0
   -0.0943   -6.2772    8.5632 N   0  0  0  0  0  0  0  0  0  0  0  0
   -0.5366   -4.9931    8.3553 C   0  0  0  0  0  0  0  0  0  0  0  0
   -0.5090   -4.5458    7.0973 N   0  0  0  0  0  0  0  0  0  0  0  0
   -0.0051   -5.6182    6.4332 N   0  0  0  0  0  0  0  0  0  0  0  0
    0.2406   -5.6503    5.0012 C   0  0  1  0  0  0  0  0  0  0  0  0
    1.5975   -5.0228    4.6905 C   0  0  0  0  0  0  0  0  0  0  0  0
    1.7089   -3.8520    3.9125 C   0  0  0  0  0  0  0  0  0  0  0  0
    2.9941   -3.3302    3.6602 C   0  0  0  0  0  0  0  0  0  0  0  0
    4.1114   -4.0007    4.1946 C   0  0  0  0  0  0  0  0  0  0  0  0
    4.0199   -5.1171    4.9400 N   0  0  0  0  0  0  0  0  0  0  0  0
    2.7887   -5.6138    5.1727 C   0  0  0  0  0  0  0  0  0  0  0  0
    0.1549   -7.0983    4.5290 C   0  0  0  0  0  0  0  0  0  0  0  0
   -0.2432   -9.0439    1.7912 H   0  0  0  0  0  0  0  0  0  0  0  0
   -1.4520   -9.2315    3.0406 H   0  0  0  0  0  0  0  0  0  0  0  0
    0.1199  -10.8738    3.6145 H   0  0  0  0  0  0  0  0  0  0  0  0
    1.5063   -9.8895    3.1769 H   0  0  0  0  0  0  0  0  0  0  0  0
    0.9567  -10.2069    5.7703 H   0  0  0  0  0  0  0  0  0  0  0  0
   -0.8986   -4.3717    9.1615 H   0  0  0  0  0  0  0  0  0  0  0  0
   -0.5498   -5.0850    4.5129 H   0  0  0  0  0  0  0  0  0  0  0  0
    0.8323   -3.3641    3.5120 H   0  0  0  0  0  0  0  0  0  0  0  0
    3.1235   -2.4382    3.0655 H   0  0  0  0  0  0  0  0  0  0  0  0
    5.1073   -3.6309    4.0219 H   0  0  0  0  0  0  0  0  0  0  0  0
    2.7579   -6.5129    5.7703 H   0  0  0  0  0  0  0  0  0  0  0  0
    0.7027   -8.5925    7.5016 H   0  0  0  0  0  0  0  0  0  0  0  0
  1  2  1  0
  2  3  1  0
  2 20  2  0
  3  4  1  0
  3 21  1  0
  3 22  1  0
  4  5  1  0
  4 23  1  0
  4 24  1  0
  5 25  1  0
  5  6  2  0
  6 20  1  0
  6  7  1  0
  7  8  1  0
  7 32  1  0
  8 12  1  0
  8  9  2  0
  9 10  1  0
 10 11  2  0
 10 26  1  0
 11 12  1  0
 12 13  1  0
 13 14  1  0
 13 27  1  6
 13 20  1  0
 14 19  1  0
 14 15  2  0
 15 16  1  0
 15 28  1  0
 16 17  2  0
 16 29  1  0
 17 18  1  0
 17 30  1  0
 18 19  2  0
 19 31  1  0
M  CHG  1   1  -1
M  END
>  <i_m_ct_stereo_status>  (457) 
1

>  <s_m_source_file>  (457) 
/var/tmp/pbs.5076255.sched01/tmpk5ywl0l3/150lwq6_0yz.sdf

>  <i_m_source_file_index>  (457) 
36

>  <i_lp_mmshare_version>  (457) 
48012

>  <i_f3d_flags>  (457) 
0

>  <s_epik_input>  (457) 
W0NIMl0xW0NIMl1bQ0gyXUMoPU8pW0NAQEhdKEMxPTIpW0NAQEhdKG4zYyhOMiluW2NIXW4zKWM0W2NIXVtjSF1bY0hdbltjSF00

>  <s_epik_cmdline>  (457) 
J2VwaWtfcHl0aG9uJywgJy1waHQnLCAnMi4wJywgJy1waCcsICc3LjAnLCAnLXRuJywgJzgnLCAnLW1hJywgJzIwMCcsICctaW1hZScsICc8aW5maWxlLm1hZT4nLCAnLW9tYWUnLCAnPG91dGZpbGUubWFlPic=

>  <r_epik_Ionization_Penalty>  (457) 
0.539566

>  <r_epik_Ionization_Penalty_Charging>  (457) 
0.538938

>  <r_epik_Ionization_Penalty_Neutral>  (457) 
0.000628151

>  <r_epik_State_Penalty>  (457) 
0.548349

>  <r_epik_Charging_Adjusted_Penalty>  (457) 
1.08729

>  <i_epik_Tot_Q>  (457) 
-1

>  <i_epik_Tot_abs_Q>  (457) 
1

>  <s_epik_Chemistry_Notes>  (457) 
This compound has an imine and may undergo hydrolysis.

>  <s_lp_Force_Field>  (457) 
OPLS3e

>  <r_lp_Energy>  (457) 
33.8346

>  <b_lp_Chiralities_Consistent>  (457) 
1

>  <s_lp_Variant>  (457) 
110:0-2

>  <s_i_glide_gridfile>  (457) 
pfpi4k_grid

>  <i_i_glide_lignum>  (457) 
36

>  <i_i_glide_rotatable_bonds>  (457) 
1

>  <r_i_docking_score>  (457) 
-3.07399

>  <r_i_glide_ligand_efficiency>  (457) 
-0.153699

>  <r_i_glide_ligand_efficiency_sa>  (457) 
-0.417204

>  <r_i_glide_ligand_efficiency_ln>  (457) 
-0.769318

>  <r_i_glide_gscore>  (457) 
-3.07399

>  <r_i_glide_lipo>  (457) 
-0.00524384

>  <r_i_glide_hbond>  (457) 
-0.313913

>  <r_i_glide_metal>  (457) 
-0

>  <r_i_glide_rewards>  (457) 
-1.62263

>  <r_i_glide_evdw>  (457) 
-17.3752

>  <r_i_glide_ecoul>  (457) 
-3.22574

>  <r_i_glide_erotb>  (457) 
0.2512

>  <r_i_glide_esite>  (457) 
-0.0307805

>  <r_i_glide_emodel>  (457) 
-26.4568

>  <r_i_glide_energy>  (457) 
-20.6009

>  <r_i_glide_einternal>  (457) 
0.105503

>  <r_i_glide_intrahb_reward>  (457) 
-0

>  <i_i_glide_confnum>  (457) 
4

>  <i_i_glide_posenum>  (457) 
23

>  <r_i_glide_eff_state_penalty>  (457) 
0

>  <ligand_id>  (457) 
110

>  <original_smiles>  (457) 
O=C1CCCC2=Nc3ncnn3C(c3cccnc3)C12

>  <smiles>  (457) 
[H]C1=C2C(=C([O-])C([H])([H])C1([H])[H])C([H])(c1c([H])nc([H])c([H])c1[H])n1nc([H])nc1N2[H]

$$$$
110:1:1
     RDKit          3D

 32 35  0  0  1  0  0  0  0  0999 V2000
   -1.1417   -7.0772    3.0382 O   0  0  0  0  0  0  0  0  0  0  0  0
   -0.4729   -8.0086    3.5928 C   0  0  0  0  0  0  0  0  0  0  0  0
   -0.6285   -9.2806    2.7503 C   0  0  0  0  0  0  0  0  0  0  0  0
    0.5445  -10.2774    2.8788 C   0  0  0  0  0  0  0  0  0  0  0  0
    1.0789  -10.3317    4.2829 C   0  0  0  0  0  0  0  0  0  0  0  0
    0.9317   -9.3195    5.1489 C   0  0  0  0  0  0  0  0  0  0  0  0
    1.3777   -9.4581    6.4606 N   0  0  0  0  0  0  0  0  0  0  0  0
    1.0785   -8.5111    7.4326 C   0  0  0  0  0  0  0  0  0  0  0  0
    1.1514   -8.6563    8.7486 N   0  0  0  0  0  0  0  0  0  0  0  0
    0.6353   -7.4388    9.1256 C   0  0  0  0  0  0  0  0  0  0  0  0
    0.2850   -6.6046    8.1387 N   0  0  0  0  0  0  0  0  0  0  0  0
    0.6152   -7.3216    7.0368 N   0  0  0  0  0  0  0  0  0  0  0  0
    0.4434   -6.8459    5.6735 C   0  0  1  0  0  0  0  0  0  0  0  0
    1.6183   -5.9543    5.2811 C   0  0  0  0  0  0  0  0  0  0  0  0
    1.4336   -4.6022    4.9192 C   0  0  0  0  0  0  0  0  0  0  0  0
    2.5657   -3.8416    4.5570 C   0  0  0  0  0  0  0  0  0  0  0  0
    3.8301   -4.4639    4.5701 C   0  0  0  0  0  0  0  0  0  0  0  0
    4.0223   -5.7512    4.9105 N   0  0  0  0  0  0  0  0  0  0  0  0
    2.9348   -6.4745    5.2511 C   0  0  0  0  0  0  0  0  0  0  0  0
    0.3099   -8.0444    4.7402 C   0  0  0  0  0  0  0  0  0  0  0  0
   -0.7628   -9.0326    1.6956 H   0  0  0  0  0  0  0  0  0  0  0  0
   -1.5450   -9.7935    3.0545 H   0  0  0  0  0  0  0  0  0  0  0  0
    0.2191  -11.2779    2.5936 H   0  0  0  0  0  0  0  0  0  0  0  0
    1.3543  -10.0099    2.2079 H   0  0  0  0  0  0  0  0  0  0  0  0
    1.5833  -11.2389    4.5680 H   0  0  0  0  0  0  0  0  0  0  0  0
    0.4884   -7.1664   10.1661 H   0  0  0  0  0  0  0  0  0  0  0  0
   -0.4870   -6.2806    5.6328 H   0  0  0  0  0  0  0  0  0  0  0  0
    0.4484   -4.1547    4.9118 H   0  0  0  0  0  0  0  0  0  0  0  0
    2.4735   -2.8040    4.2720 H   0  0  0  0  0  0  0  0  0  0  0  0
    4.7165   -3.9150    4.3017 H   0  0  0  0  0  0  0  0  0  0  0  0
    3.1283   -7.5048    5.5127 H   0  0  0  0  0  0  0  0  0  0  0  0
    1.6998  -10.3593    6.7914 H   0  0  0  0  0  0  0  0  0  0  0  0
  1  2  1  0
  2  3  1  0
  2 20  2  0
  3  4  1  0
  3 21  1  0
  3 22  1  0
  4  5  1  0
  4 23  1  0
  4 24  1  0
  5 25  1  0
  5  6  2  0
  6 20  1  0
  6  7  1  0
  7  8  1  0
  7 32  1  0
  8 12  1  0
  8  9  2  0
  9 10  1  0
 10 11  2  0
 10 26  1  0
 11 12  1  0
 12 13  1  0
 13 14  1  0
 13 27  1  1
 13 20  1  0
 14 19  1  0
 14 15  2  0
 15 16  1  0
 15 28  1  0
 16 17  2  0
 16 29  1  0
 17 18  1  0
 17 30  1  0
 18 19  2  0
 19 31  1  0
M  CHG  1   1  -1
M  END
>  <i_m_ct_stereo_status>  (458) 
1

>  <s_m_source_file>  (458) 
/var/tmp/pbs.5076255.sched01/tmpk5ywl0l3/150lwq6_0yz.sdf

>  <i_m_source_file_index>  (458) 
36

>  <i_lp_mmshare_version>  (458) 
48012

>  <i_f3d_flags>  (458) 
0

>  <s_epik_input>  (458) 
W0NIMl0xW0NIMl1bQ0gyXUMoPU8pW0NAQEhdKEMxPTIpW0NAQEhdKG4zYyhOMiluW2NIXW4zKWM0W2NIXVtjSF1bY0hdbltjSF00

>  <s_epik_cmdline>  (458) 
J2VwaWtfcHl0aG9uJywgJy1waHQnLCAnMi4wJywgJy1waCcsICc3LjAnLCAnLXRuJywgJzgnLCAnLW1hJywgJzIwMCcsICctaW1hZScsICc8aW5maWxlLm1hZT4nLCAnLW9tYWUnLCAnPG91dGZpbGUubWFlPic=

>  <r_epik_Ionization_Penalty>  (458) 
0.539566

>  <r_epik_Ionization_Penalty_Charging>  (458) 
0.538938

>  <r_epik_Ionization_Penalty_Neutral>  (458) 
0.000628151

>  <r_epik_State_Penalty>  (458) 
0.548349

>  <r_epik_Charging_Adjusted_Penalty>  (458) 
1.08729

>  <i_epik_Tot_Q>  (458) 
-1

>  <i_epik_Tot_abs_Q>  (458) 
1

>  <s_epik_Chemistry_Notes>  (458) 
This compound has an imine and may undergo hydrolysis.

>  <s_lp_Force_Field>  (458) 
OPLS3e

>  <r_lp_Energy>  (458) 
33.8346

>  <b_lp_Chiralities_Consistent>  (458) 
1

>  <s_lp_Variant>  (458) 
110:0-2

>  <s_i_glide_gridfile>  (458) 
pfpi4k_grid

>  <i_i_glide_lignum>  (458) 
36

>  <i_i_glide_rotatable_bonds>  (458) 
1

>  <r_i_docking_score>  (458) 
-3.04958

>  <r_i_glide_ligand_efficiency>  (458) 
-0.152479

>  <r_i_glide_ligand_efficiency_sa>  (458) 
-0.413891

>  <r_i_glide_ligand_efficiency_ln>  (458) 
-0.763208

>  <r_i_glide_gscore>  (458) 
-3.04958

>  <r_i_glide_lipo>  (458) 
-0.109013

>  <r_i_glide_hbond>  (458) 
-0.296834

>  <r_i_glide_metal>  (458) 
-0

>  <r_i_glide_rewards>  (458) 
-1.59356

>  <r_i_glide_evdw>  (458) 
-19.0629

>  <r_i_glide_ecoul>  (458) 
-1.28108

>  <r_i_glide_erotb>  (458) 
0.2512

>  <r_i_glide_esite>  (458) 
-0.15606

>  <r_i_glide_emodel>  (458) 
-26.165

>  <r_i_glide_energy>  (458) 
-20.344

>  <r_i_glide_einternal>  (458) 
0.116348

>  <r_i_glide_intrahb_reward>  (458) 
-0

>  <i_i_glide_confnum>  (458) 
4

>  <i_i_glide_posenum>  (458) 
4

>  <r_i_glide_eff_state_penalty>  (458) 
0

>  <ligand_id>  (458) 
110

>  <original_smiles>  (458) 
O=C1CCCC2=Nc3ncnn3C(c3cccnc3)C12

>  <smiles>  (458) 
[H]C1=C2C(=C([O-])C([H])([H])C1([H])[H])C([H])(c1c([H])nc([H])c([H])c1[H])n1nc([H])nc1N2[H]

$$$$
110:1:2
     RDKit          3D

 32 35  0  0  1  0  0  0  0  0999 V2000
    1.3961   -5.4580   -0.3160 O   0  0  0  0  0  0  0  0  0  0  0  0
    2.3435   -5.3929    0.4943 C   0  0  0  0  0  0  0  0  0  0  0  0
    3.1886   -4.1447    0.1971 C   0  0  0  0  0  0  0  0  0  0  0  0
    3.9617   -3.6119    1.4209 C   0  0  0  0  0  0  0  0  0  0  0  0
    4.4690   -4.7357    2.2865 C   0  0  0  0  0  0  0  0  0  0  0  0
    3.9146   -5.9594    2.2974 C   0  0  0  0  0  0  0  0  0  0  0  0
    4.4714   -6.9866    3.0459 N   0  0  0  0  0  0  0  0  0  0  0  0
    4.0398   -8.2980    2.9221 C   0  0  0  0  0  0  0  0  0  0  0  0
    4.6749   -9.3922    3.3152 N   0  0  0  0  0  0  0  0  0  0  0  0
    3.8025  -10.3322    2.8203 C   0  0  0  0  0  0  0  0  0  0  0  0
    2.7032   -9.8633    2.2142 N   0  0  0  0  0  0  0  0  0  0  0  0
    2.8902   -8.5300    2.2958 N   0  0  0  0  0  0  0  0  0  0  0  0
    1.9520   -7.5467    1.7840 C   0  0  1  0  0  0  0  0  0  0  0  0
    0.8012   -7.3613    2.7564 C   0  0  0  0  0  0  0  0  0  0  0  0
    1.0454   -6.9198    4.0740 C   0  0  0  0  0  0  0  0  0  0  0  0
   -0.0446   -6.7679    4.9468 C   0  0  0  0  0  0  0  0  0  0  0  0
   -1.3314   -7.0541    4.4586 C   0  0  0  0  0  0  0  0  0  0  0  0
   -1.5849   -7.4543    3.1954 N   0  0  0  0  0  0  0  0  0  0  0  0
   -0.5312   -7.6276    2.3692 C   0  0  0  0  0  0  0  0  0  0  0  0
    2.7019   -6.2451    1.5230 C   0  0  0  0  0  0  0  0  0  0  0  0
    2.5650   -3.3428   -0.2044 H   0  0  0  0  0  0  0  0  0  0  0  0
    3.9073   -4.3851   -0.5932 H   0  0  0  0  0  0  0  0  0  0  0  0
    4.8061   -3.0086    1.0861 H   0  0  0  0  0  0  0  0  0  0  0  0
    3.3155   -2.9792    2.0257 H   0  0  0  0  0  0  0  0  0  0  0  0
    5.3215   -4.5083    2.9016 H   0  0  0  0  0  0  0  0  0  0  0  0
    3.9846  -11.3941    2.8981 H   0  0  0  0  0  0  0  0  0  0  0  0
    1.5605   -7.9346    0.8513 H   0  0  0  0  0  0  0  0  0  0  0  0
    2.0494   -6.6991    4.4070 H   0  0  0  0  0  0  0  0  0  0  0  0
    0.1065   -6.4360    5.9616 H   0  0  0  0  0  0  0  0  0  0  0  0
   -2.1872   -6.9258    5.0918 H   0  0  0  0  0  0  0  0  0  0  0  0
   -0.7742   -7.9511    1.3636 H   0  0  0  0  0  0  0  0  0  0  0  0
    5.3371   -6.8395    3.5361 H   0  0  0  0  0  0  0  0  0  0  0  0
  1  2  1  0
  2  3  1  0
  2 20  2  0
  3  4  1  0
  3 21  1  0
  3 22  1  0
  4  5  1  0
  4 23  1  0
  4 24  1  0
  5 25  1  0
  5  6  2  0
  6 20  1  0
  6  7  1  0
  7  8  1  0
  7 32  1  0
  8 12  1  0
  8  9  2  0
  9 10  1  0
 10 11  2  0
 10 26  1  0
 11 12  1  0
 12 13  1  0
 13 14  1  0
 13 27  1  6
 13 20  1  0
 14 19  1  0
 14 15  2  0
 15 16  1  0
 15 28  1  0
 16 17  2  0
 16 29  1  0
 17 18  1  0
 17 30  1  0
 18 19  2  0
 19 31  1  0
M  CHG  1   1  -1
M  END
>  <i_m_ct_stereo_status>  (459) 
1

>  <s_m_source_file>  (459) 
/var/tmp/pbs.5076255.sched01/tmpk5ywl0l3/150lwq6_0yz.sdf

>  <i_m_source_file_index>  (459) 
36

>  <i_lp_mmshare_version>  (459) 
48012

>  <i_f3d_flags>  (459) 
0

>  <s_epik_input>  (459) 
W0NIMl0xW0NIMl1bQ0gyXUMoPU8pW0NAQEhdKEMxPTIpW0NAQEhdKG4zYyhOMiluW2NIXW4zKWM0W2NIXVtjSF1bY0hdbltjSF00

>  <s_epik_cmdline>  (459) 
J2VwaWtfcHl0aG9uJywgJy1waHQnLCAnMi4wJywgJy1waCcsICc3LjAnLCAnLXRuJywgJzgnLCAnLW1hJywgJzIwMCcsICctaW1hZScsICc8aW5maWxlLm1hZT4nLCAnLW9tYWUnLCAnPG91dGZpbGUubWFlPic=

>  <r_epik_Ionization_Penalty>  (459) 
0.539566

>  <r_epik_Ionization_Penalty_Charging>  (459) 
0.538938

>  <r_epik_Ionization_Penalty_Neutral>  (459) 
0.000628151

>  <r_epik_State_Penalty>  (459) 
0.548349

>  <r_epik_Charging_Adjusted_Penalty>  (459) 
1.08729

>  <i_epik_Tot_Q>  (459) 
-1

>  <i_epik_Tot_abs_Q>  (459) 
1

>  <s_epik_Chemistry_Notes>  (459) 
This compound has an imine and may undergo hydrolysis.

>  <s_lp_Force_Field>  (459) 
OPLS3e

>  <r_lp_Energy>  (459) 
33.8346

>  <b_lp_Chiralities_Consistent>  (459) 
1

>  <s_lp_Variant>  (459) 
110:0-2

>  <s_i_glide_gridfile>  (459) 
pfpi4k_grid

>  <i_i_glide_lignum>  (459) 
36

>  <i_i_glide_rotatable_bonds>  (459) 
1

>  <r_i_docking_score>  (459) 
-2.79623

>  <r_i_glide_ligand_efficiency>  (459) 
-0.139811

>  <r_i_glide_ligand_efficiency_sa>  (459) 
-0.379506

>  <r_i_glide_ligand_efficiency_ln>  (459) 
-0.699803

>  <r_i_glide_gscore>  (459) 
-2.79623

>  <r_i_glide_lipo>  (459) 
-0.0207658

>  <r_i_glide_hbond>  (459) 
-0.223966

>  <r_i_glide_metal>  (459) 
-0

>  <r_i_glide_rewards>  (459) 
-1.59356

>  <r_i_glide_evdw>  (459) 
-20.2985

>  <r_i_glide_ecoul>  (459) 
-0.83211

>  <r_i_glide_erotb>  (459) 
0.2512

>  <r_i_glide_esite>  (459) 
-0.0693952

>  <r_i_glide_emodel>  (459) 
-26.4637

>  <r_i_glide_energy>  (459) 
-21.1306

>  <r_i_glide_einternal>  (459) 
0.0583026

>  <r_i_glide_intrahb_reward>  (459) 
-0

>  <i_i_glide_confnum>  (459) 
3

>  <i_i_glide_posenum>  (459) 
2

>  <r_i_glide_eff_state_penalty>  (459) 
0

>  <ligand_id>  (459) 
110

>  <original_smiles>  (459) 
O=C1CCCC2=Nc3ncnn3C(c3cccnc3)C12

>  <smiles>  (459) 
[H]C1=C2C(=C([O-])C([H])([H])C1([H])[H])C([H])(c1c([H])nc([H])c([H])c1[H])n1nc([H])nc1N2[H]

$$$$
111:0:0
     RDKit          3D

 47 51  0  0  1  0  0  0  0  0999 V2000
    4.4039    0.6968    5.0937 C   0  0  0  0  0  0  0  0  0  0  0  0
    5.7821    0.5285    4.8409 C   0  0  0  0  0  0  0  0  0  0  0  0
    6.2019   -0.1220    3.6586 C   0  0  0  0  0  0  0  0  0  0  0  0
    5.2710   -0.6531    2.7407 C   0  0  0  0  0  0  0  0  0  0  0  0
    3.8927   -0.4496    2.9869 C   0  0  0  0  0  0  0  0  0  0  0  0
    3.4672    0.2110    4.1600 C   0  0  0  0  0  0  0  0  0  0  0  0
    2.9792   -0.8604    2.0606 O   0  0  0  0  0  0  0  0  0  0  0  0
    3.4346   -0.6116    0.7413 C   0  0  0  0  0  0  0  0  0  0  0  0
    4.6521   -1.4554    0.3442 C   0  0  1  0  0  0  0  0  0  0  0  0
    5.7231   -1.4062    1.4830 C   0  0  2  0  0  0  0  0  0  0  0  0
    6.1686   -2.7808    1.8507 N   0  0  2  0  0  0  0  0  0  0  0  0
    7.1524   -3.4501    0.9560 C   0  0  0  0  0  0  0  0  0  0  0  0
    6.9508   -3.1492   -0.5197 C   0  0  0  0  0  0  0  0  0  0  0  0
    5.5390   -3.3924   -1.0997 C   0  0  2  0  0  0  0  0  0  0  0  0
    5.5366   -2.7466   -2.5118 C   0  0  0  0  0  0  0  0  0  0  0  0
    4.2077   -2.8222   -3.2614 C   0  0  0  0  0  0  0  0  0  0  0  0
    3.0882   -2.2779   -2.3820 C   0  0  0  0  0  0  0  0  0  0  0  0
    3.0586   -3.0391   -1.0548 C   0  0  0  0  0  0  0  0  0  0  0  0
    4.3512   -2.9041   -0.1965 C   0  0  2  0  0  0  0  0  0  0  0  0
    4.1141   -3.8621    1.0072 C   0  0  0  0  0  0  0  0  0  0  0  0
    5.0444   -3.6656    2.1984 C   0  0  0  0  0  0  0  0  0  0  0  0
    4.0751    1.2060    5.9906 H   0  0  0  0  0  0  0  0  0  0  0  0
    6.5147    0.9002    5.5509 H   0  0  0  0  0  0  0  0  0  0  0  0
    7.2515   -0.2262    3.4526 H   0  0  0  0  0  0  0  0  0  0  0  0
    2.4063    0.3707    4.3304 H   0  0  0  0  0  0  0  0  0  0  0  0
    2.6224   -0.7598    0.0616 H   0  0  0  0  0  0  0  0  0  0  0  0
    3.6655    0.4566    0.6600 H   0  0  0  0  0  0  0  0  0  0  0  0
    5.0554   -0.8923   -0.4898 H   0  0  0  0  0  0  0  0  0  0  0  0
    6.5911   -0.8683    1.1153 H   0  0  0  0  0  0  0  0  0  0  0  0
    8.1427   -3.1147    1.2311 H   0  0  0  0  0  0  0  0  0  0  0  0
    7.1764   -4.5193    1.1374 H   0  0  0  0  0  0  0  0  0  0  0  0
    7.2644   -2.1244   -0.7091 H   0  0  0  0  0  0  0  0  0  0  0  0
    7.6631   -3.7513   -1.0761 H   0  0  0  0  0  0  0  0  0  0  0  0
    5.4218   -4.4660   -1.2474 H   0  0  0  0  0  0  0  0  0  0  0  0
    5.8066   -1.6952   -2.4253 H   0  0  0  0  0  0  0  0  0  0  0  0
    6.3039   -3.2161   -3.1245 H   0  0  0  0  0  0  0  0  0  0  0  0
    4.2649   -2.2397   -4.1808 H   0  0  0  0  0  0  0  0  0  0  0  0
    3.9900   -3.8513   -3.5525 H   0  0  0  0  0  0  0  0  0  0  0  0
    3.2140   -1.2100   -2.2096 H   0  0  0  0  0  0  0  0  0  0  0  0
    2.1344   -2.3892   -2.8947 H   0  0  0  0  0  0  0  0  0  0  0  0
    2.1764   -2.7622   -0.4838 H   0  0  0  0  0  0  0  0  0  0  0  0
    2.9053   -4.0904   -1.2919 H   0  0  0  0  0  0  0  0  0  0  0  0
    3.1023   -3.7331    1.3904 H   0  0  0  0  0  0  0  0  0  0  0  0
    4.1650   -4.8987    0.6763 H   0  0  0  0  0  0  0  0  0  0  0  0
    5.4125   -4.6151    2.5619 H   0  0  0  0  0  0  0  0  0  0  0  0
    4.5078   -3.2429    3.0378 H   0  0  0  0  0  0  0  0  0  0  0  0
    6.6696   -2.6580    2.7186 H   0  0  0  0  0  0  0  0  0  0  0  0
  1  6  2  0
  1  2  1  0
  1 22  1  0
  2  3  2  0
  2 23  1  0
  3  4  1  0
  3 24  1  0
  4 10  1  0
  4  5  2  0
  5  6  1  0
  5  7  1  0
  6 25  1  0
  7  8  1  0
  8  9  1  0
  8 26  1  0
  8 27  1  0
  9 19  1  0
  9 10  1  0
  9 28  1  6
 10 11  1  0
 10 29  1  6
 11 21  1  0
 11 12  1  0
 11 47  1  1
 12 13  1  0
 12 30  1  0
 12 31  1  0
 13 14  1  0
 13 32  1  0
 13 33  1  0
 14 19  1  0
 14 15  1  0
 14 34  1  6
 15 16  1  0
 15 35  1  0
 15 36  1  0
 16 17  1  0
 16 37  1  0
 16 38  1  0
 17 18  1  0
 17 39  1  0
 17 40  1  0
 19 18  1  6
 18 41  1  0
 18 42  1  0
 19 20  1  0
 20 21  1  0
 20 43  1  0
 20 44  1  0
 21 45  1  0
 21 46  1  0
M  CHG  1  11   1
M  END
>  <i_m_ct_stereo_status>  (460) 
1

>  <s_m_source_file>  (460) 
/var/tmp/pbs.5076255.sched01/tmpk5ywl0l3/150lwq6_0yz.sdf

>  <i_m_source_file_index>  (460) 
37

>  <i_lp_mmshare_version>  (460) 
48012

>  <i_f3d_flags>  (460) 
0

>  <s_epik_input>  (460) 
W2NIXTFbY0hdW2NIXVtjSF1jKE9bQ0gyXTIpYzFbQ0BIXShbQ0BIXTJbQ0BdMzQ1KU4oW0NIMl1bQ0gyXTUpW0NIMl1bQ0gyXVtDQEBIXTNbQ0gyXVtDSDJdW0NIMl1bQ0gyXTQ=

>  <s_epik_cmdline>  (460) 
J2VwaWtfcHl0aG9uJywgJy1waHQnLCAnMi4wJywgJy1waCcsICc3LjAnLCAnLXRuJywgJzgnLCAnLW1hJywgJzIwMCcsICctaW1hZScsICc8aW5maWxlLm1hZT4nLCAnLW9tYWUnLCAnPG91dGZpbGUubWFlPic=

>  <r_lp_tautomer_probability>  (460) 
1

>  <r_epik_Ionization_Penalty>  (460) 
0.00427277

>  <r_epik_Ionization_Penalty_Charging>  (460) 
0.00427277

>  <r_epik_Ionization_Penalty_Neutral>  (460) 
0

>  <r_epik_State_Penalty>  (460) 
0.00307306

>  <r_epik_Charging_Adjusted_Penalty>  (460) 
0.00734583

>  <i_epik_Tot_Q>  (460) 
1

>  <i_epik_Tot_abs_Q>  (460) 
1

>  <s_lp_Force_Field>  (460) 
OPLS3e

>  <r_lp_Energy>  (460) 
61.0368

>  <b_lp_Chiralities_Consistent>  (460) 
1

>  <s_lp_Variant>  (460) 
111:0-1

>  <s_i_glide_gridfile>  (460) 
pfpi4k_grid

>  <i_i_glide_lignum>  (460) 
37

>  <i_i_glide_rotatable_bonds>  (460) 
0

>  <r_i_docking_score>  (460) 
-3.84673

>  <r_i_glide_ligand_efficiency>  (460) 
-0.183178

>  <r_i_glide_ligand_efficiency_sa>  (460) 
-0.505373

>  <r_i_glide_ligand_efficiency_ln>  (460) 
-0.951096

>  <r_i_glide_gscore>  (460) 
-3.84673

>  <r_i_glide_lipo>  (460) 
-1.15972

>  <r_i_glide_hbond>  (460) 
0

>  <r_i_glide_metal>  (460) 
-0

>  <r_i_glide_rewards>  (460) 
-1.46989

>  <r_i_glide_evdw>  (460) 
-20.7125

>  <r_i_glide_ecoul>  (460) 
-1.20993

>  <r_i_glide_erotb>  (460) 
0

>  <r_i_glide_esite>  (460) 
0

>  <r_i_glide_emodel>  (460) 
-27.3068

>  <r_i_glide_energy>  (460) 
-21.9225

>  <r_i_glide_einternal>  (460) 
0

>  <r_i_glide_intrahb_reward>  (460) 
-0

>  <i_i_glide_confnum>  (460) 
1

>  <i_i_glide_posenum>  (460) 
15

>  <r_i_glide_eff_state_penalty>  (460) 
0

>  <ligand_id>  (460) 
111

>  <original_smiles>  (460) 
c1ccc2c(c1)OCC1C2N2CCC3CCCCC31CC2

>  <smiles>  (460) 
[H]c1c([H])c([H])c2c(c1[H])OC([H])([H])C1([H])C34C([H])([H])C([H])([H])C([H])([H])C([H])([H])C3([H])C([H])([H])C([H])([H])[N+]([H])(C([H])([H])C4([H])[H])C21[H]

$$$$
111:0:1
     RDKit          3D

 47 51  0  0  1  0  0  0  0  0999 V2000
    2.0204   -5.8893    3.6108 C   0  0  0  0  0  0  0  0  0  0  0  0
    2.4622   -4.6845    4.1945 C   0  0  0  0  0  0  0  0  0  0  0  0
    3.0293   -3.6696    3.3962 C   0  0  0  0  0  0  0  0  0  0  0  0
    3.1559   -3.8528    1.9986 C   0  0  0  0  0  0  0  0  0  0  0  0
    2.6796   -5.0536    1.4187 C   0  0  0  0  0  0  0  0  0  0  0  0
    2.1351   -6.0734    2.2205 C   0  0  0  0  0  0  0  0  0  0  0  0
    2.7193   -5.2212    0.0657 O   0  0  0  0  0  0  0  0  0  0  0  0
    2.4187   -4.0297   -0.6528 C   0  0  0  0  0  0  0  0  0  0  0  0
    3.4509   -2.9142   -0.4159 C   0  0  1  0  0  0  0  0  0  0  0  0
    3.8162   -2.7937    1.1084 C   0  0  2  0  0  0  0  0  0  0  0  0
    5.2913   -2.8121    1.3335 N   0  0  2  0  0  0  0  0  0  0  0  0
    6.0196   -1.5464    1.0618 C   0  0  0  0  0  0  0  0  0  0  0  0
    5.4687   -0.7489   -0.1210 C   0  0  0  0  0  0  0  0  0  0  0  0
    5.3031   -1.4856   -1.4736 C   0  0  2  0  0  0  0  0  0  0  0  0
    4.4648   -0.5633   -2.4062 C   0  0  0  0  0  0  0  0  0  0  0  0
    4.1167   -1.1062   -3.7883 C   0  0  0  0  0  0  0  0  0  0  0  0
    3.4805   -2.4712   -3.6409 C   0  0  0  0  0  0  0  0  0  0  0  0
    4.4399   -3.3584   -2.8489 C   0  0  0  0  0  0  0  0  0  0  0  0
    4.7002   -2.9219   -1.3746 C   0  0  2  0  0  0  0  0  0  0  0  0
    5.7393   -3.9411   -0.8346 C   0  0  0  0  0  0  0  0  0  0  0  0
    5.9395   -3.9635    0.6822 C   0  0  0  0  0  0  0  0  0  0  0  0
    1.5951   -6.6740    4.2249 H   0  0  0  0  0  0  0  0  0  0  0  0
    2.3720   -4.5508    5.2650 H   0  0  0  0  0  0  0  0  0  0  0  0
    3.3685   -2.7548    3.8630 H   0  0  0  0  0  0  0  0  0  0  0  0
    1.7825   -6.9913    1.7664 H   0  0  0  0  0  0  0  0  0  0  0  0
    2.2504   -4.2202   -1.7085 H   0  0  0  0  0  0  0  0  0  0  0  0
    1.4415   -3.6859   -0.3177 H   0  0  0  0  0  0  0  0  0  0  0  0
    2.8863   -2.0236   -0.6692 H   0  0  0  0  0  0  0  0  0  0  0  0
    3.4336   -1.8380    1.4714 H   0  0  0  0  0  0  0  0  0  0  0  0
    5.9584   -0.9159    1.9493 H   0  0  0  0  0  0  0  0  0  0  0  0
    7.0864   -1.7293    0.9234 H   0  0  0  0  0  0  0  0  0  0  0  0
    4.5216   -0.2898    0.1679 H   0  0  0  0  0  0  0  0  0  0  0  0
    6.1453    0.0894   -0.2681 H   0  0  0  0  0  0  0  0  0  0  0  0
    6.2890   -1.5863   -1.9251 H   0  0  0  0  0  0  0  0  0  0  0  0
    3.5264   -0.3010   -1.9213 H   0  0  0  0  0  0  0  0  0  0  0  0
    4.9900    0.3742   -2.5661 H   0  0  0  0  0  0  0  0  0  0  0  0
    3.4355   -0.4203   -4.2925 H   0  0  0  0  0  0  0  0  0  0  0  0
    5.0028   -1.1712   -4.4048 H   0  0  0  0  0  0  0  0  0  0  0  0
    2.5078   -2.3899   -3.1466 H   0  0  0  0  0  0  0  0  0  0  0  0
    3.2929   -2.9003   -4.6233 H   0  0  0  0  0  0  0  0  0  0  0  0
    4.0937   -4.3663   -2.8968 H   0  0  0  0  0  0  0  0  0  0  0  0
    5.3889   -3.4090   -3.3878 H   0  0  0  0  0  0  0  0  0  0  0  0
    5.4233   -4.9474   -1.1137 H   0  0  0  0  0  0  0  0  0  0  0  0
    6.7002   -3.7878   -1.3260 H   0  0  0  0  0  0  0  0  0  0  0  0
    7.0026   -3.9936    0.9251 H   0  0  0  0  0  0  0  0  0  0  0  0
    5.5296   -4.8835    1.0988 H   0  0  0  0  0  0  0  0  0  0  0  0
    5.4115   -2.9659    2.3232 H   0  0  0  0  0  0  0  0  0  0  0  0
  1  6  2  0
  1  2  1  0
  1 22  1  0
  2  3  2  0
  2 23  1  0
  3  4  1  0
  3 24  1  0
  4 10  1  0
  4  5  2  0
  5  6  1  0
  5  7  1  0
  6 25  1  0
  7  8  1  0
  8  9  1  0
  8 26  1  0
  8 27  1  0
  9 19  1  0
  9 10  1  0
  9 28  1  6
 10 11  1  0
 10 29  1  1
 11 21  1  0
 11 12  1  0
 11 47  1  1
 12 13  1  0
 12 30  1  0
 12 31  1  0
 13 14  1  0
 13 32  1  0
 13 33  1  0
 14 19  1  0
 14 15  1  0
 14 34  1  6
 15 16  1  0
 15 35  1  0
 15 36  1  0
 16 17  1  0
 16 37  1  0
 16 38  1  0
 17 18  1  0
 17 39  1  0
 17 40  1  0
 19 18  1  6
 18 41  1  0
 18 42  1  0
 19 20  1  0
 20 21  1  0
 20 43  1  0
 20 44  1  0
 21 45  1  0
 21 46  1  0
M  CHG  1  11   1
M  END
>  <i_m_ct_stereo_status>  (461) 
1

>  <s_m_source_file>  (461) 
/var/tmp/pbs.5076255.sched01/tmpk5ywl0l3/150lwq6_0yz.sdf

>  <i_m_source_file_index>  (461) 
37

>  <i_lp_mmshare_version>  (461) 
48012

>  <i_f3d_flags>  (461) 
0

>  <s_epik_input>  (461) 
W2NIXTFbY0hdW2NIXVtjSF1jKE9bQ0gyXTIpYzFbQ0BIXShbQ0BIXTJbQ0BdMzQ1KU4oW0NIMl1bQ0gyXTUpW0NIMl1bQ0gyXVtDQEBIXTNbQ0gyXVtDSDJdW0NIMl1bQ0gyXTQ=

>  <s_epik_cmdline>  (461) 
J2VwaWtfcHl0aG9uJywgJy1waHQnLCAnMi4wJywgJy1waCcsICc3LjAnLCAnLXRuJywgJzgnLCAnLW1hJywgJzIwMCcsICctaW1hZScsICc8aW5maWxlLm1hZT4nLCAnLW9tYWUnLCAnPG91dGZpbGUubWFlPic=

>  <r_lp_tautomer_probability>  (461) 
1

>  <r_epik_Ionization_Penalty>  (461) 
0.00427277

>  <r_epik_Ionization_Penalty_Charging>  (461) 
0.00427277

>  <r_epik_Ionization_Penalty_Neutral>  (461) 
0

>  <r_epik_State_Penalty>  (461) 
0.00307306

>  <r_epik_Charging_Adjusted_Penalty>  (461) 
0.00734583

>  <i_epik_Tot_Q>  (461) 
1

>  <i_epik_Tot_abs_Q>  (461) 
1

>  <s_lp_Force_Field>  (461) 
OPLS3e

>  <r_lp_Energy>  (461) 
61.0368

>  <b_lp_Chiralities_Consistent>  (461) 
1

>  <s_lp_Variant>  (461) 
111:0-1

>  <s_i_glide_gridfile>  (461) 
pfpi4k_grid

>  <i_i_glide_lignum>  (461) 
37

>  <i_i_glide_rotatable_bonds>  (461) 
0

>  <r_i_docking_score>  (461) 
-3.5155

>  <r_i_glide_ligand_efficiency>  (461) 
-0.167405

>  <r_i_glide_ligand_efficiency_sa>  (461) 
-0.461857

>  <r_i_glide_ligand_efficiency_ln>  (461) 
-0.8692

>  <r_i_glide_gscore>  (461) 
-3.5155

>  <r_i_glide_lipo>  (461) 
-0.734709

>  <r_i_glide_hbond>  (461) 
0

>  <r_i_glide_metal>  (461) 
-0

>  <r_i_glide_rewards>  (461) 
-1.46989

>  <r_i_glide_evdw>  (461) 
-19.8245

>  <r_i_glide_ecoul>  (461) 
-2.13114

>  <r_i_glide_erotb>  (461) 
0

>  <r_i_glide_esite>  (461) 
0

>  <r_i_glide_emodel>  (461) 
-26.8281

>  <r_i_glide_energy>  (461) 
-21.9557

>  <r_i_glide_einternal>  (461) 
0

>  <r_i_glide_intrahb_reward>  (461) 
-0

>  <i_i_glide_confnum>  (461) 
1

>  <i_i_glide_posenum>  (461) 
19

>  <r_i_glide_eff_state_penalty>  (461) 
0

>  <ligand_id>  (461) 
111

>  <original_smiles>  (461) 
c1ccc2c(c1)OCC1C2N2CCC3CCCCC31CC2

>  <smiles>  (461) 
[H]c1c([H])c([H])c2c(c1[H])OC([H])([H])C1([H])C34C([H])([H])C([H])([H])C([H])([H])C([H])([H])C3([H])C([H])([H])C([H])([H])[N+]([H])(C([H])([H])C4([H])[H])C21[H]

$$$$
111:0:2
     RDKit          3D

 47 51  0  0  1  0  0  0  0  0999 V2000
    3.1887   -2.1372   -3.2241 C   0  0  0  0  0  0  0  0  0  0  0  0
    4.1800   -1.2509   -2.7645 C   0  0  0  0  0  0  0  0  0  0  0  0
    4.5800   -1.2701   -1.4103 C   0  0  0  0  0  0  0  0  0  0  0  0
    3.9847   -2.1848   -0.5093 C   0  0  0  0  0  0  0  0  0  0  0  0
    3.0102   -3.0874   -0.9896 C   0  0  0  0  0  0  0  0  0  0  0  0
    2.6042   -3.0538   -2.3379 C   0  0  0  0  0  0  0  0  0  0  0  0
    2.4554   -4.0190   -0.1539 O   0  0  0  0  0  0  0  0  0  0  0  0
    3.4113   -4.5854    0.7236 C   0  0  0  0  0  0  0  0  0  0  0  0
    3.9821   -3.5394    1.7148 C   0  0  1  0  0  0  0  0  0  0  0  0
    4.3488   -2.1919    0.9813 C   0  0  2  0  0  0  0  0  0  0  0  0
    3.7478   -0.9992    1.6512 N   0  0  2  0  0  0  0  0  0  0  0  0
    4.4314   -0.5023    2.8735 C   0  0  0  0  0  0  0  0  0  0  0  0
    5.0218   -1.6052    3.7566 C   0  0  0  0  0  0  0  0  0  0  0  0
    4.1055   -2.7747    4.1821 C   0  0  2  0  0  0  0  0  0  0  0  0
    5.0350   -3.8592    4.7959 C   0  0  0  0  0  0  0  0  0  0  0  0
    4.3194   -5.1366    5.2344 C   0  0  0  0  0  0  0  0  0  0  0  0
    3.4705   -5.6863    4.0918 C   0  0  0  0  0  0  0  0  0  0  0  0
    2.4887   -4.6133    3.6146 C   0  0  0  0  0  0  0  0  0  0  0  0
    3.1666   -3.3298    3.0478 C   0  0  2  0  0  0  0  0  0  0  0  0
    1.9903   -2.3464    2.7865 C   0  0  0  0  0  0  0  0  0  0  0  0
    2.3016   -1.1541    1.8747 C   0  0  0  0  0  0  0  0  0  0  0  0
    2.8683   -2.1129   -4.2576 H   0  0  0  0  0  0  0  0  0  0  0  0
    4.6167   -0.5426   -3.4529 H   0  0  0  0  0  0  0  0  0  0  0  0
    5.3307   -0.5754   -1.0675 H   0  0  0  0  0  0  0  0  0  0  0  0
    1.8506   -3.7426   -2.6932 H   0  0  0  0  0  0  0  0  0  0  0  0
    2.9760   -5.4542    1.2124 H   0  0  0  0  0  0  0  0  0  0  0  0
    4.2265   -4.9940    0.1208 H   0  0  0  0  0  0  0  0  0  0  0  0
    4.9282   -3.9840    2.0189 H   0  0  0  0  0  0  0  0  0  0  0  0
    5.4315   -2.0736    1.0051 H   0  0  0  0  0  0  0  0  0  0  0  0
    5.2527    0.1417    2.5614 H   0  0  0  0  0  0  0  0  0  0  0  0
    3.7699    0.1371    3.4609 H   0  0  0  0  0  0  0  0  0  0  0  0
    5.8982   -2.0017    3.2453 H   0  0  0  0  0  0  0  0  0  0  0  0
    5.4153   -1.1312    4.6573 H   0  0  0  0  0  0  0  0  0  0  0  0
    3.4699   -2.4086    4.9906 H   0  0  0  0  0  0  0  0  0  0  0  0
    5.8114   -4.1369    4.0823 H   0  0  0  0  0  0  0  0  0  0  0  0
    5.5608   -3.4445    5.6568 H   0  0  0  0  0  0  0  0  0  0  0  0
    5.0525   -5.8832    5.5398 H   0  0  0  0  0  0  0  0  0  0  0  0
    3.6975   -4.9423    6.1086 H   0  0  0  0  0  0  0  0  0  0  0  0
    4.1071   -6.0219    3.2730 H   0  0  0  0  0  0  0  0  0  0  0  0
    2.9223   -6.5621    4.4376 H   0  0  0  0  0  0  0  0  0  0  0  0
    1.7744   -5.0404    2.9119 H   0  0  0  0  0  0  0  0  0  0  0  0
    1.8811   -4.3296    4.4750 H   0  0  0  0  0  0  0  0  0  0  0  0
    1.1784   -2.8838    2.3051 H   0  0  0  0  0  0  0  0  0  0  0  0
    1.5670   -1.9862    3.7257 H   0  0  0  0  0  0  0  0  0  0  0  0
    1.8726   -0.2355    2.2769 H   0  0  0  0  0  0  0  0  0  0  0  0
    1.8274   -1.2956    0.9075 H   0  0  0  0  0  0  0  0  0  0  0  0
    3.8266   -0.2459    0.9843 H   0  0  0  0  0  0  0  0  0  0  0  0
  1  6  2  0
  1  2  1  0
  1 22  1  0
  2  3  2  0
  2 23  1  0
  3  4  1  0
  3 24  1  0
  4 10  1  0
  4  5  2  0
  5  6  1  0
  5  7  1  0
  6 25  1  0
  7  8  1  0
  8  9  1  0
  8 26  1  0
  8 27  1  0
  9 19  1  0
  9 10  1  0
  9 28  1  1
 10 11  1  0
 10 29  1  6
 11 21  1  0
 11 12  1  0
 11 47  1  6
 12 13  1  0
 12 30  1  0
 12 31  1  0
 13 14  1  0
 13 32  1  0
 13 33  1  0
 14 19  1  0
 14 15  1  0
 14 34  1  1
 15 16  1  0
 15 35  1  0
 15 36  1  0
 16 17  1  0
 16 37  1  0
 16 38  1  0
 17 18  1  0
 17 39  1  0
 17 40  1  0
 19 18  1  1
 18 41  1  0
 18 42  1  0
 19 20  1  0
 20 21  1  0
 20 43  1  0
 20 44  1  0
 21 45  1  0
 21 46  1  0
M  CHG  1  11   1
M  END
>  <i_m_ct_stereo_status>  (462) 
1

>  <s_m_source_file>  (462) 
/var/tmp/pbs.5076255.sched01/tmpk5ywl0l3/150lwq6_0yz.sdf

>  <i_m_source_file_index>  (462) 
37

>  <i_lp_mmshare_version>  (462) 
48012

>  <i_f3d_flags>  (462) 
0

>  <s_epik_input>  (462) 
W2NIXTFbY0hdW2NIXVtjSF1jKE9bQ0gyXTIpYzFbQ0BIXShbQ0BIXTJbQ0BdMzQ1KU4oW0NIMl1bQ0gyXTUpW0NIMl1bQ0gyXVtDQEBIXTNbQ0gyXVtDSDJdW0NIMl1bQ0gyXTQ=

>  <s_epik_cmdline>  (462) 
J2VwaWtfcHl0aG9uJywgJy1waHQnLCAnMi4wJywgJy1waCcsICc3LjAnLCAnLXRuJywgJzgnLCAnLW1hJywgJzIwMCcsICctaW1hZScsICc8aW5maWxlLm1hZT4nLCAnLW9tYWUnLCAnPG91dGZpbGUubWFlPic=

>  <r_lp_tautomer_probability>  (462) 
1

>  <r_epik_Ionization_Penalty>  (462) 
0.00427277

>  <r_epik_Ionization_Penalty_Charging>  (462) 
0.00427277

>  <r_epik_Ionization_Penalty_Neutral>  (462) 
0

>  <r_epik_State_Penalty>  (462) 
0.00307306

>  <r_epik_Charging_Adjusted_Penalty>  (462) 
0.00734583

>  <i_epik_Tot_Q>  (462) 
1

>  <i_epik_Tot_abs_Q>  (462) 
1

>  <s_lp_Force_Field>  (462) 
OPLS3e

>  <r_lp_Energy>  (462) 
61.0368

>  <b_lp_Chiralities_Consistent>  (462) 
1

>  <s_lp_Variant>  (462) 
111:0-1

>  <s_i_glide_gridfile>  (462) 
pfpi4k_grid

>  <i_i_glide_lignum>  (462) 
37

>  <i_i_glide_rotatable_bonds>  (462) 
0

>  <r_i_docking_score>  (462) 
-3.15539

>  <r_i_glide_ligand_efficiency>  (462) 
-0.150256

>  <r_i_glide_ligand_efficiency_sa>  (462) 
-0.414546

>  <r_i_glide_ligand_efficiency_ln>  (462) 
-0.780163

>  <r_i_glide_gscore>  (462) 
-3.15539

>  <r_i_glide_lipo>  (462) 
-0.260471

>  <r_i_glide_hbond>  (462) 
0

>  <r_i_glide_metal>  (462) 
-0

>  <r_i_glide_rewards>  (462) 
-1.46989

>  <r_i_glide_evdw>  (462) 
-20.5496

>  <r_i_glide_ecoul>  (462) 
-2.61257

>  <r_i_glide_erotb>  (462) 
0

>  <r_i_glide_esite>  (462) 
-0.00565573

>  <r_i_glide_emodel>  (462) 
-27.6249

>  <r_i_glide_energy>  (462) 
-23.1622

>  <r_i_glide_einternal>  (462) 
0

>  <r_i_glide_intrahb_reward>  (462) 
-0

>  <i_i_glide_confnum>  (462) 
1

>  <i_i_glide_posenum>  (462) 
26

>  <r_i_glide_eff_state_penalty>  (462) 
0

>  <ligand_id>  (462) 
111

>  <original_smiles>  (462) 
c1ccc2c(c1)OCC1C2N2CCC3CCCCC31CC2

>  <smiles>  (462) 
[H]c1c([H])c([H])c2c(c1[H])OC([H])([H])C1([H])C34C([H])([H])C([H])([H])C([H])([H])C([H])([H])C3([H])C([H])([H])C([H])([H])[N+]([H])(C([H])([H])C4([H])[H])C21[H]

$$$$
113:0:0
     RDKit          3D

 25 27  0  0  1  0  0  0  0  0999 V2000
    2.1079  -11.4924    3.6785 C   0  0  0  0  0  0  0  0  0  0  0  0
    0.9899  -10.2760    2.9224 S   0  0  0  0  0  0  0  0  0  0  0  0
    2.2096   -9.0771    2.3343 C   0  0  0  0  0  0  0  0  0  0  0  0
    1.8723   -7.9577    1.8061 N   0  0  0  0  0  0  0  0  0  0  0  0
    2.9467   -7.1780    1.4619 N   0  0  0  0  0  0  0  0  0  0  0  0
    2.8037   -5.9618    0.8757 C   0  0  0  0  0  0  0  0  0  0  0  0
    1.7128   -5.4821    0.5858 O   0  0  0  0  0  0  0  0  0  0  0  0
    4.0840   -5.2300    0.5580 C   0  0  0  0  0  0  0  0  0  0  0  0
    4.0773   -3.9588   -0.0578 C   0  0  0  0  0  0  0  0  0  0  0  0
    5.3190   -3.3296   -0.3307 C   0  0  0  0  0  0  0  0  0  0  0  0
    6.5462   -3.9515    0.0124 C   0  0  0  0  0  0  0  0  0  0  0  0
    7.8658   -3.3035   -0.3158 C   0  0  0  0  0  0  0  0  0  0  0  0
    8.9398   -3.8503    0.0363 O   0  0  0  0  0  0  0  0  0  0  0  0
    7.8282   -2.2449   -0.9582 O   0  0  0  0  0  0  0  0  0  0  0  0
    6.5275   -5.2204    0.6226 C   0  0  0  0  0  0  0  0  0  0  0  0
    5.3065   -5.8649    0.8839 C   0  0  0  0  0  0  0  0  0  0  0  0
    5.3314   -7.1450    1.4605 N   0  0  0  0  0  0  0  0  0  0  0  0
    4.2104   -7.7307    1.7232 C   0  0  0  0  0  0  0  0  0  0  0  0
    3.9603   -9.3469    2.4647 S   0  0  0  0  0  0  0  0  0  0  0  0
    1.5412  -12.3092    4.1240 H   0  0  0  0  0  0  0  0  0  0  0  0
    2.6824  -11.0163    4.4742 H   0  0  0  0  0  0  0  0  0  0  0  0
    2.7902  -11.9137    2.9393 H   0  0  0  0  0  0  0  0  0  0  0  0
    3.1309   -3.4864   -0.3163 H   0  0  0  0  0  0  0  0  0  0  0  0
    5.3262   -2.3647   -0.8135 H   0  0  0  0  0  0  0  0  0  0  0  0
    7.4535   -5.7344    0.8590 H   0  0  0  0  0  0  0  0  0  0  0  0
  1  2  1  0
  1 20  1  0
  1 21  1  0
  1 22  1  0
  2  3  1  0
  3 19  1  0
  3  4  2  0
  4  5  1  0
  5 18  1  0
  5  6  1  0
  6  7  2  0
  6  8  1  0
  8 16  2  0
  8  9  1  0
  9 10  2  0
  9 23  1  0
 10 11  1  0
 10 24  1  0
 11 12  1  0
 11 15  2  0
 12 13  2  0
 12 14  1  0
 15 16  1  0
 15 25  1  0
 16 17  1  0
 17 18  2  0
 18 19  1  0
M  CHG  1  14  -1
M  END
>  <i_m_ct_stereo_status>  (463) 
1

>  <s_m_source_file>  (463) 
/var/tmp/pbs.5076255.sched01/tmpk5ywl0l3/150lwq6_0yz.sdf

>  <i_m_source_file_index>  (463) 
39

>  <i_lp_mmshare_version>  (463) 
48012

>  <i_f3d_flags>  (463) 
0

>  <s_epik_input>  (463) 
W0NIM11TYyhuMSlzYyhuMTIpbmMzYyhjMj1PKVtjSF1bY0hdYyhbY0hdMylDKD1PKVtPSF0=

>  <s_epik_cmdline>  (463) 
J2VwaWtfcHl0aG9uJywgJy1waHQnLCAnMi4wJywgJy1waCcsICc3LjAnLCAnLXRuJywgJzgnLCAnLW1hJywgJzIwMCcsICctaW1hZScsICc8aW5maWxlLm1hZT4nLCAnLW9tYWUnLCAnPG91dGZpbGUubWFlPic=

>  <r_lp_tautomer_probability>  (463) 
1

>  <r_epik_Ionization_Penalty>  (463) 
7.43731e-05

>  <r_epik_Ionization_Penalty_Charging>  (463) 
7.4372e-05

>  <r_epik_Ionization_Penalty_Neutral>  (463) 
1.1067e-09

>  <r_epik_State_Penalty>  (463) 
-0

>  <r_epik_Charging_Adjusted_Penalty>  (463) 
7.4372e-05

>  <i_epik_Tot_Q>  (463) 
-1

>  <i_epik_Tot_abs_Q>  (463) 
1

>  <s_lp_Force_Field>  (463) 
OPLS3e

>  <r_lp_Energy>  (463) 
39.6298

>  <b_lp_Chiralities_Consistent>  (463) 
1

>  <s_lp_Variant>  (463) 
113:0-1

>  <s_i_glide_gridfile>  (463) 
pfpi4k_grid

>  <i_i_glide_lignum>  (463) 
39

>  <i_i_glide_rotatable_bonds>  (463) 
2

>  <r_i_docking_score>  (463) 
-4.84433

>  <r_i_glide_ligand_efficiency>  (463) 
-0.254965

>  <r_i_glide_ligand_efficiency_sa>  (463) 
-0.680349

>  <r_i_glide_ligand_efficiency_ln>  (463) 
-1.22814

>  <r_i_glide_gscore>  (463) 
-4.84433

>  <r_i_glide_lipo>  (463) 
-0.578016

>  <r_i_glide_hbond>  (463) 
-0.409634

>  <r_i_glide_metal>  (463) 
-0

>  <r_i_glide_rewards>  (463) 
-1.78189

>  <r_i_glide_evdw>  (463) 
-24.632

>  <r_i_glide_ecoul>  (463) 
-5.62125

>  <r_i_glide_erotb>  (463) 
0

>  <r_i_glide_esite>  (463) 
0

>  <r_i_glide_emodel>  (463) 
-42.6142

>  <r_i_glide_energy>  (463) 
-30.2533

>  <r_i_glide_einternal>  (463) 
0.990497

>  <r_i_glide_intrahb_reward>  (463) 
-0

>  <i_i_glide_confnum>  (463) 
2

>  <i_i_glide_posenum>  (463) 
11

>  <r_i_glide_eff_state_penalty>  (463) 
0

>  <ligand_id>  (463) 
113

>  <original_smiles>  (463) 
CSc1nn2c(=O)c3ccc(C(=O)O)cc3nc2s1

>  <smiles>  (463) 
[H]c1c(C(=O)[O-])c([H])c2nc3sc(SC([H])([H])[H])nn3c(=O)c2c1[H]

$$$$
113:0:1
     RDKit          3D

 25 27  0  0  1  0  0  0  0  0999 V2000
   -0.5013   -9.2959    2.7518 C   0  0  0  0  0  0  0  0  0  0  0  0
    0.9989  -10.2900    2.9504 S   0  0  0  0  0  0  0  0  0  0  0  0
    2.2194   -9.1025    2.3720 C   0  0  0  0  0  0  0  0  0  0  0  0
    1.8991   -7.9648    1.8636 N   0  0  0  0  0  0  0  0  0  0  0  0
    2.9712   -7.2089    1.5079 N   0  0  0  0  0  0  0  0  0  0  0  0
    2.8220   -5.9905    0.9352 C   0  0  0  0  0  0  0  0  0  0  0  0
    1.7264   -5.4864    0.6814 O   0  0  0  0  0  0  0  0  0  0  0  0
    4.0945   -5.2682    0.6084 C   0  0  0  0  0  0  0  0  0  0  0  0
    4.0895   -3.9872    0.0083 C   0  0  0  0  0  0  0  0  0  0  0  0
    5.3194   -3.3562   -0.2766 C   0  0  0  0  0  0  0  0  0  0  0  0
    6.5463   -3.9856    0.0402 C   0  0  0  0  0  0  0  0  0  0  0  0
    7.8602   -3.3256   -0.2921 C   0  0  0  0  0  0  0  0  0  0  0  0
    8.9306   -3.8810    0.0540 O   0  0  0  0  0  0  0  0  0  0  0  0
    7.8179   -2.2465   -0.9154 O   0  0  0  0  0  0  0  0  0  0  0  0
    6.5296   -5.2647    0.6386 C   0  0  0  0  0  0  0  0  0  0  0  0
    5.3157   -5.9172    0.9182 C   0  0  0  0  0  0  0  0  0  0  0  0
    5.3573   -7.1996    1.4933 N   0  0  0  0  0  0  0  0  0  0  0  0
    4.2313   -7.7860    1.7578 C   0  0  0  0  0  0  0  0  0  0  0  0
    3.9539   -9.4200    2.4806 S   0  0  0  0  0  0  0  0  0  0  0  0
   -1.3724   -9.8713    3.0653 H   0  0  0  0  0  0  0  0  0  0  0  0
   -0.6306   -8.9877    1.7123 H   0  0  0  0  0  0  0  0  0  0  0  0
   -0.4265   -8.4083    3.3773 H   0  0  0  0  0  0  0  0  0  0  0  0
    3.1520   -3.4935   -0.2361 H   0  0  0  0  0  0  0  0  0  0  0  0
    5.3154   -2.3819   -0.7449 H   0  0  0  0  0  0  0  0  0  0  0  0
    7.4553   -5.7735    0.8621 H   0  0  0  0  0  0  0  0  0  0  0  0
  1  2  1  0
  1 20  1  0
  1 21  1  0
  1 22  1  0
  2  3  1  0
  3 19  1  0
  3  4  2  0
  4  5  1  0
  5 18  1  0
  5  6  1  0
  6  7  2  0
  6  8  1  0
  8 16  2  0
  8  9  1  0
  9 10  2  0
  9 23  1  0
 10 11  1  0
 10 24  1  0
 11 12  1  0
 11 15  2  0
 12 13  2  0
 12 14  1  0
 15 16  1  0
 15 25  1  0
 16 17  1  0
 17 18  2  0
 18 19  1  0
M  CHG  1  14  -1
M  END
>  <i_m_ct_stereo_status>  (464) 
1

>  <s_m_source_file>  (464) 
/var/tmp/pbs.5076255.sched01/tmpk5ywl0l3/150lwq6_0yz.sdf

>  <i_m_source_file_index>  (464) 
39

>  <i_lp_mmshare_version>  (464) 
48012

>  <i_f3d_flags>  (464) 
0

>  <s_epik_input>  (464) 
W0NIM11TYyhuMSlzYyhuMTIpbmMzYyhjMj1PKVtjSF1bY0hdYyhbY0hdMylDKD1PKVtPSF0=

>  <s_epik_cmdline>  (464) 
J2VwaWtfcHl0aG9uJywgJy1waHQnLCAnMi4wJywgJy1waCcsICc3LjAnLCAnLXRuJywgJzgnLCAnLW1hJywgJzIwMCcsICctaW1hZScsICc8aW5maWxlLm1hZT4nLCAnLW9tYWUnLCAnPG91dGZpbGUubWFlPic=

>  <r_lp_tautomer_probability>  (464) 
1

>  <r_epik_Ionization_Penalty>  (464) 
7.43731e-05

>  <r_epik_Ionization_Penalty_Charging>  (464) 
7.4372e-05

>  <r_epik_Ionization_Penalty_Neutral>  (464) 
1.1067e-09

>  <r_epik_State_Penalty>  (464) 
-0

>  <r_epik_Charging_Adjusted_Penalty>  (464) 
7.4372e-05

>  <i_epik_Tot_Q>  (464) 
-1

>  <i_epik_Tot_abs_Q>  (464) 
1

>  <s_lp_Force_Field>  (464) 
OPLS3e

>  <r_lp_Energy>  (464) 
39.6298

>  <b_lp_Chiralities_Consistent>  (464) 
1

>  <s_lp_Variant>  (464) 
113:0-1

>  <s_i_glide_gridfile>  (464) 
pfpi4k_grid

>  <i_i_glide_lignum>  (464) 
39

>  <i_i_glide_rotatable_bonds>  (464) 
2

>  <r_i_docking_score>  (464) 
-4.77019

>  <r_i_glide_ligand_efficiency>  (464) 
-0.251063

>  <r_i_glide_ligand_efficiency_sa>  (464) 
-0.669936

>  <r_i_glide_ligand_efficiency_ln>  (464) 
-1.20935

>  <r_i_glide_gscore>  (464) 
-4.77019

>  <r_i_glide_lipo>  (464) 
-0.560492

>  <r_i_glide_hbond>  (464) 
-0.404948

>  <r_i_glide_metal>  (464) 
-0

>  <r_i_glide_rewards>  (464) 
-1.78465

>  <r_i_glide_evdw>  (464) 
-24.8578

>  <r_i_glide_ecoul>  (464) 
-5.1814

>  <r_i_glide_erotb>  (464) 
0

>  <r_i_glide_esite>  (464) 
0

>  <r_i_glide_emodel>  (464) 
-42.7392

>  <r_i_glide_energy>  (464) 
-30.0392

>  <r_i_glide_einternal>  (464) 
0.158597

>  <r_i_glide_intrahb_reward>  (464) 
-0

>  <i_i_glide_confnum>  (464) 
2

>  <i_i_glide_posenum>  (464) 
3

>  <r_i_glide_eff_state_penalty>  (464) 
0

>  <ligand_id>  (464) 
113

>  <original_smiles>  (464) 
CSc1nn2c(=O)c3ccc(C(=O)O)cc3nc2s1

>  <smiles>  (464) 
[H]c1c(C(=O)[O-])c([H])c2nc3sc(SC([H])([H])[H])nn3c(=O)c2c1[H]

$$$$
113:0:2
     RDKit          3D

 25 27  0  0  1  0  0  0  0  0999 V2000
   -1.4654    3.1257    3.2111 C   0  0  0  0  0  0  0  0  0  0  0  0
   -1.3859    1.6079    4.1995 S   0  0  0  0  0  0  0  0  0  0  0  0
    0.0609    0.8598    3.4299 C   0  0  0  0  0  0  0  0  0  0  0  0
    0.3918   -0.3608    3.6414 N   0  0  0  0  0  0  0  0  0  0  0  0
    1.4930   -0.7416    2.9186 N   0  0  0  0  0  0  0  0  0  0  0  0
    1.9931   -2.0040    2.9757 C   0  0  0  0  0  0  0  0  0  0  0  0
    1.5016   -2.9128    3.6515 O   0  0  0  0  0  0  0  0  0  0  0  0
    3.2263   -2.2465    2.1473 C   0  0  0  0  0  0  0  0  0  0  0  0
    3.8665   -3.5039    2.1205 C   0  0  0  0  0  0  0  0  0  0  0  0
    5.0217   -3.6691    1.3266 C   0  0  0  0  0  0  0  0  0  0  0  0
    5.5311   -2.5977    0.5592 C   0  0  0  0  0  0  0  0  0  0  0  0
    6.7462   -2.7592   -0.3003 C   0  0  0  0  0  0  0  0  0  0  0  0
    7.0121   -1.8586   -1.1238 O   0  0  0  0  0  0  0  0  0  0  0  0
    7.4627   -3.7780   -0.1672 O   0  0  0  0  0  0  0  0  0  0  0  0
    4.8781   -1.3467    0.5976 C   0  0  0  0  0  0  0  0  0  0  0  0
    3.7381   -1.1674    1.3902 C   0  0  0  0  0  0  0  0  0  0  0  0
    3.1408    0.0959    1.4032 N   0  0  0  0  0  0  0  0  0  0  0  0
    2.0807    0.2568    2.1246 C   0  0  0  0  0  0  0  0  0  0  0  0
    1.1207    1.7487    2.3195 S   0  0  0  0  0  0  0  0  0  0  0  0
   -2.3043    3.7457    3.5235 H   0  0  0  0  0  0  0  0  0  0  0  0
   -1.5927    2.8531    2.1644 H   0  0  0  0  0  0  0  0  0  0  0  0
   -0.5557    3.7196    3.3033 H   0  0  0  0  0  0  0  0  0  0  0  0
    3.4756   -4.3323    2.7001 H   0  0  0  0  0  0  0  0  0  0  0  0
    5.5200   -4.6306    1.2885 H   0  0  0  0  0  0  0  0  0  0  0  0
    5.2531   -0.5048    0.0214 H   0  0  0  0  0  0  0  0  0  0  0  0
  1  2  1  0
  1 20  1  0
  1 21  1  0
  1 22  1  0
  2  3  1  0
  3 19  1  0
  3  4  2  0
  4  5  1  0
  5 18  1  0
  5  6  1  0
  6  7  2  0
  6  8  1  0
  8 16  2  0
  8  9  1  0
  9 10  2  0
  9 23  1  0
 10 11  1  0
 10 24  1  0
 11 12  1  0
 11 15  2  0
 12 13  2  0
 12 14  1  0
 15 16  1  0
 15 25  1  0
 16 17  1  0
 17 18  2  0
 18 19  1  0
M  CHG  1  14  -1
M  END
>  <i_m_ct_stereo_status>  (465) 
1

>  <s_m_source_file>  (465) 
/var/tmp/pbs.5076255.sched01/tmpk5ywl0l3/150lwq6_0yz.sdf

>  <i_m_source_file_index>  (465) 
39

>  <i_lp_mmshare_version>  (465) 
48012

>  <i_f3d_flags>  (465) 
0

>  <s_epik_input>  (465) 
W0NIM11TYyhuMSlzYyhuMTIpbmMzYyhjMj1PKVtjSF1bY0hdYyhbY0hdMylDKD1PKVtPSF0=

>  <s_epik_cmdline>  (465) 
J2VwaWtfcHl0aG9uJywgJy1waHQnLCAnMi4wJywgJy1waCcsICc3LjAnLCAnLXRuJywgJzgnLCAnLW1hJywgJzIwMCcsICctaW1hZScsICc8aW5maWxlLm1hZT4nLCAnLW9tYWUnLCAnPG91dGZpbGUubWFlPic=

>  <r_lp_tautomer_probability>  (465) 
1

>  <r_epik_Ionization_Penalty>  (465) 
7.43731e-05

>  <r_epik_Ionization_Penalty_Charging>  (465) 
7.4372e-05

>  <r_epik_Ionization_Penalty_Neutral>  (465) 
1.1067e-09

>  <r_epik_State_Penalty>  (465) 
-0

>  <r_epik_Charging_Adjusted_Penalty>  (465) 
7.4372e-05

>  <i_epik_Tot_Q>  (465) 
-1

>  <i_epik_Tot_abs_Q>  (465) 
1

>  <s_lp_Force_Field>  (465) 
OPLS3e

>  <r_lp_Energy>  (465) 
39.6298

>  <b_lp_Chiralities_Consistent>  (465) 
1

>  <s_lp_Variant>  (465) 
113:0-1

>  <s_i_glide_gridfile>  (465) 
pfpi4k_grid

>  <i_i_glide_lignum>  (465) 
39

>  <i_i_glide_rotatable_bonds>  (465) 
2

>  <r_i_docking_score>  (465) 
-3.51132

>  <r_i_glide_ligand_efficiency>  (465) 
-0.184806

>  <r_i_glide_ligand_efficiency_sa>  (465) 
-0.493137

>  <r_i_glide_ligand_efficiency_ln>  (465) 
-0.890194

>  <r_i_glide_gscore>  (465) 
-3.51132

>  <r_i_glide_lipo>  (465) 
-0.12185

>  <r_i_glide_hbond>  (465) 
-0.2

>  <r_i_glide_metal>  (465) 
-0

>  <r_i_glide_rewards>  (465) 
-1.44242

>  <r_i_glide_evdw>  (465) 
-23.2825

>  <r_i_glide_ecoul>  (465) 
-3.51882

>  <r_i_glide_erotb>  (465) 
0

>  <r_i_glide_esite>  (465) 
-0.0551013

>  <r_i_glide_emodel>  (465) 
-35.2308

>  <r_i_glide_energy>  (465) 
-26.8013

>  <r_i_glide_einternal>  (465) 
1.33592

>  <r_i_glide_intrahb_reward>  (465) 
-0

>  <i_i_glide_confnum>  (465) 
1

>  <i_i_glide_posenum>  (465) 
16

>  <r_i_glide_eff_state_penalty>  (465) 
0

>  <ligand_id>  (465) 
113

>  <original_smiles>  (465) 
CSc1nn2c(=O)c3ccc(C(=O)O)cc3nc2s1

>  <smiles>  (465) 
[H]c1c(C(=O)[O-])c([H])c2nc3sc(SC([H])([H])[H])nn3c(=O)c2c1[H]

$$$$
114:0:0
     RDKit          3D

 47 51  0  0  1  0  0  0  0  0999 V2000
    3.4879    0.1529    3.9942 C   0  0  0  0  0  0  0  0  0  0  0  0
    3.4533   -1.0215    2.9608 C   0  0  2  0  0  0  0  0  0  0  0  0
    3.5348   -2.4268    3.7118 C   0  0  0  0  0  0  0  0  0  0  0  0
    3.1976   -3.7519    2.9580 C   0  0  2  0  0  0  0  0  0  0  0  0
    1.8488   -3.6836    2.5239 O   0  0  0  0  0  0  0  0  0  0  0  0
    3.3068   -4.9506    3.9272 C   0  0  1  0  0  0  0  0  0  0  0  0
    2.2757   -4.9828    4.8896 O   0  0  0  0  0  0  0  0  0  0  0  0
    3.3477   -6.0968    3.1150 O   0  0  0  0  0  0  0  0  0  0  0  0
    3.7626   -5.7699    1.8171 C   0  0  1  0  0  0  0  0  0  0  0  0
    2.7262   -5.9429    0.8684 O   0  0  0  0  0  0  0  0  0  0  0  0
    4.2201   -4.2938    1.9110 C   0  0  1  0  0  0  0  0  0  0  0  0
    4.6496   -3.5889    0.5462 C   0  0  1  0  0  0  0  0  0  0  0  0
    5.2628   -4.6478   -0.4136 C   0  0  0  0  0  0  0  0  0  0  0  0
    3.4968   -2.7986   -0.1478 C   0  0  2  0  0  0  0  0  0  0  0  0
    3.9440   -2.1615   -1.4725 C   0  0  0  0  0  0  0  0  0  0  0  0
    4.9531   -1.0595   -1.1201 C   0  0  0  0  0  0  0  0  0  0  0  0
    5.3314   -1.1000    0.3976 C   0  0  2  0  0  0  0  0  0  0  0  0
    5.7867   -2.5289    0.7464 C   0  0  1  0  0  0  0  0  0  0  0  0
    6.0621   -2.2111    2.0564 O   0  0  0  0  0  0  0  0  0  0  0  0
    5.5065   -1.0614    2.3609 C   0  0  0  0  0  0  0  0  0  0  0  0
    6.0599   -0.2571    3.1156 O   0  0  0  0  0  0  0  0  0  0  0  0
    4.2048   -0.7267    1.5177 C   0  0  2  0  0  0  0  0  0  0  0  0
    3.0919   -1.5706    0.7142 C   0  0  0  0  0  0  0  0  0  0  0  0
    4.3230    0.0996    4.6920 H   0  0  0  0  0  0  0  0  0  0  0  0
    2.5958    0.1547    4.6222 H   0  0  0  0  0  0  0  0  0  0  0  0
    3.5368    1.1196    3.4870 H   0  0  0  0  0  0  0  0  0  0  0  0
    2.3838   -0.8660    2.8165 H   0  0  0  0  0  0  0  0  0  0  0  0
    4.4884   -2.5442    4.2272 H   0  0  0  0  0  0  0  0  0  0  0  0
    2.8256   -2.3540    4.5350 H   0  0  0  0  0  0  0  0  0  0  0  0
    1.7574   -2.9527    1.9330 H   0  0  0  0  0  0  0  0  0  0  0  0
    4.2514   -4.9181    4.4823 H   0  0  0  0  0  0  0  0  0  0  0  0
    2.4526   -5.7050    5.4749 H   0  0  0  0  0  0  0  0  0  0  0  0
    4.5786   -6.4429    1.5472 H   0  0  0  0  0  0  0  0  0  0  0  0
    3.0838   -5.8001    0.0023 H   0  0  0  0  0  0  0  0  0  0  0  0
    5.1644   -4.3898    2.4510 H   0  0  0  0  0  0  0  0  0  0  0  0
    5.8198   -4.1838   -1.2262 H   0  0  0  0  0  0  0  0  0  0  0  0
    4.5081   -5.2716   -0.8879 H   0  0  0  0  0  0  0  0  0  0  0  0
    5.9751   -5.2960    0.1023 H   0  0  0  0  0  0  0  0  0  0  0  0
    2.6420   -3.4497   -0.3371 H   0  0  0  0  0  0  0  0  0  0  0  0
    4.3556   -2.8780   -2.1834 H   0  0  0  0  0  0  0  0  0  0  0  0
    3.0826   -1.7152   -1.9779 H   0  0  0  0  0  0  0  0  0  0  0  0
    5.8487   -1.2109   -1.7197 H   0  0  0  0  0  0  0  0  0  0  0  0
    4.5611   -0.0807   -1.3963 H   0  0  0  0  0  0  0  0  0  0  0  0
    6.1691   -0.3740    0.3423 H   0  0  0  0  0  0  0  0  0  0  0  0
    6.7011   -2.7936    0.2152 H   0  0  0  0  0  0  0  0  0  0  0  0
    2.6540   -0.8124    0.0606 H   0  0  0  0  0  0  0  0  0  0  0  0
    2.1536   -1.8328    1.1715 H   0  0  0  0  0  0  0  0  0  0  0  0
  1  2  1  0
  1 24  1  0
  1 25  1  0
  1 26  1  0
  2 22  1  0
  2  3  1  0
  2 27  1  6
  3  4  1  0
  3 28  1  0
  3 29  1  0
  4 11  1  0
  4  5  1  6
  4  6  1  0
  5 30  1  0
  6  7  1  0
  6  8  1  0
  6 31  1  1
  7 32  1  0
  8  9  1  0
  9 10  1  0
  9 11  1  0
  9 33  1  6
 10 34  1  0
 11 12  1  0
 11 35  1  1
 12 18  1  0
 12 13  1  6
 12 14  1  0
 13 36  1  0
 13 37  1  0
 13 38  1  0
 14 23  1  0
 14 15  1  0
 14 39  1  6
 15 16  1  0
 15 40  1  0
 15 41  1  0
 16 17  1  0
 16 42  1  0
 16 43  1  0
 17 22  1  0
 17 18  1  0
 17 44  1  6
 18 19  1  0
 18 45  1  6
 19 20  1  0
 20 21  2  0
 22 20  1  6
 22 23  1  0
 23 46  1  0
 23 47  1  0
M  END
>  <i_m_ct_stereo_status>  (466) 
1

>  <s_m_source_file>  (466) 
/var/tmp/pbs.5076255.sched01/tmpk5ywl0l3/150lwq6_0yz.sdf

>  <i_m_source_file_index>  (466) 
40

>  <i_lp_mmshare_version>  (466) 
48012

>  <i_f3d_flags>  (466) 
0

>  <s_epik_input>  (466) 
W09IXVtDQEBIXTFPW0NASF0oW09IXSlbQ0BAXShbT0hdKShbQ0gyXVtDQEhdMltDSDNdKVtDQEBIXTFbQ0BAXShbQ0gzXSkoW0NAQEhdKFtDSDJdMylbQ0gyXVtDSDJdNClbQ0BASF0oW0NAQEhdNEMyMzUpT0M1PU8=

>  <s_epik_cmdline>  (466) 
J2VwaWtfcHl0aG9uJywgJy1waHQnLCAnMi4wJywgJy1waCcsICc3LjAnLCAnLXRuJywgJzgnLCAnLW1hJywgJzIwMCcsICctaW1hZScsICc8aW5maWxlLm1hZT4nLCAnLW9tYWUnLCAnPG91dGZpbGUubWFlPic=

>  <r_lp_tautomer_probability>  (466) 
1

>  <r_epik_Ionization_Penalty>  (466) 
4.07937e-07

>  <r_epik_Ionization_Penalty_Charging>  (466) 
0

>  <r_epik_Ionization_Penalty_Neutral>  (466) 
4.07937e-07

>  <r_epik_State_Penalty>  (466) 
-0

>  <r_epik_Charging_Adjusted_Penalty>  (466) 
0

>  <i_epik_Tot_Q>  (466) 
0

>  <i_epik_Tot_abs_Q>  (466) 
0

>  <s_epik_Chemistry_Notes>  (466) 
This compound has an ester and may undergo hydrolysis at high or low pH. This compound contains an acetal/aminal-like group ( X-CH(R)-Y where X, Y are N, S, or O) that may be acid/base labile, releasing an aldehyde.

>  <s_lp_Force_Field>  (466) 
OPLS3e

>  <r_lp_Energy>  (466) 
205.516

>  <b_lp_Chiralities_Consistent>  (466) 
1

>  <s_lp_Variant>  (466) 
114:0-1

>  <s_i_glide_gridfile>  (466) 
pfpi4k_grid

>  <i_i_glide_lignum>  (466) 
40

>  <i_i_glide_rotatable_bonds>  (466) 
3

>  <r_i_docking_score>  (466) 
-3.00748

>  <r_i_glide_ligand_efficiency>  (466) 
-0.13076

>  <r_i_glide_ligand_efficiency_sa>  (466) 
-0.371864

>  <r_i_glide_ligand_efficiency_ln>  (466) 
-0.727237

>  <r_i_glide_gscore>  (466) 
-3.00748

>  <r_i_glide_lipo>  (466) 
-0.304464

>  <r_i_glide_hbond>  (466) 
-0.0403124

>  <r_i_glide_metal>  (466) 
-0

>  <r_i_glide_rewards>  (466) 
-1.37187

>  <r_i_glide_evdw>  (466) 
-19.6824

>  <r_i_glide_ecoul>  (466) 
-2.04476

>  <r_i_glide_erotb>  (466) 
0

>  <r_i_glide_esite>  (466) 
0

>  <r_i_glide_emodel>  (466) 
-24.5908

>  <r_i_glide_energy>  (466) 
-21.7271

>  <r_i_glide_einternal>  (466) 
2.25294

>  <r_i_glide_intrahb_reward>  (466) 
-0

>  <i_i_glide_confnum>  (466) 
1

>  <i_i_glide_posenum>  (466) 
12

>  <r_i_glide_eff_state_penalty>  (466) 
0

>  <ligand_id>  (466) 
114

>  <original_smiles>  (466) 
CC1CC2(O)C(O)OC(O)C2C2(C)C3CCC4C2OC(=O)C14C3

>  <smiles>  (466) 
[H]OC1([H])OC([H])(O[H])C2(O[H])C([H])([H])C([H])(C([H])([H])[H])C34C(=O)OC5([H])C3([H])C([H])([H])C([H])([H])C([H])(C4([H])[H])C5(C([H])([H])[H])C12[H]

$$$$
114:0:1
     RDKit          3D

 47 51  0  0  1  0  0  0  0  0999 V2000
    2.9889   -3.0123   -3.0678 C   0  0  0  0  0  0  0  0  0  0  0  0
    3.7027   -3.4617   -1.7451 C   0  0  2  0  0  0  0  0  0  0  0  0
    2.6252   -4.0166   -0.6847 C   0  0  0  0  0  0  0  0  0  0  0  0
    3.1003   -4.8698    0.5498 C   0  0  2  0  0  0  0  0  0  0  0  0
    3.7520   -6.0318    0.0799 O   0  0  0  0  0  0  0  0  0  0  0  0
    1.9136   -5.3490    1.4014 C   0  0  1  0  0  0  0  0  0  0  0  0
    1.0955   -6.2856    0.7482 O   0  0  0  0  0  0  0  0  0  0  0  0
    2.4170   -5.7883    2.6218 O   0  0  0  0  0  0  0  0  0  0  0  0
    3.6249   -5.1482    2.8677 C   0  0  1  0  0  0  0  0  0  0  0  0
    4.6713   -6.0857    2.8911 O   0  0  0  0  0  0  0  0  0  0  0  0
    3.7822   -4.1157    1.7143 C   0  0  1  0  0  0  0  0  0  0  0  0
    5.1626   -3.3594    1.6203 C   0  0  1  0  0  0  0  0  0  0  0  0
    5.6720   -3.1830    3.0403 C   0  0  0  0  0  0  0  0  0  0  0  0
    6.2256   -4.0629    0.7183 C   0  0  2  0  0  0  0  0  0  0  0  0
    7.5795   -3.3386    0.6841 C   0  0  0  0  0  0  0  0  0  0  0  0
    7.3637   -1.9596    0.0355 C   0  0  0  0  0  0  0  0  0  0  0  0
    5.8504   -1.6935   -0.2334 C   0  0  2  0  0  0  0  0  0  0  0  0
    5.0672   -1.8831    1.0795 C   0  0  1  0  0  0  0  0  0  0  0  0
    3.8581   -1.5570    0.5143 O   0  0  0  0  0  0  0  0  0  0  0  0
    3.9895   -1.6266   -0.7942 C   0  0  0  0  0  0  0  0  0  0  0  0
    3.4712   -0.8149   -1.5579 O   0  0  0  0  0  0  0  0  0  0  0  0
    5.0729   -2.6487   -1.2951 C   0  0  2  0  0  0  0  0  0  0  0  0
    5.7756   -3.9759   -0.7491 C   0  0  0  0  0  0  0  0  0  0  0  0
    2.1727   -2.3131   -2.9093 H   0  0  0  0  0  0  0  0  0  0  0  0
    2.5343   -3.8629   -3.5756 H   0  0  0  0  0  0  0  0  0  0  0  0
    3.6923   -2.5618   -3.7645 H   0  0  0  0  0  0  0  0  0  0  0  0
    4.1019   -4.3075   -2.2787 H   0  0  0  0  0  0  0  0  0  0  0  0
    1.9672   -3.2152   -0.3373 H   0  0  0  0  0  0  0  0  0  0  0  0
    1.9400   -4.6448   -1.2585 H   0  0  0  0  0  0  0  0  0  0  0  0
    3.5509   -6.1234   -0.8461 H   0  0  0  0  0  0  0  0  0  0  0  0
    1.3002   -4.5029    1.6795 H   0  0  0  0  0  0  0  0  0  0  0  0
    1.6453   -7.0311    0.5419 H   0  0  0  0  0  0  0  0  0  0  0  0
    3.5748   -4.6692    3.8448 H   0  0  0  0  0  0  0  0  0  0  0  0
    4.4874   -6.6851    3.6020 H   0  0  0  0  0  0  0  0  0  0  0  0
    3.0946   -3.3159    2.0043 H   0  0  0  0  0  0  0  0  0  0  0  0
    6.4010   -2.3890    2.9738 H   0  0  0  0  0  0  0  0  0  0  0  0
    6.1596   -4.0850    3.4170 H   0  0  0  0  0  0  0  0  0  0  0  0
    4.9279   -2.8455    3.7618 H   0  0  0  0  0  0  0  0  0  0  0  0
    6.3897   -5.0996    1.0286 H   0  0  0  0  0  0  0  0  0  0  0  0
    7.9856   -3.2986    1.6844 H   0  0  0  0  0  0  0  0  0  0  0  0
    8.3128   -3.8978    0.0997 H   0  0  0  0  0  0  0  0  0  0  0  0
    7.7622   -1.1762    0.6828 H   0  0  0  0  0  0  0  0  0  0  0  0
    7.9271   -1.8988   -0.9012 H   0  0  0  0  0  0  0  0  0  0  0  0
    5.9537   -0.6272   -0.5240 H   0  0  0  0  0  0  0  0  0  0  0  0
    5.3565   -1.1329    1.8177 H   0  0  0  0  0  0  0  0  0  0  0  0
    6.6608   -4.0014   -1.3870 H   0  0  0  0  0  0  0  0  0  0  0  0
    5.4210   -4.9567   -1.0181 H   0  0  0  0  0  0  0  0  0  0  0  0
  1  2  1  0
  1 24  1  0
  1 25  1  0
  1 26  1  0
  2 22  1  0
  2  3  1  0
  2 27  1  6
  3  4  1  0
  3 28  1  0
  3 29  1  0
  4 11  1  0
  4  5  1  6
  4  6  1  0
  5 30  1  0
  6  7  1  0
  6  8  1  0
  6 31  1  1
  7 32  1  0
  8  9  1  0
  9 10  1  0
  9 11  1  0
  9 33  1  1
 10 34  1  0
 11 12  1  0
 11 35  1  1
 12 18  1  0
 12 13  1  1
 12 14  1  0
 13 36  1  0
 13 37  1  0
 13 38  1  0
 14 23  1  0
 14 15  1  0
 14 39  1  1
 15 16  1  0
 15 40  1  0
 15 41  1  0
 16 17  1  0
 16 42  1  0
 16 43  1  0
 17 22  1  0
 17 18  1  0
 17 44  1  6
 18 19  1  0
 18 45  1  1
 19 20  1  0
 20 21  2  0
 22 20  1  6
 22 23  1  0
 23 46  1  0
 23 47  1  0
M  END
>  <i_m_ct_stereo_status>  (467) 
1

>  <s_m_source_file>  (467) 
/var/tmp/pbs.5076255.sched01/tmpk5ywl0l3/150lwq6_0yz.sdf

>  <i_m_source_file_index>  (467) 
40

>  <i_lp_mmshare_version>  (467) 
48012

>  <i_f3d_flags>  (467) 
0

>  <s_epik_input>  (467) 
W09IXVtDQEBIXTFPW0NASF0oW09IXSlbQ0BAXShbT0hdKShbQ0gyXVtDQEhdMltDSDNdKVtDQEBIXTFbQ0BAXShbQ0gzXSkoW0NAQEhdKFtDSDJdMylbQ0gyXVtDSDJdNClbQ0BASF0oW0NAQEhdNEMyMzUpT0M1PU8=

>  <s_epik_cmdline>  (467) 
J2VwaWtfcHl0aG9uJywgJy1waHQnLCAnMi4wJywgJy1waCcsICc3LjAnLCAnLXRuJywgJzgnLCAnLW1hJywgJzIwMCcsICctaW1hZScsICc8aW5maWxlLm1hZT4nLCAnLW9tYWUnLCAnPG91dGZpbGUubWFlPic=

>  <r_lp_tautomer_probability>  (467) 
1

>  <r_epik_Ionization_Penalty>  (467) 
4.07937e-07

>  <r_epik_Ionization_Penalty_Charging>  (467) 
0

>  <r_epik_Ionization_Penalty_Neutral>  (467) 
4.07937e-07

>  <r_epik_State_Penalty>  (467) 
-0

>  <r_epik_Charging_Adjusted_Penalty>  (467) 
0

>  <i_epik_Tot_Q>  (467) 
0

>  <i_epik_Tot_abs_Q>  (467) 
0

>  <s_epik_Chemistry_Notes>  (467) 
This compound has an ester and may undergo hydrolysis at high or low pH. This compound contains an acetal/aminal-like group ( X-CH(R)-Y where X, Y are N, S, or O) that may be acid/base labile, releasing an aldehyde.

>  <s_lp_Force_Field>  (467) 
OPLS3e

>  <r_lp_Energy>  (467) 
205.516

>  <b_lp_Chiralities_Consistent>  (467) 
1

>  <s_lp_Variant>  (467) 
114:0-1

>  <s_i_glide_gridfile>  (467) 
pfpi4k_grid

>  <i_i_glide_lignum>  (467) 
40

>  <i_i_glide_rotatable_bonds>  (467) 
3

>  <r_i_docking_score>  (467) 
-2.81645

>  <r_i_glide_ligand_efficiency>  (467) 
-0.122454

>  <r_i_glide_ligand_efficiency_sa>  (467) 
-0.348244

>  <r_i_glide_ligand_efficiency_ln>  (467) 
-0.681043

>  <r_i_glide_gscore>  (467) 
-2.81645

>  <r_i_glide_lipo>  (467) 
-0.445875

>  <r_i_glide_hbond>  (467) 
0

>  <r_i_glide_metal>  (467) 
-0

>  <r_i_glide_rewards>  (467) 
-1.19749

>  <r_i_glide_evdw>  (467) 
-6.26203

>  <r_i_glide_ecoul>  (467) 
-4.97433

>  <r_i_glide_erotb>  (467) 
0

>  <r_i_glide_esite>  (467) 
-0.113837

>  <r_i_glide_emodel>  (467) 
-13.3812

>  <r_i_glide_energy>  (467) 
-11.2364

>  <r_i_glide_einternal>  (467) 
1.43957

>  <r_i_glide_intrahb_reward>  (467) 
-0

>  <i_i_glide_confnum>  (467) 
1

>  <i_i_glide_posenum>  (467) 
5

>  <r_i_glide_eff_state_penalty>  (467) 
0

>  <ligand_id>  (467) 
114

>  <original_smiles>  (467) 
CC1CC2(O)C(O)OC(O)C2C2(C)C3CCC4C2OC(=O)C14C3

>  <smiles>  (467) 
[H]OC1([H])OC([H])(O[H])C2(O[H])C([H])([H])C([H])(C([H])([H])[H])C34C(=O)OC5([H])C3([H])C([H])([H])C([H])([H])C([H])(C4([H])[H])C5(C([H])([H])[H])C12[H]

$$$$
114:0:2
     RDKit          3D

 47 51  0  0  1  0  0  0  0  0999 V2000
    2.9784   -3.3345   -3.0459 C   0  0  0  0  0  0  0  0  0  0  0  0
    3.7111   -3.6765   -1.7031 C   0  0  2  0  0  0  0  0  0  0  0  0
    2.6481   -4.1907   -0.6018 C   0  0  0  0  0  0  0  0  0  0  0  0
    3.1214   -4.9584    0.6748 C   0  0  2  0  0  0  0  0  0  0  0  0
    3.8168   -6.1315    0.2956 O   0  0  0  0  0  0  0  0  0  0  0  0
    1.9372   -5.4189    1.5435 C   0  0  1  0  0  0  0  0  0  0  0  0
    1.1447   -6.4269    0.9480 O   0  0  0  0  0  0  0  0  0  0  0  0
    2.4424   -5.7464    2.7998 O   0  0  0  0  0  0  0  0  0  0  0  0
    3.6380   -5.0651    3.0207 C   0  0  1  0  0  0  0  0  0  0  0  0
    4.7069   -5.9832    3.1664 O   0  0  0  0  0  0  0  0  0  0  0  0
    3.7878   -4.1164    1.7849 C   0  0  1  0  0  0  0  0  0  0  0  0
    5.1406   -3.3274    1.6283 C   0  0  1  0  0  0  0  0  0  0  0  0
    5.6289   -3.0358    3.0326 C   0  0  0  0  0  0  0  0  0  0  0  0
    6.2185   -4.0774    0.7764 C   0  0  2  0  0  0  0  0  0  0  0  0
    7.5489   -3.3322    0.6928 C   0  0  0  0  0  0  0  0  0  0  0  0
    7.3202   -2.0063   -0.0444 C   0  0  0  0  0  0  0  0  0  0  0  0
    5.7998   -1.7768   -0.3140 C   0  0  2  0  0  0  0  0  0  0  0  0
    5.0089   -1.9013    1.0007 C   0  0  1  0  0  0  0  0  0  0  0  0
    3.8004   -1.6276    0.4147 O   0  0  0  0  0  0  0  0  0  0  0  0
    3.9395   -1.7777   -0.8889 C   0  0  0  0  0  0  0  0  0  0  0  0
    3.4208   -1.0464   -1.7124 O   0  0  0  0  0  0  0  0  0  0  0  0
    5.0417   -2.7941   -1.3212 C   0  0  2  0  0  0  0  0  0  0  0  0
    5.7737   -4.0762   -0.6925 C   0  0  0  0  0  0  0  0  0  0  0  0
    2.1398   -2.6421   -2.9326 H   0  0  0  0  0  0  0  0  0  0  0  0
    2.5397   -4.2221   -3.5076 H   0  0  0  0  0  0  0  0  0  0  0  0
    3.6693   -2.9155   -3.7822 H   0  0  0  0  0  0  0  0  0  0  0  0
    4.1754   -4.5411   -2.1681 H   0  0  0  0  0  0  0  0  0  0  0  0
    1.9665   -3.3885   -0.3042 H   0  0  0  0  0  0  0  0  0  0  0  0
    1.9629   -4.8639   -1.1102 H   0  0  0  0  0  0  0  0  0  0  0  0
    3.8736   -6.7154    1.0267 H   0  0  0  0  0  0  0  0  0  0  0  0
    1.3034   -4.5809    1.7747 H   0  0  0  0  0  0  0  0  0  0  0  0
    1.7135   -7.1506    0.7378 H   0  0  0  0  0  0  0  0  0  0  0  0
    3.5628   -4.5080    3.9517 H   0  0  0  0  0  0  0  0  0  0  0  0
    4.8820   -6.4055    2.3486 H   0  0  0  0  0  0  0  0  0  0  0  0
    3.0755   -3.3167    2.0118 H   0  0  0  0  0  0  0  0  0  0  0  0
    6.3539   -2.2434    2.9281 H   0  0  0  0  0  0  0  0  0  0  0  0
    6.1209   -3.9059    3.4629 H   0  0  0  0  0  0  0  0  0  0  0  0
    4.8645   -2.6691    3.7256 H   0  0  0  0  0  0  0  0  0  0  0  0
    6.4036   -5.0827    1.1547 H   0  0  0  0  0  0  0  0  0  0  0  0
    7.9349   -3.2175    1.6955 H   0  0  0  0  0  0  0  0  0  0  0  0
    8.3007   -3.9212    0.1499 H   0  0  0  0  0  0  0  0  0  0  0  0
    7.7034   -1.1810    0.5469 H   0  0  0  0  0  0  0  0  0  0  0  0
    7.8725   -2.0039   -0.9896 H   0  0  0  0  0  0  0  0  0  0  0  0
    5.8841   -0.7277   -0.6713 H   0  0  0  0  0  0  0  0  0  0  0  0
    5.2870   -1.1008    1.6784 H   0  0  0  0  0  0  0  0  0  0  0  0
    6.6541   -4.1427   -1.3118 H   0  0  0  0  0  0  0  0  0  0  0  0
    5.4651   -5.0934   -0.8641 H   0  0  0  0  0  0  0  0  0  0  0  0
  1  2  1  0
  1 24  1  0
  1 25  1  0
  1 26  1  0
  2 22  1  0
  2  3  1  0
  2 27  1  6
  3  4  1  0
  3 28  1  0
  3 29  1  0
  4 11  1  0
  4  5  1  6
  4  6  1  0
  5 30  1  0
  6  7  1  0
  6  8  1  0
  6 31  1  1
  7 32  1  0
  8  9  1  0
  9 10  1  0
  9 11  1  0
  9 33  1  1
 10 34  1  0
 11 12  1  0
 11 35  1  1
 12 18  1  0
 12 13  1  1
 12 14  1  0
 13 36  1  0
 13 37  1  0
 13 38  1  0
 14 23  1  0
 14 15  1  0
 14 39  1  1
 15 16  1  0
 15 40  1  0
 15 41  1  0
 16 17  1  0
 16 42  1  0
 16 43  1  0
 17 22  1  0
 17 18  1  0
 17 44  1  6
 18 19  1  0
 18 45  1  1
 19 20  1  0
 20 21  2  0
 22 20  1  6
 22 23  1  0
 23 46  1  0
 23 47  1  0
M  END
>  <i_m_ct_stereo_status>  (468) 
1

>  <s_m_source_file>  (468) 
/var/tmp/pbs.5076255.sched01/tmpk5ywl0l3/150lwq6_0yz.sdf

>  <i_m_source_file_index>  (468) 
40

>  <i_lp_mmshare_version>  (468) 
48012

>  <i_f3d_flags>  (468) 
0

>  <s_epik_input>  (468) 
W09IXVtDQEBIXTFPW0NASF0oW09IXSlbQ0BAXShbT0hdKShbQ0gyXVtDQEhdMltDSDNdKVtDQEBIXTFbQ0BAXShbQ0gzXSkoW0NAQEhdKFtDSDJdMylbQ0gyXVtDSDJdNClbQ0BASF0oW0NAQEhdNEMyMzUpT0M1PU8=

>  <s_epik_cmdline>  (468) 
J2VwaWtfcHl0aG9uJywgJy1waHQnLCAnMi4wJywgJy1waCcsICc3LjAnLCAnLXRuJywgJzgnLCAnLW1hJywgJzIwMCcsICctaW1hZScsICc8aW5maWxlLm1hZT4nLCAnLW9tYWUnLCAnPG91dGZpbGUubWFlPic=

>  <r_lp_tautomer_probability>  (468) 
1

>  <r_epik_Ionization_Penalty>  (468) 
4.07937e-07

>  <r_epik_Ionization_Penalty_Charging>  (468) 
0

>  <r_epik_Ionization_Penalty_Neutral>  (468) 
4.07937e-07

>  <r_epik_State_Penalty>  (468) 
-0

>  <r_epik_Charging_Adjusted_Penalty>  (468) 
0

>  <i_epik_Tot_Q>  (468) 
0

>  <i_epik_Tot_abs_Q>  (468) 
0

>  <s_epik_Chemistry_Notes>  (468) 
This compound has an ester and may undergo hydrolysis at high or low pH. This compound contains an acetal/aminal-like group ( X-CH(R)-Y where X, Y are N, S, or O) that may be acid/base labile, releasing an aldehyde.

>  <s_lp_Force_Field>  (468) 
OPLS3e

>  <r_lp_Energy>  (468) 
205.516

>  <b_lp_Chiralities_Consistent>  (468) 
1

>  <s_lp_Variant>  (468) 
114:0-1

>  <s_i_glide_gridfile>  (468) 
pfpi4k_grid

>  <i_i_glide_lignum>  (468) 
40

>  <i_i_glide_rotatable_bonds>  (468) 
3

>  <r_i_docking_score>  (468) 
-2.11109

>  <r_i_glide_ligand_efficiency>  (468) 
-0.0917864

>  <r_i_glide_ligand_efficiency_sa>  (468) 
-0.261028

>  <r_i_glide_ligand_efficiency_ln>  (468) 
-0.51048

>  <r_i_glide_gscore>  (468) 
-2.11109

>  <r_i_glide_lipo>  (468) 
-0.433313

>  <r_i_glide_hbond>  (468) 
0

>  <r_i_glide_metal>  (468) 
-0

>  <r_i_glide_rewards>  (468) 
-1.19749

>  <r_i_glide_evdw>  (468) 
-6.66452

>  <r_i_glide_ecoul>  (468) 
-0.282742

>  <r_i_glide_erotb>  (468) 
0

>  <r_i_glide_esite>  (468) 
-0.104652

>  <r_i_glide_emodel>  (468) 
-8.71346

>  <r_i_glide_energy>  (468) 
-6.94726

>  <r_i_glide_einternal>  (468) 
0.16296

>  <r_i_glide_intrahb_reward>  (468) 
-0

>  <i_i_glide_confnum>  (468) 
1

>  <i_i_glide_posenum>  (468) 
4

>  <r_i_glide_eff_state_penalty>  (468) 
0

>  <ligand_id>  (468) 
114

>  <original_smiles>  (468) 
CC1CC2(O)C(O)OC(O)C2C2(C)C3CCC4C2OC(=O)C14C3

>  <smiles>  (468) 
[H]OC1([H])OC([H])(O[H])C2(O[H])C([H])([H])C([H])(C([H])([H])[H])C34C(=O)OC5([H])C3([H])C([H])([H])C([H])([H])C([H])(C4([H])[H])C5(C([H])([H])[H])C12[H]

$$$$
115:0:0
     RDKit          3D

 16 17  0  0  1  0  0  0  0  0999 V2000
    2.3232   -5.0680    0.4060 O   0  0  0  0  0  0  0  0  0  0  0  0
    2.6310   -6.1565    0.8863 N   0  0  0  0  0  0  0  0  0  0  0  0
    3.7601   -6.6370    0.8936 O   0  0  0  0  0  0  0  0  0  0  0  0
    1.5813   -6.9237    1.4923 C   0  0  0  0  0  0  0  0  0  0  0  0
    1.7057   -8.1528    2.1140 C   0  0  0  0  0  0  0  0  0  0  0  0
    0.4174   -8.4293    2.5379 N   0  0  0  0  0  0  0  0  0  0  0  0
   -0.3595   -7.4593    2.1366 C   0  0  0  0  0  0  0  0  0  0  0  0
    0.2445   -6.4833    1.4845 N   0  0  0  0  0  0  0  0  0  0  0  0
   -1.6395   -7.6786    2.4631 O   0  0  0  0  0  0  0  0  0  0  0  0
   -1.7245   -9.0520    2.8763 C   0  0  0  0  0  0  0  0  0  0  0  0
   -0.2723   -9.4457    3.2509 C   0  0  0  0  0  0  0  0  0  0  0  0
    2.5533   -8.8116    2.2571 H   0  0  0  0  0  0  0  0  0  0  0  0
   -2.4475   -9.1971    3.6738 H   0  0  0  0  0  0  0  0  0  0  0  0
   -2.0484   -9.6288    2.0136 H   0  0  0  0  0  0  0  0  0  0  0  0
    0.0203  -10.4385    2.9163 H   0  0  0  0  0  0  0  0  0  0  0  0
   -0.0837   -9.3196    4.3220 H   0  0  0  0  0  0  0  0  0  0  0  0
  1  2  2  0
  2  3  1  0
  2  4  1  0
  4  8  1  0
  4  5  2  0
  5  6  1  0
  5 12  1  0
  6 11  1  0
  6  7  1  0
  7  8  2  0
  7  9  1  0
  9 10  1  0
 10 11  1  0
 10 13  1  0
 10 14  1  0
 11 15  1  0
 11 16  1  0
M  CHG  2   2   1   3  -1
M  END
>  <i_m_ct_stereo_status>  (469) 
1

>  <s_m_source_file>  (469) 
/var/tmp/pbs.5076255.sched01/tmpk5ywl0l3/150lwq6_0yz.sdf

>  <i_m_source_file_index>  (469) 
41

>  <i_lp_mmshare_version>  (469) 
48012

>  <i_f3d_flags>  (469) 
0

>  <s_epik_input>  (469) 
Tz1bTitdKFtPLV0pYyhbY0hdMSluYyhuMTIpT1tDSDJdW0NIMl0y

>  <s_epik_cmdline>  (469) 
J2VwaWtfcHl0aG9uJywgJy1waHQnLCAnMi4wJywgJy1waCcsICc3LjAnLCAnLXRuJywgJzgnLCAnLW1hJywgJzIwMCcsICctaW1hZScsICc8aW5maWxlLm1hZT4nLCAnLW9tYWUnLCAnPG91dGZpbGUubWFlPic=

>  <r_lp_tautomer_probability>  (469) 
1

>  <r_epik_Ionization_Penalty>  (469) 
1.3929e-05

>  <r_epik_Ionization_Penalty_Charging>  (469) 
1.3929e-05

>  <r_epik_Ionization_Penalty_Neutral>  (469) 
0

>  <r_epik_State_Penalty>  (469) 
-0

>  <r_epik_Charging_Adjusted_Penalty>  (469) 
1.3929e-05

>  <i_epik_Tot_Q>  (469) 
0

>  <i_epik_Tot_abs_Q>  (469) 
2

>  <s_lp_Force_Field>  (469) 
OPLS3e

>  <r_lp_Energy>  (469) 
15.5927

>  <b_lp_Chiralities_Consistent>  (469) 
1

>  <s_lp_Variant>  (469) 
115:0-1

>  <s_i_glide_gridfile>  (469) 
pfpi4k_grid

>  <i_i_glide_lignum>  (469) 
41

>  <i_i_glide_rotatable_bonds>  (469) 
1

>  <r_i_docking_score>  (469) 
-4.03585

>  <r_i_glide_ligand_efficiency>  (469) 
-0.366896

>  <r_i_glide_ligand_efficiency_sa>  (469) 
-0.815969

>  <r_i_glide_ligand_efficiency_ln>  (469) 
-1.18775

>  <r_i_glide_gscore>  (469) 
-4.03585

>  <r_i_glide_lipo>  (469) 
0

>  <r_i_glide_hbond>  (469) 
-0.199707

>  <r_i_glide_metal>  (469) 
-0

>  <r_i_glide_rewards>  (469) 
-2.25

>  <r_i_glide_evdw>  (469) 
-16.7365

>  <r_i_glide_ecoul>  (469) 
-3.75044

>  <r_i_glide_erotb>  (469) 
0

>  <r_i_glide_esite>  (469) 
-0.186753

>  <r_i_glide_emodel>  (469) 
-26.4277

>  <r_i_glide_energy>  (469) 
-20.487

>  <r_i_glide_einternal>  (469) 
0.03637

>  <r_i_glide_intrahb_reward>  (469) 
-0

>  <i_i_glide_confnum>  (469) 
1

>  <i_i_glide_posenum>  (469) 
5

>  <r_i_glide_eff_state_penalty>  (469) 
0

>  <ligand_id>  (469) 
115

>  <original_smiles>  (469) 
O=[N+]([O-])c1cn2c(n1)OCC2

>  <smiles>  (469) 
[H]c1c([N+](=O)[O-])nc2n1C([H])([H])C([H])([H])O2

$$$$
115:0:1
     RDKit          3D

 16 17  0  0  1  0  0  0  0  0999 V2000
   -1.5312   -9.5145    2.4821 O   0  0  0  0  0  0  0  0  0  0  0  0
   -1.3069   -8.3177    2.5528 N   0  0  0  0  0  0  0  0  0  0  0  0
   -2.1138   -7.4613    2.9025 O   0  0  0  0  0  0  0  0  0  0  0  0
   -0.0040   -7.8645    2.1795 C   0  0  0  0  0  0  0  0  0  0  0  0
    1.1750   -8.5826    2.2605 C   0  0  0  0  0  0  0  0  0  0  0  0
    2.1190   -7.6968    1.7654 N   0  0  0  0  0  0  0  0  0  0  0  0
    1.5113   -6.5719    1.4890 C   0  0  0  0  0  0  0  0  0  0  0  0
    0.2126   -6.5631    1.7015 N   0  0  0  0  0  0  0  0  0  0  0  0
    2.3696   -5.6230    1.0961 O   0  0  0  0  0  0  0  0  0  0  0  0
    3.6907   -6.1281    1.3485 C   0  0  0  0  0  0  0  0  0  0  0  0
    3.5181   -7.6609    1.5126 C   0  0  0  0  0  0  0  0  0  0  0  0
    1.3900   -9.5800    2.6224 H   0  0  0  0  0  0  0  0  0  0  0  0
    4.4233   -5.8505    0.5923 H   0  0  0  0  0  0  0  0  0  0  0  0
    4.0067   -5.6944    2.2946 H   0  0  0  0  0  0  0  0  0  0  0  0
    4.0842   -8.0980    2.3361 H   0  0  0  0  0  0  0  0  0  0  0  0
    3.7241   -8.1998    0.5811 H   0  0  0  0  0  0  0  0  0  0  0  0
  1  2  2  0
  2  3  1  0
  2  4  1  0
  4  8  1  0
  4  5  2  0
  5  6  1  0
  5 12  1  0
  6 11  1  0
  6  7  1  0
  7  8  2  0
  7  9  1  0
  9 10  1  0
 10 11  1  0
 10 13  1  0
 10 14  1  0
 11 15  1  0
 11 16  1  0
M  CHG  2   2   1   3  -1
M  END
>  <i_m_ct_stereo_status>  (470) 
1

>  <s_m_source_file>  (470) 
/var/tmp/pbs.5076255.sched01/tmpk5ywl0l3/150lwq6_0yz.sdf

>  <i_m_source_file_index>  (470) 
41

>  <i_lp_mmshare_version>  (470) 
48012

>  <i_f3d_flags>  (470) 
0

>  <s_epik_input>  (470) 
Tz1bTitdKFtPLV0pYyhbY0hdMSluYyhuMTIpT1tDSDJdW0NIMl0y

>  <s_epik_cmdline>  (470) 
J2VwaWtfcHl0aG9uJywgJy1waHQnLCAnMi4wJywgJy1waCcsICc3LjAnLCAnLXRuJywgJzgnLCAnLW1hJywgJzIwMCcsICctaW1hZScsICc8aW5maWxlLm1hZT4nLCAnLW9tYWUnLCAnPG91dGZpbGUubWFlPic=

>  <r_lp_tautomer_probability>  (470) 
1

>  <r_epik_Ionization_Penalty>  (470) 
1.3929e-05

>  <r_epik_Ionization_Penalty_Charging>  (470) 
1.3929e-05

>  <r_epik_Ionization_Penalty_Neutral>  (470) 
0

>  <r_epik_State_Penalty>  (470) 
-0

>  <r_epik_Charging_Adjusted_Penalty>  (470) 
1.3929e-05

>  <i_epik_Tot_Q>  (470) 
0

>  <i_epik_Tot_abs_Q>  (470) 
2

>  <s_lp_Force_Field>  (470) 
OPLS3e

>  <r_lp_Energy>  (470) 
15.5927

>  <b_lp_Chiralities_Consistent>  (470) 
1

>  <s_lp_Variant>  (470) 
115:0-1

>  <s_i_glide_gridfile>  (470) 
pfpi4k_grid

>  <i_i_glide_lignum>  (470) 
41

>  <i_i_glide_rotatable_bonds>  (470) 
1

>  <r_i_docking_score>  (470) 
-4.01186

>  <r_i_glide_ligand_efficiency>  (470) 
-0.364714

>  <r_i_glide_ligand_efficiency_sa>  (470) 
-0.811118

>  <r_i_glide_ligand_efficiency_ln>  (470) 
-1.18069

>  <r_i_glide_gscore>  (470) 
-4.01186

>  <r_i_glide_lipo>  (470) 
-0.0803759

>  <r_i_glide_hbond>  (470) 
-0.172103

>  <r_i_glide_metal>  (470) 
-0

>  <r_i_glide_rewards>  (470) 
-2.25

>  <r_i_glide_evdw>  (470) 
-16.6409

>  <r_i_glide_ecoul>  (470) 
-3.56329

>  <r_i_glide_erotb>  (470) 
0

>  <r_i_glide_esite>  (470) 
-0.142842

>  <r_i_glide_emodel>  (470) 
-25.4756

>  <r_i_glide_energy>  (470) 
-20.2042

>  <r_i_glide_einternal>  (470) 
0.963762

>  <r_i_glide_intrahb_reward>  (470) 
-0

>  <i_i_glide_confnum>  (470) 
1

>  <i_i_glide_posenum>  (470) 
15

>  <r_i_glide_eff_state_penalty>  (470) 
0

>  <ligand_id>  (470) 
115

>  <original_smiles>  (470) 
O=[N+]([O-])c1cn2c(n1)OCC2

>  <smiles>  (470) 
[H]c1c([N+](=O)[O-])nc2n1C([H])([H])C([H])([H])O2

$$$$
115:0:2
     RDKit          3D

 16 17  0  0  1  0  0  0  0  0999 V2000
   -1.7655   -7.0791    3.2058 O   0  0  0  0  0  0  0  0  0  0  0  0
   -1.3407   -8.1408    2.7500 N   0  0  0  0  0  0  0  0  0  0  0  0
   -2.0200   -9.1383    2.5279 O   0  0  0  0  0  0  0  0  0  0  0  0
    0.0389   -8.2036    2.4227 C   0  0  0  0  0  0  0  0  0  0  0  0
    0.8594   -9.3156    2.4806 C   0  0  0  0  0  0  0  0  0  0  0  0
    2.0687   -8.8427    2.0000 N   0  0  0  0  0  0  0  0  0  0  0  0
    1.9466   -7.5590    1.7757 C   0  0  0  0  0  0  0  0  0  0  0  0
    0.7403   -7.0589    1.9949 N   0  0  0  0  0  0  0  0  0  0  0  0
    3.1102   -6.9895    1.4199 O   0  0  0  0  0  0  0  0  0  0  0  0
    4.1311   -7.9811    1.6396 C   0  0  0  0  0  0  0  0  0  0  0  0
    3.3738   -9.3360    1.7281 C   0  0  0  0  0  0  0  0  0  0  0  0
    0.6733  -10.3434    2.7646 H   0  0  0  0  0  0  0  0  0  0  0  0
    4.9276   -7.9717    0.8946 H   0  0  0  0  0  0  0  0  0  0  0  0
    4.5772   -7.7458    2.6045 H   0  0  0  0  0  0  0  0  0  0  0  0
    3.7237   -9.9933    2.5223 H   0  0  0  0  0  0  0  0  0  0  0  0
    3.3572   -9.8629    0.7698 H   0  0  0  0  0  0  0  0  0  0  0  0
  1  2  2  0
  2  3  1  0
  2  4  1  0
  4  8  1  0
  4  5  2  0
  5  6  1  0
  5 12  1  0
  6 11  1  0
  6  7  1  0
  7  8  2  0
  7  9  1  0
  9 10  1  0
 10 11  1  0
 10 13  1  0
 10 14  1  0
 11 15  1  0
 11 16  1  0
M  CHG  2   2   1   3  -1
M  END
>  <i_m_ct_stereo_status>  (471) 
1

>  <s_m_source_file>  (471) 
/var/tmp/pbs.5076255.sched01/tmpk5ywl0l3/150lwq6_0yz.sdf

>  <i_m_source_file_index>  (471) 
41

>  <i_lp_mmshare_version>  (471) 
48012

>  <i_f3d_flags>  (471) 
0

>  <s_epik_input>  (471) 
Tz1bTitdKFtPLV0pYyhbY0hdMSluYyhuMTIpT1tDSDJdW0NIMl0y

>  <s_epik_cmdline>  (471) 
J2VwaWtfcHl0aG9uJywgJy1waHQnLCAnMi4wJywgJy1waCcsICc3LjAnLCAnLXRuJywgJzgnLCAnLW1hJywgJzIwMCcsICctaW1hZScsICc8aW5maWxlLm1hZT4nLCAnLW9tYWUnLCAnPG91dGZpbGUubWFlPic=

>  <r_lp_tautomer_probability>  (471) 
1

>  <r_epik_Ionization_Penalty>  (471) 
1.3929e-05

>  <r_epik_Ionization_Penalty_Charging>  (471) 
1.3929e-05

>  <r_epik_Ionization_Penalty_Neutral>  (471) 
0

>  <r_epik_State_Penalty>  (471) 
-0

>  <r_epik_Charging_Adjusted_Penalty>  (471) 
1.3929e-05

>  <i_epik_Tot_Q>  (471) 
0

>  <i_epik_Tot_abs_Q>  (471) 
2

>  <s_lp_Force_Field>  (471) 
OPLS3e

>  <r_lp_Energy>  (471) 
15.5927

>  <b_lp_Chiralities_Consistent>  (471) 
1

>  <s_lp_Variant>  (471) 
115:0-1

>  <s_i_glide_gridfile>  (471) 
pfpi4k_grid

>  <i_i_glide_lignum>  (471) 
41

>  <i_i_glide_rotatable_bonds>  (471) 
1

>  <r_i_docking_score>  (471) 
-3.70982

>  <r_i_glide_ligand_efficiency>  (471) 
-0.337257

>  <r_i_glide_ligand_efficiency_sa>  (471) 
-0.750052

>  <r_i_glide_ligand_efficiency_ln>  (471) 
-1.0918

>  <r_i_glide_gscore>  (471) 
-3.70982

>  <r_i_glide_lipo>  (471) 
-0.0211022

>  <r_i_glide_hbond>  (471) 
0

>  <r_i_glide_metal>  (471) 
-0

>  <r_i_glide_rewards>  (471) 
-2.26918

>  <r_i_glide_evdw>  (471) 
-17.6427

>  <r_i_glide_ecoul>  (471) 
-2.64685

>  <r_i_glide_erotb>  (471) 
0

>  <r_i_glide_esite>  (471) 
-0.140384

>  <r_i_glide_emodel>  (471) 
-24.6148

>  <r_i_glide_energy>  (471) 
-20.2895

>  <r_i_glide_einternal>  (471) 
1.40068

>  <r_i_glide_intrahb_reward>  (471) 
-0

>  <i_i_glide_confnum>  (471) 
1

>  <i_i_glide_posenum>  (471) 
27

>  <r_i_glide_eff_state_penalty>  (471) 
0

>  <ligand_id>  (471) 
115

>  <original_smiles>  (471) 
O=[N+]([O-])c1cn2c(n1)OCC2

>  <smiles>  (471) 
[H]c1c([N+](=O)[O-])nc2n1C([H])([H])C([H])([H])O2

$$$$
116:0:0
     RDKit          3D

 33 36  0  0  1  0  0  0  0  0999 V2000
    0.8501    1.7563    2.2404 C   0  0  0  0  0  0  0  0  0  0  0  0
    1.4123    0.3925    2.3869 C   0  0  0  0  0  0  0  0  0  0  0  0
    1.2062   -0.4345    3.3382 N   0  0  0  0  0  0  0  0  0  0  0  0
    1.9122   -1.5880    2.8788 C   0  0  0  0  0  0  0  0  0  0  0  0
    1.9005   -2.7360    3.4512 N   0  0  0  0  0  0  0  0  0  0  0  0
    2.6089   -3.8663    3.0179 C   0  0  0  0  0  0  0  0  0  0  0  0
    2.4490   -4.9557    3.5643 O   0  0  0  0  0  0  0  0  0  0  0  0
    3.6815   -3.8554    1.9557 C   0  0  0  0  0  0  0  0  0  0  0  0
    5.0312   -3.9306    2.3222 C   0  0  0  0  0  0  0  0  0  0  0  0
    6.0002   -3.7725    1.3173 C   0  0  0  0  0  0  0  0  0  0  0  0
    5.6091   -3.5182   -0.0157 C   0  0  0  0  0  0  0  0  0  0  0  0
    6.6120   -3.2930   -0.9913 C   0  0  0  0  0  0  0  0  0  0  0  0
    6.2445   -3.0310   -2.3319 C   0  0  0  0  0  0  0  0  0  0  0  0
    4.8600   -2.9469   -2.6620 C   0  0  0  0  0  0  0  0  0  0  0  0
    4.2403   -2.7079   -3.8325 N   0  0  0  0  0  0  0  0  0  0  0  0
    2.8592   -2.7452   -3.5367 C   0  0  0  0  0  0  0  0  0  0  0  0
    2.6384   -2.9972   -2.1994 C   0  0  0  0  0  0  0  0  0  0  0  0
    3.9334   -3.1359   -1.7252 N   0  0  0  0  0  0  0  0  0  0  0  0
    4.2464   -3.4819   -0.4165 C   0  0  0  0  0  0  0  0  0  0  0  0
    3.3092   -3.7503    0.6048 C   0  0  0  0  0  0  0  0  0  0  0  0
    2.5888   -1.3706    1.7031 O   0  0  0  0  0  0  0  0  0  0  0  0
    2.2181   -0.0389    1.3603 N   0  0  0  0  0  0  0  0  0  0  0  0
    0.2852    1.9779    3.1342 H   0  0  0  0  0  0  0  0  0  0  0  0
    0.1927    1.8016    1.3699 H   0  0  0  0  0  0  0  0  0  0  0  0
    1.6621    2.4817    2.1229 H   0  0  0  0  0  0  0  0  0  0  0  0
    5.3321   -4.0466    3.3645 H   0  0  0  0  0  0  0  0  0  0  0  0
    7.0495   -3.7714    1.5789 H   0  0  0  0  0  0  0  0  0  0  0  0
    7.6445   -3.3737   -0.7071 H   0  0  0  0  0  0  0  0  0  0  0  0
    7.0038   -2.9411   -3.0899 H   0  0  0  0  0  0  0  0  0  0  0  0
    2.1502   -2.5878   -4.3157 H   0  0  0  0  0  0  0  0  0  0  0  0
    1.7342   -3.0799   -1.5937 H   0  0  0  0  0  0  0  0  0  0  0  0
    2.2701   -3.7176    0.3768 H   0  0  0  0  0  0  0  0  0  0  0  0
    1.8246   -0.0589    0.4123 H   0  0  0  0  0  0  0  0  0  0  0  0
  1  2  1  0
  1 23  1  0
  1 24  1  0
  1 25  1  0
  2 22  1  0
  2  3  2  0
  3  4  1  0
  4  5  2  3
  4 21  1  0
  5  6  1  0
  6  7  2  0
  6  8  1  0
  8 20  1  0
  8  9  2  0
  9 10  1  0
  9 26  1  0
 10 11  2  0
 10 27  1  0
 11 19  1  0
 11 12  1  0
 12 13  2  0
 12 28  1  0
 13 14  1  0
 13 29  1  0
 14 18  1  0
 14 15  2  0
 15 16  1  0
 16 17  2  0
 16 30  1  0
 17 18  1  0
 17 31  1  0
 18 19  1  0
 19 20  2  0
 20 32  1  0
 21 22  1  0
 22 33  1  0
M  END
>  <i_m_ct_stereo_status>  (472) 
1

>  <s_m_source_file>  (472) 
/var/tmp/pbs.5076255.sched01/tmpk5ywl0l3/150lwq6_0yz.sdf

>  <i_m_source_file_index>  (472) 
42

>  <i_lp_mmshare_version>  (472) 
48012

>  <i_f3d_flags>  (472) 
0

>  <s_epik_input>  (472) 
W0NIM11jMW4vYyhvW25IXTEpPU4vQyg9TyljKFtjSF1bY0hdMilbY0hdYyhjMjMpbjRjKFtjSF1bY0hdMyluW2NIXVtjSF00

>  <s_epik_cmdline>  (472) 
J2VwaWtfcHl0aG9uJywgJy1waHQnLCAnMi4wJywgJy1waCcsICc3LjAnLCAnLXRuJywgJzgnLCAnLW1hJywgJzIwMCcsICctaW1hZScsICc8aW5maWxlLm1hZT4nLCAnLW9tYWUnLCAnPG91dGZpbGUubWFlPic=

>  <r_lp_tautomer_probability>  (472) 
1

>  <r_epik_Ionization_Penalty>  (472) 
14.058

>  <r_epik_Ionization_Penalty_Charging>  (472) 
14.058

>  <r_epik_Ionization_Penalty_Neutral>  (472) 
1.47309e-08

>  <r_epik_State_Penalty>  (472) 
-0

>  <r_epik_Charging_Adjusted_Penalty>  (472) 
14.058

>  <i_epik_Tot_Q>  (472) 
0

>  <i_epik_Tot_abs_Q>  (472) 
0

>  <s_lp_Force_Field>  (472) 
OPLS3e

>  <r_lp_Energy>  (472) 
37.0825

>  <b_lp_Chiralities_Consistent>  (472) 
1

>  <s_lp_Variant>  (472) 
116:0-1

>  <s_i_glide_gridfile>  (472) 
pfpi4k_grid

>  <i_i_glide_lignum>  (472) 
42

>  <i_i_glide_rotatable_bonds>  (472) 
2

>  <r_i_docking_score>  (472) 
-5.39709

>  <r_i_glide_ligand_efficiency>  (472) 
-0.245322

>  <r_i_glide_ligand_efficiency_sa>  (472) 
-0.687403

>  <r_i_glide_ligand_efficiency_ln>  (472) 
-1.31925

>  <r_i_glide_gscore>  (472) 
-5.39709

>  <r_i_glide_lipo>  (472) 
-0.684237

>  <r_i_glide_hbond>  (472) 
-0.230336

>  <r_i_glide_metal>  (472) 
-0

>  <r_i_glide_rewards>  (472) 
-2.35208

>  <r_i_glide_evdw>  (472) 
-27.9424

>  <r_i_glide_ecoul>  (472) 
-5.45816

>  <r_i_glide_erotb>  (472) 
0.212413

>  <r_i_glide_esite>  (472) 
-0.12701

>  <r_i_glide_emodel>  (472) 
-44.402

>  <r_i_glide_energy>  (472) 
-33.4006

>  <r_i_glide_einternal>  (472) 
0.940926

>  <r_i_glide_intrahb_reward>  (472) 
-0

>  <i_i_glide_confnum>  (472) 
2

>  <i_i_glide_posenum>  (472) 
16

>  <r_i_glide_eff_state_penalty>  (472) 
0

>  <ligand_id>  (472) 
116

>  <original_smiles>  (472) 
Cc1nc(=NC(=O)c2ccc3ccc4nccn4c3c2)o[nH]1

>  <smiles>  (472) 
[H]c1nc2c([H])c([H])c3c([H])c([H])c(C(=O)N=c4nc(C([H])([H])[H])n([H])o4)c([H])c3n2c1[H]

$$$$
116:0:1
     RDKit          3D

 33 36  0  0  1  0  0  0  0  0999 V2000
    3.6794   -5.1029    0.1378 C   0  0  0  0  0  0  0  0  0  0  0  0
    2.6838   -5.9554    0.8787 C   0  0  0  0  0  0  0  0  0  0  0  0
    1.4087   -5.8592    0.7980 N   0  0  0  0  0  0  0  0  0  0  0  0
    0.9519   -6.9272    1.6303 C   0  0  0  0  0  0  0  0  0  0  0  0
   -0.2836   -7.1189    1.9204 N   0  0  0  0  0  0  0  0  0  0  0  0
   -0.7453   -8.1567    2.7331 C   0  0  0  0  0  0  0  0  0  0  0  0
   -1.9452   -8.3657    2.8887 O   0  0  0  0  0  0  0  0  0  0  0  0
    0.1910   -9.1106    3.4116 C   0  0  0  0  0  0  0  0  0  0  0  0
    0.3718  -10.3956    2.8910 C   0  0  0  0  0  0  0  0  0  0  0  0
    1.3495  -11.2264    3.4537 C   0  0  0  0  0  0  0  0  0  0  0  0
    2.1555  -10.7673    4.5178 C   0  0  0  0  0  0  0  0  0  0  0  0
    3.1568  -11.6182    5.0491 C   0  0  0  0  0  0  0  0  0  0  0  0
    3.9810  -11.1879    6.1187 C   0  0  0  0  0  0  0  0  0  0  0  0
    3.7941   -9.8707    6.6044 C   0  0  0  0  0  0  0  0  0  0  0  0
    4.4247   -9.2229    7.5843 N   0  0  0  0  0  0  0  0  0  0  0  0
    3.8251   -7.9471    7.6279 C   0  0  0  0  0  0  0  0  0  0  0  0
    2.8338   -7.8094    6.6799 C   0  0  0  0  0  0  0  0  0  0  0  0
    2.8700   -9.0610    6.0913 N   0  0  0  0  0  0  0  0  0  0  0  0
    2.0032   -9.4655    5.0737 C   0  0  0  0  0  0  0  0  0  0  0  0
    0.9756   -8.6694    4.4998 C   0  0  0  0  0  0  0  0  0  0  0  0
    2.0000   -7.6850    2.0971 O   0  0  0  0  0  0  0  0  0  0  0  0
    3.1359   -6.9725    1.6662 N   0  0  0  0  0  0  0  0  0  0  0  0
    3.1486   -4.3365   -0.4298 H   0  0  0  0  0  0  0  0  0  0  0  0
    4.2389   -5.7159   -0.5689 H   0  0  0  0  0  0  0  0  0  0  0  0
    4.3727   -4.6112    0.8245 H   0  0  0  0  0  0  0  0  0  0  0  0
   -0.2043  -10.7313    2.0417 H   0  0  0  0  0  0  0  0  0  0  0  0
    1.5116  -12.2106    3.0405 H   0  0  0  0  0  0  0  0  0  0  0  0
    3.2574  -12.6215    4.6555 H   0  0  0  0  0  0  0  0  0  0  0  0
    4.7098  -11.8484    6.5637 H   0  0  0  0  0  0  0  0  0  0  0  0
    4.1738   -7.2342    8.3590 H   0  0  0  0  0  0  0  0  0  0  0  0
    2.1697   -7.0034    6.4120 H   0  0  0  0  0  0  0  0  0  0  0  0
    0.8538   -7.6460    4.8228 H   0  0  0  0  0  0  0  0  0  0  0  0
    3.8936   -7.5968    1.4655 H   0  0  0  0  0  0  0  0  0  0  0  0
  1  2  1  0
  1 23  1  0
  1 24  1  0
  1 25  1  0
  2 22  1  0
  2  3  2  0
  3  4  1  0
  4  5  2  3
  4 21  1  0
  5  6  1  0
  6  7  2  0
  6  8  1  0
  8 20  1  0
  8  9  2  0
  9 10  1  0
  9 26  1  0
 10 11  2  0
 10 27  1  0
 11 19  1  0
 11 12  1  0
 12 13  2  0
 12 28  1  0
 13 14  1  0
 13 29  1  0
 14 18  1  0
 14 15  2  0
 15 16  1  0
 16 17  2  0
 16 30  1  0
 17 18  1  0
 17 31  1  0
 18 19  1  0
 19 20  2  0
 20 32  1  0
 21 22  1  0
 22 33  1  0
M  END
>  <i_m_ct_stereo_status>  (473) 
1

>  <s_m_source_file>  (473) 
/var/tmp/pbs.5076255.sched01/tmpk5ywl0l3/150lwq6_0yz.sdf

>  <i_m_source_file_index>  (473) 
42

>  <i_lp_mmshare_version>  (473) 
48012

>  <i_f3d_flags>  (473) 
0

>  <s_epik_input>  (473) 
W0NIM11jMW4vYyhvW25IXTEpPU4vQyg9TyljKFtjSF1bY0hdMilbY0hdYyhjMjMpbjRjKFtjSF1bY0hdMyluW2NIXVtjSF00

>  <s_epik_cmdline>  (473) 
J2VwaWtfcHl0aG9uJywgJy1waHQnLCAnMi4wJywgJy1waCcsICc3LjAnLCAnLXRuJywgJzgnLCAnLW1hJywgJzIwMCcsICctaW1hZScsICc8aW5maWxlLm1hZT4nLCAnLW9tYWUnLCAnPG91dGZpbGUubWFlPic=

>  <r_lp_tautomer_probability>  (473) 
1

>  <r_epik_Ionization_Penalty>  (473) 
14.058

>  <r_epik_Ionization_Penalty_Charging>  (473) 
14.058

>  <r_epik_Ionization_Penalty_Neutral>  (473) 
1.47309e-08

>  <r_epik_State_Penalty>  (473) 
-0

>  <r_epik_Charging_Adjusted_Penalty>  (473) 
14.058

>  <i_epik_Tot_Q>  (473) 
0

>  <i_epik_Tot_abs_Q>  (473) 
0

>  <s_lp_Force_Field>  (473) 
OPLS3e

>  <r_lp_Energy>  (473) 
37.0825

>  <b_lp_Chiralities_Consistent>  (473) 
1

>  <s_lp_Variant>  (473) 
116:0-1

>  <s_i_glide_gridfile>  (473) 
pfpi4k_grid

>  <i_i_glide_lignum>  (473) 
42

>  <i_i_glide_rotatable_bonds>  (473) 
2

>  <r_i_docking_score>  (473) 
-3.83956

>  <r_i_glide_ligand_efficiency>  (473) 
-0.174526

>  <r_i_glide_ligand_efficiency_sa>  (473) 
-0.489027

>  <r_i_glide_ligand_efficiency_ln>  (473) 
-0.938529

>  <r_i_glide_gscore>  (473) 
-3.83956

>  <r_i_glide_lipo>  (473) 
-0.305061

>  <r_i_glide_hbond>  (473) 
-0.203652

>  <r_i_glide_metal>  (473) 
-0

>  <r_i_glide_rewards>  (473) 
-1.40945

>  <r_i_glide_evdw>  (473) 
-25.5195

>  <r_i_glide_ecoul>  (473) 
-4.82801

>  <r_i_glide_erotb>  (473) 
0.212413

>  <r_i_glide_esite>  (473) 
-0.13363

>  <r_i_glide_emodel>  (473) 
-38.6279

>  <r_i_glide_energy>  (473) 
-30.3475

>  <r_i_glide_einternal>  (473) 
0.0803598

>  <r_i_glide_intrahb_reward>  (473) 
-0

>  <i_i_glide_confnum>  (473) 
2

>  <i_i_glide_posenum>  (473) 
38

>  <r_i_glide_eff_state_penalty>  (473) 
0

>  <ligand_id>  (473) 
116

>  <original_smiles>  (473) 
Cc1nc(=NC(=O)c2ccc3ccc4nccn4c3c2)o[nH]1

>  <smiles>  (473) 
[H]c1nc2c([H])c([H])c3c([H])c([H])c(C(=O)N=c4nc(C([H])([H])[H])n([H])o4)c([H])c3n2c1[H]

$$$$
116:0:2
     RDKit          3D

 33 36  0  0  1  0  0  0  0  0999 V2000
    3.6758   -5.1910    0.5015 C   0  0  0  0  0  0  0  0  0  0  0  0
    2.5946   -6.0028    1.1719 C   0  0  0  0  0  0  0  0  0  0  0  0
    1.3803   -6.1000    0.7768 N   0  0  0  0  0  0  0  0  0  0  0  0
    0.8306   -7.0593    1.6956 C   0  0  0  0  0  0  0  0  0  0  0  0
   -0.3936   -7.4392    1.6814 N   0  0  0  0  0  0  0  0  0  0  0  0
   -0.9303   -8.3541    2.5864 C   0  0  0  0  0  0  0  0  0  0  0  0
   -2.0023   -8.9128    2.3880 O   0  0  0  0  0  0  0  0  0  0  0  0
   -0.2285   -8.6896    3.8665 C   0  0  0  0  0  0  0  0  0  0  0  0
    0.5497   -9.8553    3.9377 C   0  0  0  0  0  0  0  0  0  0  0  0
    1.2942  -10.0949    5.0997 C   0  0  0  0  0  0  0  0  0  0  0  0
    1.2588   -9.1806    6.1781 C   0  0  0  0  0  0  0  0  0  0  0  0
    2.0244   -9.4557    7.3399 C   0  0  0  0  0  0  0  0  0  0  0  0
    2.0002   -8.5895    8.4596 C   0  0  0  0  0  0  0  0  0  0  0  0
    1.2085   -7.4196    8.3537 C   0  0  0  0  0  0  0  0  0  0  0  0
    1.0016   -6.4515    9.2398 N   0  0  0  0  0  0  0  0  0  0  0  0
    0.1510   -5.5337    8.5969 C   0  0  0  0  0  0  0  0  0  0  0  0
   -0.1839   -5.9440    7.3239 C   0  0  0  0  0  0  0  0  0  0  0  0
    0.5094   -7.1381    7.2520 N   0  0  0  0  0  0  0  0  0  0  0  0
    0.4782   -7.9887    6.1450 C   0  0  0  0  0  0  0  0  0  0  0  0
   -0.2596   -7.7836    4.9505 C   0  0  0  0  0  0  0  0  0  0  0  0
    1.7738   -7.5032    2.5973 O   0  0  0  0  0  0  0  0  0  0  0  0
    2.9094   -6.7461    2.2740 N   0  0  0  0  0  0  0  0  0  0  0  0
    3.2603   -4.6740   -0.3618 H   0  0  0  0  0  0  0  0  0  0  0  0
    4.4876   -5.8282    0.1481 H   0  0  0  0  0  0  0  0  0  0  0  0
    4.0825   -4.4395    1.1815 H   0  0  0  0  0  0  0  0  0  0  0  0
    0.6060  -10.5280    3.0968 H   0  0  0  0  0  0  0  0  0  0  0  0
    1.9067  -10.9831    5.1560 H   0  0  0  0  0  0  0  0  0  0  0  0
    2.6079  -10.3624    7.3932 H   0  0  0  0  0  0  0  0  0  0  0  0
    2.5555   -8.7985    9.3573 H   0  0  0  0  0  0  0  0  0  0  0  0
   -0.1689   -4.6461    9.1261 H   0  0  0  0  0  0  0  0  0  0  0  0
   -0.8251   -5.5420    6.5510 H   0  0  0  0  0  0  0  0  0  0  0  0
   -0.8465   -6.8814    4.8378 H   0  0  0  0  0  0  0  0  0  0  0  0
    3.7613   -7.2552    2.4664 H   0  0  0  0  0  0  0  0  0  0  0  0
  1  2  1  0
  1 23  1  0
  1 24  1  0
  1 25  1  0
  2 22  1  0
  2  3  2  0
  3  4  1  0
  4  5  2  3
  4 21  1  0
  5  6  1  0
  6  7  2  0
  6  8  1  0
  8 20  1  0
  8  9  2  0
  9 10  1  0
  9 26  1  0
 10 11  2  0
 10 27  1  0
 11 19  1  0
 11 12  1  0
 12 13  2  0
 12 28  1  0
 13 14  1  0
 13 29  1  0
 14 18  1  0
 14 15  2  0
 15 16  1  0
 16 17  2  0
 16 30  1  0
 17 18  1  0
 17 31  1  0
 18 19  1  0
 19 20  2  0
 20 32  1  0
 21 22  1  0
 22 33  1  0
M  END
>  <i_m_ct_stereo_status>  (474) 
1

>  <s_m_source_file>  (474) 
/var/tmp/pbs.5076255.sched01/tmpk5ywl0l3/150lwq6_0yz.sdf

>  <i_m_source_file_index>  (474) 
42

>  <i_lp_mmshare_version>  (474) 
48012

>  <i_f3d_flags>  (474) 
0

>  <s_epik_input>  (474) 
W0NIM11jMW4vYyhvW25IXTEpPU4vQyg9TyljKFtjSF1bY0hdMilbY0hdYyhjMjMpbjRjKFtjSF1bY0hdMyluW2NIXVtjSF00

>  <s_epik_cmdline>  (474) 
J2VwaWtfcHl0aG9uJywgJy1waHQnLCAnMi4wJywgJy1waCcsICc3LjAnLCAnLXRuJywgJzgnLCAnLW1hJywgJzIwMCcsICctaW1hZScsICc8aW5maWxlLm1hZT4nLCAnLW9tYWUnLCAnPG91dGZpbGUubWFlPic=

>  <r_lp_tautomer_probability>  (474) 
1

>  <r_epik_Ionization_Penalty>  (474) 
14.058

>  <r_epik_Ionization_Penalty_Charging>  (474) 
14.058

>  <r_epik_Ionization_Penalty_Neutral>  (474) 
1.47309e-08

>  <r_epik_State_Penalty>  (474) 
-0

>  <r_epik_Charging_Adjusted_Penalty>  (474) 
14.058

>  <i_epik_Tot_Q>  (474) 
0

>  <i_epik_Tot_abs_Q>  (474) 
0

>  <s_lp_Force_Field>  (474) 
OPLS3e

>  <r_lp_Energy>  (474) 
37.0825

>  <b_lp_Chiralities_Consistent>  (474) 
1

>  <s_lp_Variant>  (474) 
116:0-1

>  <s_i_glide_gridfile>  (474) 
pfpi4k_grid

>  <i_i_glide_lignum>  (474) 
42

>  <i_i_glide_rotatable_bonds>  (474) 
2

>  <r_i_docking_score>  (474) 
-3.51473

>  <r_i_glide_ligand_efficiency>  (474) 
-0.15976

>  <r_i_glide_ligand_efficiency_sa>  (474) 
-0.447654

>  <r_i_glide_ligand_efficiency_ln>  (474) 
-0.859127

>  <r_i_glide_gscore>  (474) 
-3.51473

>  <r_i_glide_lipo>  (474) 
-0.00558762

>  <r_i_glide_hbond>  (474) 
-0.151177

>  <r_i_glide_metal>  (474) 
-0

>  <r_i_glide_rewards>  (474) 
-1.40945

>  <r_i_glide_evdw>  (474) 
-26.1665

>  <r_i_glide_ecoul>  (474) 
-5.11264

>  <r_i_glide_erotb>  (474) 
0.212413

>  <r_i_glide_esite>  (474) 
-0.0856969

>  <r_i_glide_emodel>  (474) 
-38.6398

>  <r_i_glide_energy>  (474) 
-31.2792

>  <r_i_glide_einternal>  (474) 
0.663122

>  <r_i_glide_intrahb_reward>  (474) 
-0

>  <i_i_glide_confnum>  (474) 
2

>  <i_i_glide_posenum>  (474) 
23

>  <r_i_glide_eff_state_penalty>  (474) 
0

>  <ligand_id>  (474) 
116

>  <original_smiles>  (474) 
Cc1nc(=NC(=O)c2ccc3ccc4nccn4c3c2)o[nH]1

>  <smiles>  (474) 
[H]c1nc2c([H])c([H])c3c([H])c([H])c(C(=O)N=c4nc(C([H])([H])[H])n([H])o4)c([H])c3n2c1[H]

$$$$
116:1:0
     RDKit          3D

 33 36  0  0  1  0  0  0  0  0999 V2000
   -1.5896   -8.1160    3.3542 C   0  0  0  0  0  0  0  0  0  0  0  0
   -0.2699   -7.7811    2.7298 C   0  0  0  0  0  0  0  0  0  0  0  0
    0.2054   -6.5958    2.6658 N   0  0  0  0  0  0  0  0  0  0  0  0
    1.4882   -6.8000    2.0448 C   0  0  0  0  0  0  0  0  0  0  0  0
    2.4614   -5.9833    1.8836 N   0  0  0  0  0  0  0  0  0  0  0  0
    2.5782   -4.7362    2.5086 C   0  0  0  0  0  0  0  0  0  0  0  0
    3.3103   -3.8587    2.0584 O   0  0  0  0  0  0  0  0  0  0  0  0
    1.8016   -4.3650    3.7483 C   0  0  0  0  0  0  0  0  0  0  0  0
    1.1230   -3.1344    3.8145 C   0  0  0  0  0  0  0  0  0  0  0  0
    0.3025   -2.8754    4.9209 C   0  0  0  0  0  0  0  0  0  0  0  0
    0.1552   -3.8342    5.9556 C   0  0  0  0  0  0  0  0  0  0  0  0
   -0.7071   -3.5721    7.0465 C   0  0  0  0  0  0  0  0  0  0  0  0
   -0.8831   -4.5191    8.0884 C   0  0  0  0  0  0  0  0  0  0  0  0
   -0.1808   -5.7500    7.9776 C   0  0  0  0  0  0  0  0  0  0  0  0
   -0.1359   -6.7923    8.8145 N   0  0  0  0  0  0  0  0  0  0  0  0
    0.6635   -7.7511    8.1698 C   0  0  0  0  0  0  0  0  0  0  0  0
    1.1651   -7.2776    6.9633 C   0  0  0  0  0  0  0  0  0  0  0  0
    0.6044   -6.0125    6.9381 N   0  0  0  0  0  0  0  0  0  0  0  0
    0.8419   -5.0852    5.9240 C   0  0  0  0  0  0  0  0  0  0  0  0
    1.7212   -5.2680    4.8418 C   0  0  0  0  0  0  0  0  0  0  0  0
    1.6418   -8.0895    1.6165 O   0  0  0  0  0  0  0  0  0  0  0  0
    0.4830   -8.7331    2.1158 N   0  0  0  0  0  0  0  0  0  0  0  0
   -1.9893   -7.2482    3.8820 H   0  0  0  0  0  0  0  0  0  0  0  0
   -1.5144   -8.9219    4.0860 H   0  0  0  0  0  0  0  0  0  0  0  0
   -2.3097   -8.3954    2.5901 H   0  0  0  0  0  0  0  0  0  0  0  0
    1.1752   -2.4296    3.0039 H   0  0  0  0  0  0  0  0  0  0  0  0
   -0.2513   -1.9521    4.9669 H   0  0  0  0  0  0  0  0  0  0  0  0
   -1.2074   -2.6161    7.0631 H   0  0  0  0  0  0  0  0  0  0  0  0
   -1.5030   -4.3076    8.9441 H   0  0  0  0  0  0  0  0  0  0  0  0
    0.8287   -8.7036    8.6537 H   0  0  0  0  0  0  0  0  0  0  0  0
    1.8153   -7.7043    6.2298 H   0  0  0  0  0  0  0  0  0  0  0  0
    2.2500   -6.2081    4.7575 H   0  0  0  0  0  0  0  0  0  0  0  0
    0.0980   -9.3553    1.4071 H   0  0  0  0  0  0  0  0  0  0  0  0
  1  2  1  0
  1 23  1  0
  1 24  1  0
  1 25  1  0
  2 22  1  0
  2  3  2  0
  3  4  1  0
  4  5  2  3
  4 21  1  0
  5  6  1  0
  6  7  2  0
  6  8  1  0
  8 20  1  0
  8  9  2  0
  9 10  1  0
  9 26  1  0
 10 11  2  0
 10 27  1  0
 11 19  1  0
 11 12  1  0
 12 13  2  0
 12 28  1  0
 13 14  1  0
 13 29  1  0
 14 18  1  0
 14 15  2  0
 15 16  1  0
 16 17  2  0
 16 30  1  0
 17 18  1  0
 17 31  1  0
 18 19  1  0
 19 20  2  0
 20 32  1  0
 21 22  1  0
 22 33  1  0
M  END
>  <i_m_ct_stereo_status>  (475) 
1

>  <s_m_source_file>  (475) 
/var/tmp/pbs.5076255.sched01/tmpk5ywl0l3/150lwq6_0yz.sdf

>  <i_m_source_file_index>  (475) 
43

>  <i_lp_mmshare_version>  (475) 
48012

>  <i_f3d_flags>  (475) 
0

>  <s_epik_input>  (475) 
W0NIM11jMW4vYyhvW25IXTEpPU4vQyg9TyljKFtjSF1bY0hdMilbY0hdYyhjMjMpbjRjKFtjSF1bY0hdMyluW2NIXVtjSF00

>  <s_epik_cmdline>  (475) 
J2VwaWtfcHl0aG9uJywgJy1waHQnLCAnMi4wJywgJy1waCcsICc3LjAnLCAnLXRuJywgJzgnLCAnLW1hJywgJzIwMCcsICctaW1hZScsICc8aW5maWxlLm1hZT4nLCAnLW9tYWUnLCAnPG91dGZpbGUubWFlPic=

>  <r_lp_tautomer_probability>  (475) 
1

>  <r_epik_Ionization_Penalty>  (475) 
14.058

>  <r_epik_Ionization_Penalty_Charging>  (475) 
14.058

>  <r_epik_Ionization_Penalty_Neutral>  (475) 
1.47309e-08

>  <r_epik_State_Penalty>  (475) 
-0

>  <r_epik_Charging_Adjusted_Penalty>  (475) 
14.058

>  <i_epik_Tot_Q>  (475) 
0

>  <i_epik_Tot_abs_Q>  (475) 
0

>  <s_lp_Force_Field>  (475) 
OPLS3e

>  <r_lp_Energy>  (475) 
35.7476

>  <b_lp_Chiralities_Consistent>  (475) 
1

>  <s_lp_Variant>  (475) 
116:0-2

>  <s_i_glide_gridfile>  (475) 
pfpi4k_grid

>  <i_i_glide_lignum>  (475) 
43

>  <i_i_glide_rotatable_bonds>  (475) 
2

>  <r_i_docking_score>  (475) 
-4.47459

>  <r_i_glide_ligand_efficiency>  (475) 
-0.203391

>  <r_i_glide_ligand_efficiency_sa>  (475) 
-0.569909

>  <r_i_glide_ligand_efficiency_ln>  (475) 
-1.09375

>  <r_i_glide_gscore>  (475) 
-4.47459

>  <r_i_glide_lipo>  (475) 
-0.0514837

>  <r_i_glide_hbond>  (475) 
-0.672459

>  <r_i_glide_metal>  (475) 
-0

>  <r_i_glide_rewards>  (475) 
-1.40945

>  <r_i_glide_evdw>  (475) 
-20.7193

>  <r_i_glide_ecoul>  (475) 
-9.45057

>  <r_i_glide_erotb>  (475) 
0.212413

>  <r_i_glide_esite>  (475) 
-0.100059

>  <r_i_glide_emodel>  (475) 
-39.1768

>  <r_i_glide_energy>  (475) 
-30.1699

>  <r_i_glide_einternal>  (475) 
1.22713

>  <r_i_glide_intrahb_reward>  (475) 
-0

>  <i_i_glide_confnum>  (475) 
2

>  <i_i_glide_posenum>  (475) 
6

>  <r_i_glide_eff_state_penalty>  (475) 
0

>  <ligand_id>  (475) 
116

>  <original_smiles>  (475) 
Cc1nc(=NC(=O)c2ccc3ccc4nccn4c3c2)o[nH]1

>  <smiles>  (475) 
[H]c1nc2c([H])c([H])c3c([H])c([H])c(C(=O)N=c4nc(C([H])([H])[H])n([H])o4)c([H])c3n2c1[H]

$$$$
116:1:1
     RDKit          3D

 33 36  0  0  1  0  0  0  0  0999 V2000
    3.1467    5.5622    3.4268 C   0  0  0  0  0  0  0  0  0  0  0  0
    1.6905    5.2359    3.6561 C   0  0  0  0  0  0  0  0  0  0  0  0
    1.2562    4.0549    3.8587 N   0  0  0  0  0  0  0  0  0  0  0  0
   -0.1717    4.2401    3.9198 C   0  0  0  0  0  0  0  0  0  0  0  0
   -1.1246    3.3994    4.1555 N   0  0  0  0  0  0  0  0  0  0  0  0
   -0.8965    2.0270    4.3101 C   0  0  0  0  0  0  0  0  0  0  0  0
   -1.7263    1.2877    4.8210 O   0  0  0  0  0  0  0  0  0  0  0  0
    0.3300    1.3478    3.7793 C   0  0  0  0  0  0  0  0  0  0  0  0
    0.3895    0.9679    2.4338 C   0  0  0  0  0  0  0  0  0  0  0  0
    1.5988    0.4694    1.9313 C   0  0  0  0  0  0  0  0  0  0  0  0
    2.7325    0.3643    2.7651 C   0  0  0  0  0  0  0  0  0  0  0  0
    3.9374   -0.1533    2.2156 C   0  0  0  0  0  0  0  0  0  0  0  0
    5.1028   -0.2756    3.0150 C   0  0  0  0  0  0  0  0  0  0  0  0
    5.0324    0.1496    4.3511 C   0  0  0  0  0  0  0  0  0  0  0  0
    5.9484    0.1530    5.2987 N   0  0  0  0  0  0  0  0  0  0  0  0
    5.3056    0.6960    6.4613 C   0  0  0  0  0  0  0  0  0  0  0  0
    4.0002    1.0222    6.2016 C   0  0  0  0  0  0  0  0  0  0  0  0
    3.9092    0.6458    4.8790 N   0  0  0  0  0  0  0  0  0  0  0  0
    2.7363    0.7528    4.1345 C   0  0  0  0  0  0  0  0  0  0  0  0
    1.4682    1.2264    4.6105 C   0  0  0  0  0  0  0  0  0  0  0  0
   -0.5283    5.5663    3.7619 O   0  0  0  0  0  0  0  0  0  0  0  0
    0.7378    6.2169    3.6359 N   0  0  0  0  0  0  0  0  0  0  0  0
    3.7393    4.6415    3.4255 H   0  0  0  0  0  0  0  0  0  0  0  0
    3.5332    6.2001    4.2182 H   0  0  0  0  0  0  0  0  0  0  0  0
    3.2973    6.0439    2.4682 H   0  0  0  0  0  0  0  0  0  0  0  0
   -0.4638    1.0990    1.7861 H   0  0  0  0  0  0  0  0  0  0  0  0
    1.6514    0.1853    0.8900 H   0  0  0  0  0  0  0  0  0  0  0  0
    3.9645   -0.4632    1.1794 H   0  0  0  0  0  0  0  0  0  0  0  0
    6.0304   -0.6772    2.6193 H   0  0  0  0  0  0  0  0  0  0  0  0
    5.8749    0.7869    7.3722 H   0  0  0  0  0  0  0  0  0  0  0  0
    3.2076    1.4446    6.8018 H   0  0  0  0  0  0  0  0  0  0  0  0
    1.4005    1.6064    5.6174 H   0  0  0  0  0  0  0  0  0  0  0  0
    0.6718    7.0369    3.0212 H   0  0  0  0  0  0  0  0  0  0  0  0
  1  2  1  0
  1 23  1  0
  1 24  1  0
  1 25  1  0
  2 22  1  0
  2  3  2  0
  3  4  1  0
  4  5  2  3
  4 21  1  0
  5  6  1  0
  6  7  2  0
  6  8  1  0
  8 20  1  0
  8  9  2  0
  9 10  1  0
  9 26  1  0
 10 11  2  0
 10 27  1  0
 11 19  1  0
 11 12  1  0
 12 13  2  0
 12 28  1  0
 13 14  1  0
 13 29  1  0
 14 18  1  0
 14 15  2  0
 15 16  1  0
 16 17  2  0
 16 30  1  0
 17 18  1  0
 17 31  1  0
 18 19  1  0
 19 20  2  0
 20 32  1  0
 21 22  1  0
 22 33  1  0
M  END
>  <i_m_ct_stereo_status>  (476) 
1

>  <s_m_source_file>  (476) 
/var/tmp/pbs.5076255.sched01/tmpk5ywl0l3/150lwq6_0yz.sdf

>  <i_m_source_file_index>  (476) 
43

>  <i_lp_mmshare_version>  (476) 
48012

>  <i_f3d_flags>  (476) 
0

>  <s_epik_input>  (476) 
W0NIM11jMW4vYyhvW25IXTEpPU4vQyg9TyljKFtjSF1bY0hdMilbY0hdYyhjMjMpbjRjKFtjSF1bY0hdMyluW2NIXVtjSF00

>  <s_epik_cmdline>  (476) 
J2VwaWtfcHl0aG9uJywgJy1waHQnLCAnMi4wJywgJy1waCcsICc3LjAnLCAnLXRuJywgJzgnLCAnLW1hJywgJzIwMCcsICctaW1hZScsICc8aW5maWxlLm1hZT4nLCAnLW9tYWUnLCAnPG91dGZpbGUubWFlPic=

>  <r_lp_tautomer_probability>  (476) 
1

>  <r_epik_Ionization_Penalty>  (476) 
14.058

>  <r_epik_Ionization_Penalty_Charging>  (476) 
14.058

>  <r_epik_Ionization_Penalty_Neutral>  (476) 
1.47309e-08

>  <r_epik_State_Penalty>  (476) 
-0

>  <r_epik_Charging_Adjusted_Penalty>  (476) 
14.058

>  <i_epik_Tot_Q>  (476) 
0

>  <i_epik_Tot_abs_Q>  (476) 
0

>  <s_lp_Force_Field>  (476) 
OPLS3e

>  <r_lp_Energy>  (476) 
35.7476

>  <b_lp_Chiralities_Consistent>  (476) 
1

>  <s_lp_Variant>  (476) 
116:0-2

>  <s_i_glide_gridfile>  (476) 
pfpi4k_grid

>  <i_i_glide_lignum>  (476) 
43

>  <i_i_glide_rotatable_bonds>  (476) 
2

>  <r_i_docking_score>  (476) 
-4.2778

>  <r_i_glide_ligand_efficiency>  (476) 
-0.194445

>  <r_i_glide_ligand_efficiency_sa>  (476) 
-0.544844

>  <r_i_glide_ligand_efficiency_ln>  (476) 
-1.04565

>  <r_i_glide_gscore>  (476) 
-4.2778

>  <r_i_glide_lipo>  (476) 
-0.318594

>  <r_i_glide_hbond>  (476) 
-0.245508

>  <r_i_glide_metal>  (476) 
-0

>  <r_i_glide_rewards>  (476) 
-1.53483

>  <r_i_glide_evdw>  (476) 
-22.5597

>  <r_i_glide_ecoul>  (476) 
-7.28357

>  <r_i_glide_erotb>  (476) 
0.212413

>  <r_i_glide_esite>  (476) 
-0.170755

>  <r_i_glide_emodel>  (476) 
-38.7845

>  <r_i_glide_energy>  (476) 
-29.8432

>  <r_i_glide_einternal>  (476) 
0.794366

>  <r_i_glide_intrahb_reward>  (476) 
-0

>  <i_i_glide_confnum>  (476) 
1

>  <i_i_glide_posenum>  (476) 
21

>  <r_i_glide_eff_state_penalty>  (476) 
0

>  <ligand_id>  (476) 
116

>  <original_smiles>  (476) 
Cc1nc(=NC(=O)c2ccc3ccc4nccn4c3c2)o[nH]1

>  <smiles>  (476) 
[H]c1nc2c([H])c([H])c3c([H])c([H])c(C(=O)N=c4nc(C([H])([H])[H])n([H])o4)c([H])c3n2c1[H]

$$$$
116:1:2
     RDKit          3D

 33 36  0  0  1  0  0  0  0  0999 V2000
    2.4492    3.7083    2.9440 C   0  0  0  0  0  0  0  0  0  0  0  0
    1.3915    2.6444    3.1054 C   0  0  0  0  0  0  0  0  0  0  0  0
    1.6067    1.4182    3.3685 N   0  0  0  0  0  0  0  0  0  0  0  0
    0.2942    0.8479    3.3046 C   0  0  0  0  0  0  0  0  0  0  0  0
   -0.0797   -0.3365    3.5857 N   0  0  0  0  0  0  0  0  0  0  0  0
    0.8072   -1.3762    3.8670 C   0  0  0  0  0  0  0  0  0  0  0  0
    0.4333   -2.3644    4.4791 O   0  0  0  0  0  0  0  0  0  0  0  0
    2.2387   -1.3886    3.4058 C   0  0  0  0  0  0  0  0  0  0  0  0
    3.2242   -0.9310    4.2928 C   0  0  0  0  0  0  0  0  0  0  0  0
    4.5230   -0.7837    3.8026 C   0  0  0  0  0  0  0  0  0  0  0  0
    4.8396   -1.1637    2.4763 C   0  0  0  0  0  0  0  0  0  0  0  0
    6.1844   -1.0542    2.0665 C   0  0  0  0  0  0  0  0  0  0  0  0
    6.5931   -1.4399    0.7712 C   0  0  0  0  0  0  0  0  0  0  0  0
    5.5814   -1.9120   -0.1020 C   0  0  0  0  0  0  0  0  0  0  0  0
    5.6626   -2.3154   -1.3647 N   0  0  0  0  0  0  0  0  0  0  0  0
    4.3442   -2.7049   -1.7258 C   0  0  0  0  0  0  0  0  0  0  0  0
    3.4391   -2.5164   -0.6970 C   0  0  0  0  0  0  0  0  0  0  0  0
    4.2973   -2.0167    0.2706 N   0  0  0  0  0  0  0  0  0  0  0  0
    3.8766   -1.6661    1.5488 C   0  0  0  0  0  0  0  0  0  0  0  0
    2.5615   -1.7556    2.0738 C   0  0  0  0  0  0  0  0  0  0  0  0
   -0.6652    1.7696    2.9471 O   0  0  0  0  0  0  0  0  0  0  0  0
    0.0783    2.9783    2.8867 N   0  0  0  0  0  0  0  0  0  0  0  0
    3.4220    3.2680    3.1214 H   0  0  0  0  0  0  0  0  0  0  0  0
    2.3380    4.5077    3.6753 H   0  0  0  0  0  0  0  0  0  0  0  0
    2.4660    4.1394    1.9406 H   0  0  0  0  0  0  0  0  0  0  0  0
    2.9392   -0.5599    5.2773 H   0  0  0  0  0  0  0  0  0  0  0  0
    5.2746   -0.3691    4.4619 H   0  0  0  0  0  0  0  0  0  0  0  0
    6.9328   -0.6544    2.7305 H   0  0  0  0  0  0  0  0  0  0  0  0
    7.6172   -1.3657    0.4182 H   0  0  0  0  0  0  0  0  0  0  0  0
    4.1392   -3.0863   -2.7161 H   0  0  0  0  0  0  0  0  0  0  0  0
    2.3606   -2.6525   -0.5677 H   0  0  0  0  0  0  0  0  0  0  0  0
    1.7542   -2.0700    1.4346 H   0  0  0  0  0  0  0  0  0  0  0  0
   -0.1602    3.5797    2.0846 H   0  0  0  0  0  0  0  0  0  0  0  0
  1  2  1  0
  1 23  1  0
  1 24  1  0
  1 25  1  0
  2 22  1  0
  2  3  2  0
  3  4  1  0
  4  5  2  3
  4 21  1  0
  5  6  1  0
  6  7  2  0
  6  8  1  0
  8 20  1  0
  8  9  2  0
  9 10  1  0
  9 26  1  0
 10 11  2  0
 10 27  1  0
 11 19  1  0
 11 12  1  0
 12 13  2  0
 12 28  1  0
 13 14  1  0
 13 29  1  0
 14 18  1  0
 14 15  2  0
 15 16  1  0
 16 17  2  0
 16 30  1  0
 17 18  1  0
 17 31  1  0
 18 19  1  0
 19 20  2  0
 20 32  1  0
 21 22  1  0
 22 33  1  0
M  END
>  <i_m_ct_stereo_status>  (477) 
1

>  <s_m_source_file>  (477) 
/var/tmp/pbs.5076255.sched01/tmpk5ywl0l3/150lwq6_0yz.sdf

>  <i_m_source_file_index>  (477) 
43

>  <i_lp_mmshare_version>  (477) 
48012

>  <i_f3d_flags>  (477) 
0

>  <s_epik_input>  (477) 
W0NIM11jMW4vYyhvW25IXTEpPU4vQyg9TyljKFtjSF1bY0hdMilbY0hdYyhjMjMpbjRjKFtjSF1bY0hdMyluW2NIXVtjSF00

>  <s_epik_cmdline>  (477) 
J2VwaWtfcHl0aG9uJywgJy1waHQnLCAnMi4wJywgJy1waCcsICc3LjAnLCAnLXRuJywgJzgnLCAnLW1hJywgJzIwMCcsICctaW1hZScsICc8aW5maWxlLm1hZT4nLCAnLW9tYWUnLCAnPG91dGZpbGUubWFlPic=

>  <r_lp_tautomer_probability>  (477) 
1

>  <r_epik_Ionization_Penalty>  (477) 
14.058

>  <r_epik_Ionization_Penalty_Charging>  (477) 
14.058

>  <r_epik_Ionization_Penalty_Neutral>  (477) 
1.47309e-08

>  <r_epik_State_Penalty>  (477) 
-0

>  <r_epik_Charging_Adjusted_Penalty>  (477) 
14.058

>  <i_epik_Tot_Q>  (477) 
0

>  <i_epik_Tot_abs_Q>  (477) 
0

>  <s_lp_Force_Field>  (477) 
OPLS3e

>  <r_lp_Energy>  (477) 
35.7476

>  <b_lp_Chiralities_Consistent>  (477) 
1

>  <s_lp_Variant>  (477) 
116:0-2

>  <s_i_glide_gridfile>  (477) 
pfpi4k_grid

>  <i_i_glide_lignum>  (477) 
43

>  <i_i_glide_rotatable_bonds>  (477) 
2

>  <r_i_docking_score>  (477) 
-3.97184

>  <r_i_glide_ligand_efficiency>  (477) 
-0.180538

>  <r_i_glide_ligand_efficiency_sa>  (477) 
-0.505875

>  <r_i_glide_ligand_efficiency_ln>  (477) 
-0.970863

>  <r_i_glide_gscore>  (477) 
-3.97184

>  <r_i_glide_lipo>  (477) 
-0.260393

>  <r_i_glide_hbond>  (477) 
-0.16

>  <r_i_glide_metal>  (477) 
-0

>  <r_i_glide_rewards>  (477) 
-1.40945

>  <r_i_glide_evdw>  (477) 
-21.4155

>  <r_i_glide_ecoul>  (477) 
-7.34901

>  <r_i_glide_erotb>  (477) 
0.212413

>  <r_i_glide_esite>  (477) 
-0.18128

>  <r_i_glide_emodel>  (477) 
-36.6081

>  <r_i_glide_energy>  (477) 
-28.7645

>  <r_i_glide_einternal>  (477) 
1.58349

>  <r_i_glide_intrahb_reward>  (477) 
-0

>  <i_i_glide_confnum>  (477) 
1

>  <i_i_glide_posenum>  (477) 
9

>  <r_i_glide_eff_state_penalty>  (477) 
0

>  <ligand_id>  (477) 
116

>  <original_smiles>  (477) 
Cc1nc(=NC(=O)c2ccc3ccc4nccn4c3c2)o[nH]1

>  <smiles>  (477) 
[H]c1nc2c([H])c([H])c3c([H])c([H])c(C(=O)N=c4nc(C([H])([H])[H])n([H])o4)c([H])c3n2c1[H]

$$$$
117:0:0
     RDKit          3D

 77 82  0  0  1  0  0  0  0  0999 V2000
    3.3726   -2.1100    5.8700 C   0  0  0  0  0  0  0  0  0  0  0  0
    1.9898   -2.0025    5.1981 C   0  0  2  0  0  0  0  0  0  0  0  0
    1.6013   -3.3677    4.5843 C   0  0  0  0  0  0  0  0  0  0  0  0
    0.7515   -4.0916    5.1536 O   0  0  0  0  0  0  0  0  0  0  0  0
    2.2390   -3.7959    3.2616 C   0  0  0  0  0  0  0  0  0  0  0  0
    1.8049   -5.0938    2.6072 C   0  0  2  0  0  0  0  0  0  0  0  0
    2.3243   -6.2458    3.3072 O   0  0  0  0  0  0  0  0  0  0  0  0
    2.1751   -7.4733    2.5927 C   0  0  0  0  0  0  0  0  0  0  0  0
    2.7666   -8.5663    3.4880 C   0  0  0  0  0  0  0  0  0  0  0  0
    0.6803   -7.8035    2.3282 C   0  0  0  0  0  0  0  0  0  0  0  0
    2.9249   -7.4907    1.3774 O   0  0  0  0  0  0  0  0  0  0  0  0
    2.8631   -6.3163    0.5385 C   0  0  1  0  0  0  0  0  0  0  0  0
    1.5358   -5.8640    0.2247 O   0  0  0  0  0  0  0  0  0  0  0  0
    2.3157   -5.0802    1.1746 C   0  0  1  0  0  0  0  0  0  0  0  0
    1.7921   -0.6995    4.3089 C   0  0  1  0  0  0  0  0  0  0  0  0
    2.8895   -0.6985    3.1843 C   0  0  0  0  0  0  0  0  0  0  0  0
    0.3575   -0.6418    3.6655 C   0  0  1  0  0  0  0  0  0  0  0  0
   -0.7643   -0.8000    4.7312 C   0  0  0  0  0  0  0  0  0  0  0  0
   -0.5950    0.2712    5.8249 C   0  0  0  0  0  0  0  0  0  0  0  0
    0.4594    1.3078    5.3704 C   0  0  1  0  0  0  0  0  0  0  0  0
    1.8407    0.5887    5.2493 C   0  0  2  0  0  0  0  0  0  0  0  0
    2.9120    1.6517    4.9313 C   0  0  0  0  0  0  0  0  0  0  0  0
    2.6105    2.5349    3.6971 C   0  0  0  0  0  0  0  0  0  0  0  0
    1.1543    3.0464    3.5714 C   0  0  2  0  0  0  0  0  0  0  0  0
    0.9609    4.5101    4.1439 C   0  0  0  0  0  0  0  0  0  0  0  0
    1.5048    4.6996    5.5822 C   0  0  0  0  0  0  0  0  0  0  0  0
    1.7354    5.5262    3.2676 C   0  0  0  0  0  0  0  0  0  0  0  0
   -0.5375    4.9300    4.1549 C   0  0  1  0  0  0  0  0  0  0  0  0
   -1.0587    5.3364    2.8950 O   0  0  0  0  0  0  0  0  0  0  0  0
   -1.4565    3.8464    4.7284 C   0  0  0  0  0  0  0  0  0  0  0  0
   -1.3230    2.5554    3.9270 C   0  0  0  0  0  0  0  0  0  0  0  0
    0.1022    1.9321    3.9769 C   0  0  2  0  0  0  0  0  0  0  0  0
    0.1036    0.7312    2.9650 C   0  0  0  0  0  0  0  0  0  0  0  0
    3.3934   -2.9396    6.5780 H   0  0  0  0  0  0  0  0  0  0  0  0
    3.6153   -1.2193    6.4374 H   0  0  0  0  0  0  0  0  0  0  0  0
    4.1743   -2.2757    5.1505 H   0  0  0  0  0  0  0  0  0  0  0  0
    1.2993   -1.9023    6.0219 H   0  0  0  0  0  0  0  0  0  0  0  0
    1.8545   -3.0693    2.5890 H   0  0  0  0  0  0  0  0  0  0  0  0
    3.3329   -3.7009    3.2840 H   0  0  0  0  0  0  0  0  0  0  0  0
    0.7119   -5.1812    2.6126 H   0  0  0  0  0  0  0  0  0  0  0  0
    3.8092   -8.3736    3.7923 H   0  0  0  0  0  0  0  0  0  0  0  0
    2.7200   -9.5101    2.9675 H   0  0  0  0  0  0  0  0  0  0  0  0
    2.1606   -8.6478    4.3760 H   0  0  0  0  0  0  0  0  0  0  0  0
    0.1451   -7.1202    1.6736 H   0  0  0  0  0  0  0  0  0  0  0  0
    0.1881   -7.8184    3.2879 H   0  0  0  0  0  0  0  0  0  0  0  0
    0.6725   -8.7785    1.8726 H   0  0  0  0  0  0  0  0  0  0  0  0
    3.5881   -6.2909   -0.2703 H   0  0  0  0  0  0  0  0  0  0  0  0
    2.5648   -4.1138    0.7514 H   0  0  0  0  0  0  0  0  0  0  0  0
    2.7628    0.1202    2.4851 H   0  0  0  0  0  0  0  0  0  0  0  0
    2.9017   -1.5468    2.5363 H   0  0  0  0  0  0  0  0  0  0  0  0
    3.8927   -0.5623    3.6061 H   0  0  0  0  0  0  0  0  0  0  0  0
    0.2519   -1.4369    2.9436 H   0  0  0  0  0  0  0  0  0  0  0  0
   -1.7482   -0.6911    4.2627 H   0  0  0  0  0  0  0  0  0  0  0  0
   -0.7746   -1.7951    5.1812 H   0  0  0  0  0  0  0  0  0  0  0  0
   -1.5523    0.7474    6.0527 H   0  0  0  0  0  0  0  0  0  0  0  0
   -0.2605   -0.1884    6.7561 H   0  0  0  0  0  0  0  0  0  0  0  0
    0.5065    2.0754    6.1268 H   0  0  0  0  0  0  0  0  0  0  0  0
    2.0589    0.2617    6.2665 H   0  0  0  0  0  0  0  0  0  0  0  0
    3.0159    2.3006    5.7977 H   0  0  0  0  0  0  0  0  0  0  0  0
    3.8949    1.1998    4.8284 H   0  0  0  0  0  0  0  0  0  0  0  0
    3.3142    3.3595    3.7082 H   0  0  0  0  0  0  0  0  0  0  0  0
    2.8748    2.0611    2.7599 H   0  0  0  0  0  0  0  0  0  0  0  0
    1.0139    3.1811    2.4990 H   0  0  0  0  0  0  0  0  0  0  0  0
    1.4051    5.7389    5.8988 H   0  0  0  0  0  0  0  0  0  0  0  0
    2.5616    4.4586    5.6564 H   0  0  0  0  0  0  0  0  0  0  0  0
    0.9667    4.1084    6.3133 H   0  0  0  0  0  0  0  0  0  0  0  0
    1.4733    6.5554    3.5170 H   0  0  0  0  0  0  0  0  0  0  0  0
    1.5066    5.3853    2.2142 H   0  0  0  0  0  0  0  0  0  0  0  0
    2.8149    5.4362    3.3649 H   0  0  0  0  0  0  0  0  0  0  0  0
   -0.6094    5.8069    4.7988 H   0  0  0  0  0  0  0  0  0  0  0  0
   -0.5833    4.9105    2.1802 H   0  0  0  0  0  0  0  0  0  0  0  0
   -1.2202    3.6639    5.7753 H   0  0  0  0  0  0  0  0  0  0  0  0
   -2.4931    4.1784    4.7083 H   0  0  0  0  0  0  0  0  0  0  0  0
   -2.0914    1.8466    4.2354 H   0  0  0  0  0  0  0  0  0  0  0  0
   -1.5604    2.7866    2.8869 H   0  0  0  0  0  0  0  0  0  0  0  0
    0.7992    0.8943    2.1451 H   0  0  0  0  0  0  0  0  0  0  0  0
   -0.8545    0.6671    2.4490 H   0  0  0  0  0  0  0  0  0  0  0  0
  1  2  1  0
  1 34  1  0
  1 35  1  0
  1 36  1  0
  2  3  1  0
  2 15  1  0
  2 37  1  1
  3  4  2  0
  3  5  1  0
  5  6  1  0
  5 38  1  0
  5 39  1  0
  6 14  1  0
  6  7  1  0
  6 40  1  6
  7  8  1  0
  8  9  1  0
  8 10  1  0
  8 11  1  0
  9 41  1  0
  9 42  1  0
  9 43  1  0
 10 44  1  0
 10 45  1  0
 10 46  1  0
 11 12  1  0
 12 14  1  0
 12 13  1  0
 12 47  1  6
 13 14  1  0
 14 48  1  6
 15 21  1  0
 15 16  1  6
 15 17  1  0
 16 49  1  0
 16 50  1  0
 16 51  1  0
 17 33  1  0
 17 18  1  0
 17 52  1  6
 18 19  1  0
 18 53  1  0
 18 54  1  0
 19 20  1  0
 19 55  1  0
 19 56  1  0
 20 32  1  0
 20 21  1  0
 20 57  1  1
 21 22  1  0
 21 58  1  1
 22 23  1  0
 22 59  1  0
 22 60  1  0
 23 24  1  0
 23 61  1  0
 23 62  1  0
 24 32  1  0
 24 25  1  0
 24 63  1  6
 25 26  1  0
 25 27  1  0
 25 28  1  0
 26 64  1  0
 26 65  1  0
 26 66  1  0
 27 67  1  0
 27 68  1  0
 27 69  1  0
 28 29  1  0
 28 30  1  0
 28 70  1  1
 29 71  1  0
 30 31  1  0
 30 72  1  0
 30 73  1  0
 32 31  1  1
 31 74  1  0
 31 75  1  0
 32 33  1  0
 33 76  1  0
 33 77  1  0
M  END
>  <i_m_ct_stereo_status>  (478) 
1

>  <s_m_source_file>  (478) 
/var/tmp/pbs.5076255.sched01/tmpk5ywl0l3/150lwq6_0yz.sdf

>  <i_m_source_file_index>  (478) 
44

>  <i_lp_mmshare_version>  (478) 
48012

>  <i_f3d_flags>  (478) 
0

>  <s_epik_input>  (478) 
W0NIM11DKE8xKShbQ0gzXSlPW0NASF0oW0NASF0oTzIpW0NAQEhdMTIpW0NIMl1DKD1PKVtDQEBIXShbQ0gzXSlbQ0BAXShbQ0gzXSkoW0NASF0oW0NIMl0zKVtDSDJdW0NIMl00KVtDQEhdKFtDQEhdNFtDQF0zNTYpW0NIMl1bQ0gyXVtDQEBIXTVDKFtDSDNdKShbQ0gzXSlbQ0BASF0oW09IXSlbQ0gyXVtDSDJdNg==

>  <s_epik_cmdline>  (478) 
J2VwaWtfcHl0aG9uJywgJy1waHQnLCAnMi4wJywgJy1waCcsICc3LjAnLCAnLXRuJywgJzgnLCAnLW1hJywgJzIwMCcsICctaW1hZScsICc8aW5maWxlLm1hZT4nLCAnLW9tYWUnLCAnPG91dGZpbGUubWFlPic=

>  <r_lp_tautomer_probability>  (478) 
1

>  <r_epik_Ionization_Penalty>  (478) 
3.26078e-06

>  <r_epik_Ionization_Penalty_Charging>  (478) 
0

>  <r_epik_Ionization_Penalty_Neutral>  (478) 
3.26078e-06

>  <r_epik_State_Penalty>  (478) 
-0

>  <r_epik_Charging_Adjusted_Penalty>  (478) 
0

>  <i_epik_Tot_Q>  (478) 
0

>  <i_epik_Tot_abs_Q>  (478) 
0

>  <s_epik_Chemistry_Notes>  (478) 
This compound contains an acetal/aminal-like group ( X-CH(R)-Y where X, Y are N, S, or O) that may be acid/base labile, releasing an aldehyde.

>  <s_lp_Force_Field>  (478) 
OPLS3e

>  <r_lp_Energy>  (478) 
79.8166

>  <b_lp_Chiralities_Consistent>  (478) 
1

>  <s_lp_Variant>  (478) 
117:0-1

>  <s_i_glide_gridfile>  (478) 
pfpi4k_grid

>  <i_i_glide_lignum>  (478) 
44

>  <i_i_glide_rotatable_bonds>  (478) 
5

>  <r_i_docking_score>  (478) 
-2.9527

>  <r_i_glide_ligand_efficiency>  (478) 
-0.0894759

>  <r_i_glide_ligand_efficiency_sa>  (478) 
-0.286997

>  <r_i_glide_ligand_efficiency_ln>  (478) 
-0.656666

>  <r_i_glide_gscore>  (478) 
-2.9527

>  <r_i_glide_lipo>  (478) 
0

>  <r_i_glide_hbond>  (478) 
-0.451458

>  <r_i_glide_metal>  (478) 
-0

>  <r_i_glide_rewards>  (478) 
-0.282335

>  <r_i_glide_evdw>  (478) 
-21.445

>  <r_i_glide_ecoul>  (478) 
-9.99971

>  <r_i_glide_erotb>  (478) 
0.379464

>  <r_i_glide_esite>  (478) 
-0.0261686

>  <r_i_glide_emodel>  (478) 
-34.7801

>  <r_i_glide_energy>  (478) 
-31.4447

>  <r_i_glide_einternal>  (478) 
2.97214

>  <r_i_glide_intrahb_reward>  (478) 
-0

>  <i_i_glide_confnum>  (478) 
4

>  <i_i_glide_posenum>  (478) 
22

>  <r_i_glide_eff_state_penalty>  (478) 
0

>  <ligand_id>  (478) 
117

>  <original_smiles>  (478) 
CC(C(=O)CC1OC(C)(C)OC2OC12)C1(C)C2CCC3C1CCC1C(C)(C)C(O)CCC31C2

>  <smiles>  (478) 
[H]OC1([H])C([H])([H])C([H])([H])C23C([H])([H])C4([H])C([H])([H])C([H])([H])C2([H])C([H])(C([H])([H])C([H])([H])C3([H])C1(C([H])([H])[H])C([H])([H])[H])C4(C([H])([H])[H])C([H])(C(=O)C([H])([H])C1([H])OC(C([H])([H])[H])(C([H])([H])[H])OC2([H])OC21[H])C([H])([H])[H]

$$$$
117:0:1
     RDKit          3D

 77 82  0  0  1  0  0  0  0  0999 V2000
    3.3612   -2.2977    5.5695 C   0  0  0  0  0  0  0  0  0  0  0  0
    1.9588   -2.1021    4.9524 C   0  0  2  0  0  0  0  0  0  0  0  0
    1.4690   -3.4318    4.2963 C   0  0  0  0  0  0  0  0  0  0  0  0
    0.5954   -4.0834    4.8453 O   0  0  0  0  0  0  0  0  0  0  0  0
    2.1349   -3.8947    2.9833 C   0  0  0  0  0  0  0  0  0  0  0  0
    2.1997   -5.4151    2.7539 C   0  0  2  0  0  0  0  0  0  0  0  0
    0.8975   -5.9658    2.5377 O   0  0  0  0  0  0  0  0  0  0  0  0
    0.8650   -7.3893    2.5530 C   0  0  0  0  0  0  0  0  0  0  0  0
   -0.6054   -7.7863    2.3843 C   0  0  0  0  0  0  0  0  0  0  0  0
    1.6782   -7.9821    1.3636 C   0  0  0  0  0  0  0  0  0  0  0  0
    1.2634   -7.9399    3.7670 O   0  0  0  0  0  0  0  0  0  0  0  0
    2.4346   -7.4196    4.4098 C   0  0  1  0  0  0  0  0  0  0  0  0
    3.5843   -7.3545    3.5510 O   0  0  0  0  0  0  0  0  0  0  0  0
    2.9431   -6.1011    3.8953 C   0  0  1  0  0  0  0  0  0  0  0  0
    1.7733   -0.7692    4.1218 C   0  0  1  0  0  0  0  0  0  0  0  0
    2.8556   -0.7367    2.9948 C   0  0  0  0  0  0  0  0  0  0  0  0
    0.3502   -0.6705    3.4782 C   0  0  1  0  0  0  0  0  0  0  0  0
   -0.7774   -0.8626    4.5305 C   0  0  0  0  0  0  0  0  0  0  0  0
   -0.5949    0.1568    5.6709 C   0  0  0  0  0  0  0  0  0  0  0  0
    0.4694    1.1975    5.2600 C   0  0  1  0  0  0  0  0  0  0  0  0
    1.8446    0.4722    5.1200 C   0  0  2  0  0  0  0  0  0  0  0  0
    2.9325    1.5259    4.8330 C   0  0  0  0  0  0  0  0  0  0  0  0
    2.6363    2.4615    3.6410 C   0  0  0  0  0  0  0  0  0  0  0  0
    1.1882    2.9969    3.5501 C   0  0  2  0  0  0  0  0  0  0  0  0
    1.0061    4.4407    4.1702 C   0  0  0  0  0  0  0  0  0  0  0  0
    1.5461    4.5725    5.6125 C   0  0  0  0  0  0  0  0  0  0  0  0
    1.7926    5.4806    3.3341 C   0  0  0  0  0  0  0  0  0  0  0  0
   -0.4888    4.8726    4.1865 C   0  0  1  0  0  0  0  0  0  0  0  0
   -0.9990    5.3485    2.9418 O   0  0  0  0  0  0  0  0  0  0  0  0
   -1.4246    3.7777    4.7070 C   0  0  0  0  0  0  0  0  0  0  0  0
   -1.2957    2.5157    3.8572 C   0  0  0  0  0  0  0  0  0  0  0  0
    0.1234    1.8832    3.8973 C   0  0  2  0  0  0  0  0  0  0  0  0
    0.1225    0.7263    2.8279 C   0  0  0  0  0  0  0  0  0  0  0  0
    3.3733   -3.1505    6.2484 H   0  0  0  0  0  0  0  0  0  0  0  0
    3.6548   -1.4267    6.1550 H   0  0  0  0  0  0  0  0  0  0  0  0
    4.1351   -2.4699    4.8228 H   0  0  0  0  0  0  0  0  0  0  0  0
    1.2974   -2.0138    5.8140 H   0  0  0  0  0  0  0  0  0  0  0  0
    1.6541   -3.4251    2.1247 H   0  0  0  0  0  0  0  0  0  0  0  0
    3.1788   -3.5956    3.0172 H   0  0  0  0  0  0  0  0  0  0  0  0
    2.7679   -5.5900    1.8343 H   0  0  0  0  0  0  0  0  0  0  0  0
   -1.2348   -7.3548    3.1697 H   0  0  0  0  0  0  0  0  0  0  0  0
   -0.6569   -8.8725    2.4495 H   0  0  0  0  0  0  0  0  0  0  0  0
   -0.9507   -7.4807    1.4056 H   0  0  0  0  0  0  0  0  0  0  0  0
    2.7493   -7.8001    1.3211 H   0  0  0  0  0  0  0  0  0  0  0  0
    1.2290   -7.5693    0.4758 H   0  0  0  0  0  0  0  0  0  0  0  0
    1.5238   -9.0547    1.3865 H   0  0  0  0  0  0  0  0  0  0  0  0
    2.6091   -7.7624    5.4175 H   0  0  0  0  0  0  0  0  0  0  0  0
    3.6299   -5.4802    4.4841 H   0  0  0  0  0  0  0  0  0  0  0  0
    2.7469    0.0918    2.3123 H   0  0  0  0  0  0  0  0  0  0  0  0
    2.7890   -1.5766    2.3120 H   0  0  0  0  0  0  0  0  0  0  0  0
    3.8727   -0.7104    3.3901 H   0  0  0  0  0  0  0  0  0  0  0  0
    0.2528   -1.4471    2.7205 H   0  0  0  0  0  0  0  0  0  0  0  0
   -1.7556   -0.7180    4.0688 H   0  0  0  0  0  0  0  0  0  0  0  0
   -0.8029   -1.8711    4.9384 H   0  0  0  0  0  0  0  0  0  0  0  0
   -1.5483    0.6290    5.9103 H   0  0  0  0  0  0  0  0  0  0  0  0
   -0.2663   -0.3543    6.5784 H   0  0  0  0  0  0  0  0  0  0  0  0
    0.5243    1.9415    6.0542 H   0  0  0  0  0  0  0  0  0  0  0  0
    2.0777    0.0895    6.1148 H   0  0  0  0  0  0  0  0  0  0  0  0
    3.0302    2.1477    5.7233 H   0  0  0  0  0  0  0  0  0  0  0  0
    3.9131    1.0676    4.7118 H   0  0  0  0  0  0  0  0  0  0  0  0
    3.3421    3.2795    3.6965 H   0  0  0  0  0  0  0  0  0  0  0  0
    2.8907    2.0171    2.6867 H   0  0  0  0  0  0  0  0  0  0  0  0
    1.0400    3.1854    2.4881 H   0  0  0  0  0  0  0  0  0  0  0  0
    1.4526    5.6029    5.9626 H   0  0  0  0  0  0  0  0  0  0  0  0
    2.6036    4.3210    5.6736 H   0  0  0  0  0  0  0  0  0  0  0  0
    0.9999    3.9529    6.3177 H   0  0  0  0  0  0  0  0  0  0  0  0
    1.5359    6.5000    3.6289 H   0  0  0  0  0  0  0  0  0  0  0  0
    1.5647    5.3850    2.2745 H   0  0  0  0  0  0  0  0  0  0  0  0
    2.8710    5.3769    3.4395 H   0  0  0  0  0  0  0  0  0  0  0  0
   -0.5733    5.7219    4.8641 H   0  0  0  0  0  0  0  0  0  0  0  0
   -0.5482    4.9176    2.2092 H   0  0  0  0  0  0  0  0  0  0  0  0
   -1.1946    3.5491    5.7459 H   0  0  0  0  0  0  0  0  0  0  0  0
   -2.4545    4.1339    4.6912 H   0  0  0  0  0  0  0  0  0  0  0  0
   -2.0740    1.8026    4.1319 H   0  0  0  0  0  0  0  0  0  0  0  0
   -1.5254    2.7850    2.8253 H   0  0  0  0  0  0  0  0  0  0  0  0
    0.8233    0.9207    2.0186 H   0  0  0  0  0  0  0  0  0  0  0  0
   -0.8325    0.6920    2.3046 H   0  0  0  0  0  0  0  0  0  0  0  0
  1  2  1  0
  1 34  1  0
  1 35  1  0
  1 36  1  0
  2  3  1  0
  2 15  1  0
  2 37  1  1
  3  4  2  0
  3  5  1  0
  5  6  1  0
  5 38  1  0
  5 39  1  0
  6 14  1  0
  6  7  1  0
  6 40  1  6
  7  8  1  0
  8  9  1  0
  8 10  1  0
  8 11  1  0
  9 41  1  0
  9 42  1  0
  9 43  1  0
 10 44  1  0
 10 45  1  0
 10 46  1  0
 11 12  1  0
 12 14  1  0
 12 13  1  0
 12 47  1  1
 13 14  1  0
 14 48  1  1
 15 21  1  0
 15 16  1  6
 15 17  1  0
 16 49  1  0
 16 50  1  0
 16 51  1  0
 17 33  1  0
 17 18  1  0
 17 52  1  6
 18 19  1  0
 18 53  1  0
 18 54  1  0
 19 20  1  0
 19 55  1  0
 19 56  1  0
 20 32  1  0
 20 21  1  0
 20 57  1  1
 21 22  1  0
 21 58  1  1
 22 23  1  0
 22 59  1  0
 22 60  1  0
 23 24  1  0
 23 61  1  0
 23 62  1  0
 24 32  1  0
 24 25  1  0
 24 63  1  6
 25 26  1  0
 25 27  1  0
 25 28  1  0
 26 64  1  0
 26 65  1  0
 26 66  1  0
 27 67  1  0
 27 68  1  0
 27 69  1  0
 28 29  1  0
 28 30  1  0
 28 70  1  1
 29 71  1  0
 30 31  1  0
 30 72  1  0
 30 73  1  0
 32 31  1  1
 31 74  1  0
 31 75  1  0
 32 33  1  0
 33 76  1  0
 33 77  1  0
M  END
>  <i_m_ct_stereo_status>  (479) 
1

>  <s_m_source_file>  (479) 
/var/tmp/pbs.5076255.sched01/tmpk5ywl0l3/150lwq6_0yz.sdf

>  <i_m_source_file_index>  (479) 
44

>  <i_lp_mmshare_version>  (479) 
48012

>  <i_f3d_flags>  (479) 
0

>  <s_epik_input>  (479) 
W0NIM11DKE8xKShbQ0gzXSlPW0NASF0oW0NASF0oTzIpW0NAQEhdMTIpW0NIMl1DKD1PKVtDQEBIXShbQ0gzXSlbQ0BAXShbQ0gzXSkoW0NASF0oW0NIMl0zKVtDSDJdW0NIMl00KVtDQEhdKFtDQEhdNFtDQF0zNTYpW0NIMl1bQ0gyXVtDQEBIXTVDKFtDSDNdKShbQ0gzXSlbQ0BASF0oW09IXSlbQ0gyXVtDSDJdNg==

>  <s_epik_cmdline>  (479) 
J2VwaWtfcHl0aG9uJywgJy1waHQnLCAnMi4wJywgJy1waCcsICc3LjAnLCAnLXRuJywgJzgnLCAnLW1hJywgJzIwMCcsICctaW1hZScsICc8aW5maWxlLm1hZT4nLCAnLW9tYWUnLCAnPG91dGZpbGUubWFlPic=

>  <r_lp_tautomer_probability>  (479) 
1

>  <r_epik_Ionization_Penalty>  (479) 
3.26078e-06

>  <r_epik_Ionization_Penalty_Charging>  (479) 
0

>  <r_epik_Ionization_Penalty_Neutral>  (479) 
3.26078e-06

>  <r_epik_State_Penalty>  (479) 
-0

>  <r_epik_Charging_Adjusted_Penalty>  (479) 
0

>  <i_epik_Tot_Q>  (479) 
0

>  <i_epik_Tot_abs_Q>  (479) 
0

>  <s_epik_Chemistry_Notes>  (479) 
This compound contains an acetal/aminal-like group ( X-CH(R)-Y where X, Y are N, S, or O) that may be acid/base labile, releasing an aldehyde.

>  <s_lp_Force_Field>  (479) 
OPLS3e

>  <r_lp_Energy>  (479) 
79.8166

>  <b_lp_Chiralities_Consistent>  (479) 
1

>  <s_lp_Variant>  (479) 
117:0-1

>  <s_i_glide_gridfile>  (479) 
pfpi4k_grid

>  <i_i_glide_lignum>  (479) 
44

>  <i_i_glide_rotatable_bonds>  (479) 
5

>  <r_i_docking_score>  (479) 
-2.53417

>  <r_i_glide_ligand_efficiency>  (479) 
-0.0767931

>  <r_i_glide_ligand_efficiency_sa>  (479) 
-0.246317

>  <r_i_glide_ligand_efficiency_ln>  (479) 
-0.563587

>  <r_i_glide_gscore>  (479) 
-2.53417

>  <r_i_glide_lipo>  (479) 
0

>  <r_i_glide_hbond>  (479) 
-0.320982

>  <r_i_glide_metal>  (479) 
-0

>  <r_i_glide_rewards>  (479) 
-0.291355

>  <r_i_glide_evdw>  (479) 
-21.4613

>  <r_i_glide_ecoul>  (479) 
-7.94801

>  <r_i_glide_erotb>  (479) 
0.379464

>  <r_i_glide_esite>  (479) 
-0.0360336

>  <r_i_glide_emodel>  (479) 
-32.6973

>  <r_i_glide_energy>  (479) 
-29.4093

>  <r_i_glide_einternal>  (479) 
2.42752

>  <r_i_glide_intrahb_reward>  (479) 
-0

>  <i_i_glide_confnum>  (479) 
4

>  <i_i_glide_posenum>  (479) 
16

>  <r_i_glide_eff_state_penalty>  (479) 
0

>  <ligand_id>  (479) 
117

>  <original_smiles>  (479) 
CC(C(=O)CC1OC(C)(C)OC2OC12)C1(C)C2CCC3C1CCC1C(C)(C)C(O)CCC31C2

>  <smiles>  (479) 
[H]OC1([H])C([H])([H])C([H])([H])C23C([H])([H])C4([H])C([H])([H])C([H])([H])C2([H])C([H])(C([H])([H])C([H])([H])C3([H])C1(C([H])([H])[H])C([H])([H])[H])C4(C([H])([H])[H])C([H])(C(=O)C([H])([H])C1([H])OC(C([H])([H])[H])(C([H])([H])[H])OC2([H])OC21[H])C([H])([H])[H]

$$$$
117:0:2
     RDKit          3D

 77 82  0  0  1  0  0  0  0  0999 V2000
    2.7516   -2.7538    6.4090 C   0  0  0  0  0  0  0  0  0  0  0  0
    1.3494   -2.5254    5.7938 C   0  0  2  0  0  0  0  0  0  0  0  0
    0.7789   -3.8527    5.2429 C   0  0  0  0  0  0  0  0  0  0  0  0
   -0.1856   -4.3759    5.8119 O   0  0  0  0  0  0  0  0  0  0  0  0
    1.4399   -4.5209    4.0138 C   0  0  0  0  0  0  0  0  0  0  0  0
    1.3055   -6.0412    3.8786 C   0  0  2  0  0  0  0  0  0  0  0  0
   -0.0513   -6.3877    3.5329 O   0  0  0  0  0  0  0  0  0  0  0  0
   -0.3231   -7.7703    3.6013 C   0  0  0  0  0  0  0  0  0  0  0  0
   -1.8163   -7.9324    3.2878 C   0  0  0  0  0  0  0  0  0  0  0  0
    0.4981   -8.5688    2.5325 C   0  0  0  0  0  0  0  0  0  0  0  0
   -0.1691   -8.3155    4.8941 O   0  0  0  0  0  0  0  0  0  0  0  0
    1.0215   -7.9709    5.6193 C   0  0  1  0  0  0  0  0  0  0  0  0
    2.2446   -8.1411    4.9142 O   0  0  0  0  0  0  0  0  0  0  0  0
    1.8073   -6.7893    5.1154 C   0  0  1  0  0  0  0  0  0  0  0  0
    1.2165   -1.2541    4.8624 C   0  0  1  0  0  0  0  0  0  0  0  0
    2.1697   -1.4344    3.6443 C   0  0  0  0  0  0  0  0  0  0  0  0
   -0.2545   -1.0622    4.3448 C   0  0  1  0  0  0  0  0  0  0  0  0
   -1.2804   -1.0229    5.5173 C   0  0  0  0  0  0  0  0  0  0  0  0
   -0.8771    0.0696    6.5284 C   0  0  0  0  0  0  0  0  0  0  0  0
    0.2442    0.9489    5.9236 C   0  0  1  0  0  0  0  0  0  0  0  0
    1.5099    0.0565    5.7265 C   0  0  2  0  0  0  0  0  0  0  0  0
    2.6691    0.9502    5.2424 C   0  0  0  0  0  0  0  0  0  0  0  0
    2.3580    1.8087    3.9962 C   0  0  0  0  0  0  0  0  0  0  0  0
    0.9726    2.4972    3.9818 C   0  0  2  0  0  0  0  0  0  0  0  0
    1.0151    3.9980    4.4892 C   0  0  0  0  0  0  0  0  0  0  0  0
    1.7117    4.1790    5.8531 C   0  0  0  0  0  0  0  0  0  0  0  0
    1.8206    4.8712    3.4977 C   0  0  0  0  0  0  0  0  0  0  0  0
   -0.4178    4.5953    4.5935 C   0  0  1  0  0  0  0  0  0  0  0  0
   -0.9948    4.9714    3.3446 O   0  0  0  0  0  0  0  0  0  0  0  0
   -1.4006    3.6673    5.3102 C   0  0  0  0  0  0  0  0  0  0  0  0
   -1.5007    2.3316    4.5754 C   0  0  0  0  0  0  0  0  0  0  0  0
   -0.1613    1.5435    4.5365 C   0  0  2  0  0  0  0  0  0  0  0  0
   -0.4021    0.3041    3.5969 C   0  0  0  0  0  0  0  0  0  0  0  0
    2.7193   -3.5611    7.1442 H   0  0  0  0  0  0  0  0  0  0  0  0
    3.1103   -1.8777    6.9443 H   0  0  0  0  0  0  0  0  0  0  0  0
    3.5028   -3.0093    5.6631 H   0  0  0  0  0  0  0  0  0  0  0  0
    0.7234   -2.3321    6.6635 H   0  0  0  0  0  0  0  0  0  0  0  0
    1.0716   -4.0836    3.0837 H   0  0  0  0  0  0  0  0  0  0  0  0
    2.5166   -4.3446    4.0801 H   0  0  0  0  0  0  0  0  0  0  0  0
    1.9292   -6.3759    3.0460 H   0  0  0  0  0  0  0  0  0  0  0  0
   -2.4350   -7.3485    3.9657 H   0  0  0  0  0  0  0  0  0  0  0  0
   -2.0570   -8.9921    3.3987 H   0  0  0  0  0  0  0  0  0  0  0  0
   -1.9899   -7.6411    2.2518 H   0  0  0  0  0  0  0  0  0  0  0  0
    1.5942   -8.5728    2.6217 H   0  0  0  0  0  0  0  0  0  0  0  0
    0.2555   -8.1643    1.5431 H   0  0  0  0  0  0  0  0  0  0  0  0
    0.1613   -9.6080    2.5843 H   0  0  0  0  0  0  0  0  0  0  0  0
    1.0204   -8.2555    6.6741 H   0  0  0  0  0  0  0  0  0  0  0  0
    2.5146   -6.2329    5.7794 H   0  0  0  0  0  0  0  0  0  0  0  0
    2.1022   -0.6365    2.9321 H   0  0  0  0  0  0  0  0  0  0  0  0
    1.9217   -2.3195    3.0408 H   0  0  0  0  0  0  0  0  0  0  0  0
    3.2100   -1.4870    3.9473 H   0  0  0  0  0  0  0  0  0  0  0  0
   -0.5113   -1.8828    3.6860 H   0  0  0  0  0  0  0  0  0  0  0  0
   -2.2803   -0.8120    5.1268 H   0  0  0  0  0  0  0  0  0  0  0  0
   -1.3706   -1.9867    6.0186 H   0  0  0  0  0  0  0  0  0  0  0  0
   -1.7391    0.6771    6.8170 H   0  0  0  0  0  0  0  0  0  0  0  0
   -0.5018   -0.3869    7.4483 H   0  0  0  0  0  0  0  0  0  0  0  0
    0.4584    1.7448    6.6318 H   0  0  0  0  0  0  0  0  0  0  0  0
    1.7759   -0.2337    6.7444 H   0  0  0  0  0  0  0  0  0  0  0  0
    2.9334    1.6293    6.0538 H   0  0  0  0  0  0  0  0  0  0  0  0
    3.5733    0.3680    5.0757 H   0  0  0  0  0  0  0  0  0  0  0  0
    3.1505    2.5382    3.9026 H   0  0  0  0  0  0  0  0  0  0  0  0
    2.4688    1.2735    3.0616 H   0  0  0  0  0  0  0  0  0  0  0  0
    0.7358    2.6132    2.9255 H   0  0  0  0  0  0  0  0  0  0  0  0
    1.7700    5.2405    6.1078 H   0  0  0  0  0  0  0  0  0  0  0  0
    2.7393    3.8129    5.8328 H   0  0  0  0  0  0  0  0  0  0  0  0
    1.1809    3.6894    6.6640 H   0  0  0  0  0  0  0  0  0  0  0  0
    1.7171    5.9356    3.7308 H   0  0  0  0  0  0  0  0  0  0  0  0
    1.4612    4.7313    2.4806 H   0  0  0  0  0  0  0  0  0  0  0  0
    2.8880    4.6396    3.5013 H   0  0  0  0  0  0  0  0  0  0  0  0
   -0.3532    5.5136    5.1758 H   0  0  0  0  0  0  0  0  0  0  0  0
   -0.5276    4.5586    2.6248 H   0  0  0  0  0  0  0  0  0  0  0  0
   -1.0885    3.5045    6.3416 H   0  0  0  0  0  0  0  0  0  0  0  0
   -2.3840    4.1377    5.3562 H   0  0  0  0  0  0  0  0  0  0  0  0
   -2.3107    1.7387    4.9982 H   0  0  0  0  0  0  0  0  0  0  0  0
   -1.8150    2.5335    3.5500 H   0  0  0  0  0  0  0  0  0  0  0  0
    0.2255    0.3409    2.7107 H   0  0  0  0  0  0  0  0  0  0  0  0
   -1.4078    0.3360    3.1756 H   0  0  0  0  0  0  0  0  0  0  0  0
  1  2  1  0
  1 34  1  0
  1 35  1  0
  1 36  1  0
  2  3  1  0
  2 15  1  0
  2 37  1  1
  3  4  2  0
  3  5  1  0
  5  6  1  0
  5 38  1  0
  5 39  1  0
  6 14  1  0
  6  7  1  0
  6 40  1  6
  7  8  1  0
  8  9  1  0
  8 10  1  0
  8 11  1  0
  9 41  1  0
  9 42  1  0
  9 43  1  0
 10 44  1  0
 10 45  1  0
 10 46  1  0
 11 12  1  0
 12 14  1  0
 12 13  1  0
 12 47  1  1
 13 14  1  0
 14 48  1  1
 15 21  1  0
 15 16  1  6
 15 17  1  0
 16 49  1  0
 16 50  1  0
 16 51  1  0
 17 33  1  0
 17 18  1  0
 17 52  1  6
 18 19  1  0
 18 53  1  0
 18 54  1  0
 19 20  1  0
 19 55  1  0
 19 56  1  0
 20 32  1  0
 20 21  1  0
 20 57  1  1
 21 22  1  0
 21 58  1  1
 22 23  1  0
 22 59  1  0
 22 60  1  0
 23 24  1  0
 23 61  1  0
 23 62  1  0
 24 32  1  0
 24 25  1  0
 24 63  1  6
 25 26  1  0
 25 27  1  0
 25 28  1  0
 26 64  1  0
 26 65  1  0
 26 66  1  0
 27 67  1  0
 27 68  1  0
 27 69  1  0
 28 29  1  0
 28 30  1  0
 28 70  1  1
 29 71  1  0
 30 31  1  0
 30 72  1  0
 30 73  1  0
 32 31  1  1
 31 74  1  0
 31 75  1  0
 32 33  1  0
 33 76  1  0
 33 77  1  0
M  END
>  <i_m_ct_stereo_status>  (480) 
1

>  <s_m_source_file>  (480) 
/var/tmp/pbs.5076255.sched01/tmpk5ywl0l3/150lwq6_0yz.sdf

>  <i_m_source_file_index>  (480) 
44

>  <i_lp_mmshare_version>  (480) 
48012

>  <i_f3d_flags>  (480) 
0

>  <s_epik_input>  (480) 
W0NIM11DKE8xKShbQ0gzXSlPW0NASF0oW0NASF0oTzIpW0NAQEhdMTIpW0NIMl1DKD1PKVtDQEBIXShbQ0gzXSlbQ0BAXShbQ0gzXSkoW0NASF0oW0NIMl0zKVtDSDJdW0NIMl00KVtDQEhdKFtDQEhdNFtDQF0zNTYpW0NIMl1bQ0gyXVtDQEBIXTVDKFtDSDNdKShbQ0gzXSlbQ0BASF0oW09IXSlbQ0gyXVtDSDJdNg==

>  <s_epik_cmdline>  (480) 
J2VwaWtfcHl0aG9uJywgJy1waHQnLCAnMi4wJywgJy1waCcsICc3LjAnLCAnLXRuJywgJzgnLCAnLW1hJywgJzIwMCcsICctaW1hZScsICc8aW5maWxlLm1hZT4nLCAnLW9tYWUnLCAnPG91dGZpbGUubWFlPic=

>  <r_lp_tautomer_probability>  (480) 
1

>  <r_epik_Ionization_Penalty>  (480) 
3.26078e-06

>  <r_epik_Ionization_Penalty_Charging>  (480) 
0

>  <r_epik_Ionization_Penalty_Neutral>  (480) 
3.26078e-06

>  <r_epik_State_Penalty>  (480) 
-0

>  <r_epik_Charging_Adjusted_Penalty>  (480) 
0

>  <i_epik_Tot_Q>  (480) 
0

>  <i_epik_Tot_abs_Q>  (480) 
0

>  <s_epik_Chemistry_Notes>  (480) 
This compound contains an acetal/aminal-like group ( X-CH(R)-Y where X, Y are N, S, or O) that may be acid/base labile, releasing an aldehyde.

>  <s_lp_Force_Field>  (480) 
OPLS3e

>  <r_lp_Energy>  (480) 
79.8166

>  <b_lp_Chiralities_Consistent>  (480) 
1

>  <s_lp_Variant>  (480) 
117:0-1

>  <s_i_glide_gridfile>  (480) 
pfpi4k_grid

>  <i_i_glide_lignum>  (480) 
44

>  <i_i_glide_rotatable_bonds>  (480) 
5

>  <r_i_docking_score>  (480) 
-2.52785

>  <r_i_glide_ligand_efficiency>  (480) 
-0.0766015

>  <r_i_glide_ligand_efficiency_sa>  (480) 
-0.245702

>  <r_i_glide_ligand_efficiency_ln>  (480) 
-0.562181

>  <r_i_glide_gscore>  (480) 
-2.52785

>  <r_i_glide_lipo>  (480) 
0

>  <r_i_glide_hbond>  (480) 
-0.386696

>  <r_i_glide_metal>  (480) 
-0

>  <r_i_glide_rewards>  (480) 
-0.268323

>  <r_i_glide_evdw>  (480) 
-23.3261

>  <r_i_glide_ecoul>  (480) 
-6.80589

>  <r_i_glide_erotb>  (480) 
0.379464

>  <r_i_glide_esite>  (480) 
-0.0651066

>  <r_i_glide_emodel>  (480) 
-33.2503

>  <r_i_glide_energy>  (480) 
-30.132

>  <r_i_glide_einternal>  (480) 
2.44832

>  <r_i_glide_intrahb_reward>  (480) 
-0

>  <i_i_glide_confnum>  (480) 
4

>  <i_i_glide_posenum>  (480) 
26

>  <r_i_glide_eff_state_penalty>  (480) 
0

>  <ligand_id>  (480) 
117

>  <original_smiles>  (480) 
CC(C(=O)CC1OC(C)(C)OC2OC12)C1(C)C2CCC3C1CCC1C(C)(C)C(O)CCC31C2

>  <smiles>  (480) 
[H]OC1([H])C([H])([H])C([H])([H])C23C([H])([H])C4([H])C([H])([H])C([H])([H])C2([H])C([H])(C([H])([H])C([H])([H])C3([H])C1(C([H])([H])[H])C([H])([H])[H])C4(C([H])([H])[H])C([H])(C(=O)C([H])([H])C1([H])OC(C([H])([H])[H])(C([H])([H])[H])OC2([H])OC21[H])C([H])([H])[H]

$$$$
118:0:0
     RDKit          3D

 71 75  0  0  1  0  0  0  0  0999 V2000
    5.8719  -10.6901    2.2715 C   0  0  0  0  0  0  0  0  0  0  0  0
    5.0132   -9.4158    2.4128 C   0  0  2  0  0  0  0  0  0  0  0  0
    3.5373   -9.7759    2.1295 C   0  0  0  0  0  0  0  0  0  0  0  0
    2.6690   -8.8639    2.7847 O   0  0  0  0  0  0  0  0  0  0  0  0
    1.3174   -9.1905    2.7344 C   0  0  2  0  0  0  0  0  0  0  0  0
    0.4933   -8.0181    3.3110 C   0  0  0  0  0  0  0  0  0  0  0  0
    0.7937   -7.8471    4.8100 C   0  0  0  0  0  0  0  0  0  0  0  0
    0.6016   -9.1844    5.5439 C   0  0  0  0  0  0  0  0  0  0  0  0
    1.4046  -10.2789    4.8363 C   0  0  0  0  0  0  0  0  0  0  0  0
    1.0157  -10.3405    3.4666 O   0  0  0  0  0  0  0  0  0  0  0  0
    5.5616   -8.2662    1.5100 C   0  0  2  0  0  0  0  0  0  0  0  0
    7.0750   -7.9836    1.7194 C   0  0  0  0  0  0  0  0  0  0  0  0
    7.2947   -6.4737    1.5566 C   0  0  0  0  0  0  0  0  0  0  0  0
    5.9763   -5.9860    0.9522 C   0  0  2  0  0  0  0  0  0  0  0  0
    5.6378   -4.4957    0.9605 C   0  0  0  0  0  0  0  0  0  0  0  0
    6.4886   -3.5589    1.3997 C   0  0  0  0  0  0  0  0  0  0  0  0
    6.1857   -2.1520    1.3493 C   0  0  0  0  0  0  0  0  0  0  0  0
    4.9989   -1.6947    0.9238 C   0  0  0  0  0  0  0  0  0  0  0  0
    4.6735   -0.2159    1.0316 C   0  0  0  0  0  0  0  0  0  0  0  0
    3.5072   -0.0508    2.0062 C   0  0  0  0  0  0  0  0  0  0  0  0
    3.5124    0.7523    2.9336 O   0  0  0  0  0  0  0  0  0  0  0  0
    2.3030   -0.9317    1.7502 C   0  0  0  0  0  0  0  0  0  0  0  0
    2.7162   -2.4009    1.5056 C   0  0  0  0  0  0  0  0  0  0  0  0
    3.8596   -2.6141    0.4628 C   0  0  1  0  0  0  0  0  0  0  0  0
    3.3938   -2.1499   -0.9379 C   0  0  0  0  0  0  0  0  0  0  0  0
    4.2811   -4.1437    0.3342 C   0  0  2  0  0  0  0  0  0  0  0  0
    3.1714   -5.1842    0.7153 C   0  0  1  0  0  0  0  0  0  0  0  0
    2.0771   -5.1061   -0.1786 O   0  0  0  0  0  0  0  0  0  0  0  0
    3.6508   -6.6507    0.7197 C   0  0  0  0  0  0  0  0  0  0  0  0
    4.8997   -6.8563    1.6042 C   0  0  1  0  0  0  0  0  0  0  0  0
    4.6635   -6.4403    3.0842 C   0  0  0  0  0  0  0  0  0  0  0  0
    5.8351  -11.0724    1.2516 H   0  0  0  0  0  0  0  0  0  0  0  0
    5.5080  -11.4794    2.9335 H   0  0  0  0  0  0  0  0  0  0  0  0
    6.9209  -10.5319    2.5271 H   0  0  0  0  0  0  0  0  0  0  0  0
    5.0991   -9.1254    3.4605 H   0  0  0  0  0  0  0  0  0  0  0  0
    3.3384   -9.8104    1.0591 H   0  0  0  0  0  0  0  0  0  0  0  0
    3.3288  -10.7732    2.5124 H   0  0  0  0  0  0  0  0  0  0  0  0
    1.0386   -9.3691    1.6987 H   0  0  0  0  0  0  0  0  0  0  0  0
    0.7225   -7.1072    2.7556 H   0  0  0  0  0  0  0  0  0  0  0  0
   -0.5586   -8.2481    3.1639 H   0  0  0  0  0  0  0  0  0  0  0  0
    1.8143   -7.4811    4.9592 H   0  0  0  0  0  0  0  0  0  0  0  0
    0.1287   -7.0986    5.2479 H   0  0  0  0  0  0  0  0  0  0  0  0
    0.9081   -9.1031    6.5855 H   0  0  0  0  0  0  0  0  0  0  0  0
   -0.4550   -9.4500    5.5417 H   0  0  0  0  0  0  0  0  0  0  0  0
    2.4754  -10.0832    4.9285 H   0  0  0  0  0  0  0  0  0  0  0  0
    1.2272  -11.2536    5.2866 H   0  0  0  0  0  0  0  0  0  0  0  0
    5.4509   -8.6091    0.4826 H   0  0  0  0  0  0  0  0  0  0  0  0
    7.4138   -8.2810    2.7112 H   0  0  0  0  0  0  0  0  0  0  0  0
    7.6662   -8.5463    0.9961 H   0  0  0  0  0  0  0  0  0  0  0  0
    7.4807   -6.0313    2.5379 H   0  0  0  0  0  0  0  0  0  0  0  0
    8.1565   -6.2589    0.9239 H   0  0  0  0  0  0  0  0  0  0  0  0
    6.0185   -6.2360   -0.1048 H   0  0  0  0  0  0  0  0  0  0  0  0
    7.4448   -3.8624    1.7894 H   0  0  0  0  0  0  0  0  0  0  0  0
    6.9097   -1.4433    1.7235 H   0  0  0  0  0  0  0  0  0  0  0  0
    5.5465    0.3378    1.3699 H   0  0  0  0  0  0  0  0  0  0  0  0
    4.4073    0.1873    0.0577 H   0  0  0  0  0  0  0  0  0  0  0  0
    1.6259   -0.8589    2.6020 H   0  0  0  0  0  0  0  0  0  0  0  0
    1.7993   -0.5078    0.8833 H   0  0  0  0  0  0  0  0  0  0  0  0
    3.0224   -2.8204    2.4680 H   0  0  0  0  0  0  0  0  0  0  0  0
    1.8209   -2.9414    1.2093 H   0  0  0  0  0  0  0  0  0  0  0  0
    2.5694   -2.7611   -1.3017 H   0  0  0  0  0  0  0  0  0  0  0  0
    4.2064   -2.2197   -1.6631 H   0  0  0  0  0  0  0  0  0  0  0  0
    3.0334   -1.1218   -0.9429 H   0  0  0  0  0  0  0  0  0  0  0  0
    4.4925   -4.3164   -0.7216 H   0  0  0  0  0  0  0  0  0  0  0  0
    2.7961   -4.9763    1.7166 H   0  0  0  0  0  0  0  0  0  0  0  0
    2.3953   -5.3376   -1.0486 H   0  0  0  0  0  0  0  0  0  0  0  0
    2.8257   -7.2823    1.0315 H   0  0  0  0  0  0  0  0  0  0  0  0
    3.8928   -6.9495   -0.3004 H   0  0  0  0  0  0  0  0  0  0  0  0
    4.4899   -5.3689    3.1911 H   0  0  0  0  0  0  0  0  0  0  0  0
    5.5201   -6.6915    3.7125 H   0  0  0  0  0  0  0  0  0  0  0  0
    3.7961   -6.9356    3.5165 H   0  0  0  0  0  0  0  0  0  0  0  0
  1  2  1  0
  1 32  1  0
  1 33  1  0
  1 34  1  0
  2  3  1  0
  2 11  1  0
  2 35  1  1
  3  4  1  0
  3 36  1  0
  3 37  1  0
  4  5  1  0
  5 10  1  0
  5  6  1  0
  5 38  1  6
  6  7  1  0
  6 39  1  0
  6 40  1  0
  7  8  1  0
  7 41  1  0
  7 42  1  0
  8  9  1  0
  8 43  1  0
  8 44  1  0
  9 10  1  0
  9 45  1  0
  9 46  1  0
 11 30  1  0
 11 12  1  0
 11 47  1  6
 12 13  1  0
 12 48  1  0
 12 49  1  0
 13 14  1  0
 13 50  1  0
 13 51  1  0
 14 30  1  0
 14 15  1  0
 14 52  1  6
 15 26  1  0
 15 16  2  0
 16 17  1  0
 16 53  1  0
 17 18  2  0
 17 54  1  0
 18 24  1  0
 18 19  1  0
 19 20  1  0
 19 55  1  0
 19 56  1  0
 20 21  2  0
 20 22  1  0
 22 23  1  0
 22 57  1  0
 22 58  1  0
 23 24  1  0
 23 59  1  0
 23 60  1  0
 24 25  1  6
 24 26  1  0
 25 61  1  0
 25 62  1  0
 25 63  1  0
 26 27  1  0
 26 64  1  6
 27 28  1  0
 27 29  1  0
 27 65  1  1
 28 66  1  0
 29 30  1  0
 29 67  1  0
 29 68  1  0
 30 31  1  1
 31 69  1  0
 31 70  1  0
 31 71  1  0
M  END
>  <i_m_ct_stereo_status>  (481) 
1

>  <s_m_source_file>  (481) 
/var/tmp/pbs.5076255.sched01/tmpk5ywl0l3/150lwq6_0yz.sdf

>  <i_m_source_file_index>  (481) 
45

>  <i_lp_mmshare_version>  (481) 
48012

>  <i_f3d_flags>  (481) 
0

>  <s_epik_input>  (481) 
TzFbQ0gyXVtDSDJdW0NIMl1bQ0gyXVtDQEhdMU9bQ0gyXVtDQEBIXShbQ0gzXSlbQ0BIXShbQ0gyXVtDSDJdMilbQ0BdKFtDSDNdKShbQ0gyXVtDQEBIXShbQ0BIXTM0KVtPSF0pW0NASF0yQzM9W0NIXVtDSF09QyhbQ0BAXTQ1W0NIM10pW0NIMl1DKD1PKVtDSDJdW0NIMl01

>  <s_epik_cmdline>  (481) 
J2VwaWtfcHl0aG9uJywgJy1waHQnLCAnMi4wJywgJy1waCcsICc3LjAnLCAnLXRuJywgJzgnLCAnLW1hJywgJzIwMCcsICctaW1hZScsICc8aW5maWxlLm1hZT4nLCAnLW9tYWUnLCAnPG91dGZpbGUubWFlPic=

>  <r_lp_tautomer_probability>  (481) 
1

>  <r_epik_Ionization_Penalty>  (481) 
4.20969e-07

>  <r_epik_Ionization_Penalty_Charging>  (481) 
0

>  <r_epik_Ionization_Penalty_Neutral>  (481) 
4.20969e-07

>  <r_epik_State_Penalty>  (481) 
-0

>  <r_epik_Charging_Adjusted_Penalty>  (481) 
0

>  <i_epik_Tot_Q>  (481) 
0

>  <i_epik_Tot_abs_Q>  (481) 
0

>  <s_epik_Chemistry_Notes>  (481) 
This compound contains an acetal/aminal-like group ( X-CH(R)-Y where X, Y are N, S, or O) that may be acid/base labile, releasing an aldehyde.

>  <s_lp_Force_Field>  (481) 
OPLS3e

>  <r_lp_Energy>  (481) 
53.8939

>  <b_lp_Chiralities_Consistent>  (481) 
1

>  <s_lp_Variant>  (481) 
118:0-1

>  <s_i_glide_gridfile>  (481) 
pfpi4k_grid

>  <i_i_glide_lignum>  (481) 
45

>  <i_i_glide_rotatable_bonds>  (481) 
5

>  <r_i_docking_score>  (481) 
-3.55526

>  <r_i_glide_ligand_efficiency>  (481) 
-0.114686

>  <r_i_glide_ligand_efficiency_sa>  (481) 
-0.360272

>  <r_i_glide_ligand_efficiency_ln>  (481) 
-0.801821

>  <r_i_glide_gscore>  (481) 
-3.55526

>  <r_i_glide_lipo>  (481) 
-0.946342

>  <r_i_glide_hbond>  (481) 
-0.333286

>  <r_i_glide_metal>  (481) 
-0

>  <r_i_glide_rewards>  (481) 
-0.539659

>  <r_i_glide_evdw>  (481) 
-25.0956

>  <r_i_glide_ecoul>  (481) 
-5.37075

>  <r_i_glide_erotb>  (481) 
0.324415

>  <r_i_glide_esite>  (481) 
0

>  <r_i_glide_emodel>  (481) 
-36.7861

>  <r_i_glide_energy>  (481) 
-30.4663

>  <r_i_glide_einternal>  (481) 
1.02208

>  <r_i_glide_intrahb_reward>  (481) 
-0

>  <i_i_glide_confnum>  (481) 
2

>  <i_i_glide_posenum>  (481) 
37

>  <r_i_glide_eff_state_penalty>  (481) 
0

>  <ligand_id>  (481) 
118

>  <original_smiles>  (481) 
CC(COC1CCCCO1)C1CCC2C3=CC=C4CC(=O)CCC4(C)C3C(O)CC21C

>  <smiles>  (481) 
[H]OC1([H])C([H])([H])C2(C([H])([H])[H])C([H])(C3=C([H])C([H])=C4C([H])([H])C(=O)C([H])([H])C([H])([H])C4(C([H])([H])[H])C31[H])C([H])([H])C([H])([H])C2([H])C([H])(C([H])([H])[H])C([H])([H])OC1([H])OC([H])([H])C([H])([H])C([H])([H])C1([H])[H]

$$$$
118:0:1
     RDKit          3D

 71 75  0  0  1  0  0  0  0  0999 V2000
    5.9136  -10.7035    2.0768 C   0  0  0  0  0  0  0  0  0  0  0  0
    5.0339   -9.4396    2.1979 C   0  0  2  0  0  0  0  0  0  0  0  0
    3.5721   -9.8429    1.8519 C   0  0  0  0  0  0  0  0  0  0  0  0
    2.5816   -9.0145    2.4498 O   0  0  0  0  0  0  0  0  0  0  0  0
    2.4142   -9.0242    3.8339 C   0  0  2  0  0  0  0  0  0  0  0  0
    1.7212  -10.3216    4.2819 C   0  0  0  0  0  0  0  0  0  0  0  0
    0.3107  -10.3258    3.6909 C   0  0  0  0  0  0  0  0  0  0  0  0
   -0.4454   -9.0575    4.1083 C   0  0  0  0  0  0  0  0  0  0  0  0
    0.3631   -7.8195    3.6900 C   0  0  0  0  0  0  0  0  0  0  0  0
    1.6630   -7.9337    4.2683 O   0  0  0  0  0  0  0  0  0  0  0  0
    5.5556   -8.2722    1.3142 C   0  0  2  0  0  0  0  0  0  0  0  0
    7.0660   -8.0004    1.5497 C   0  0  0  0  0  0  0  0  0  0  0  0
    7.2949   -6.4817    1.4375 C   0  0  0  0  0  0  0  0  0  0  0  0
    5.9829   -5.9712    0.8289 C   0  0  2  0  0  0  0  0  0  0  0  0
    5.6469   -4.4810    0.8753 C   0  0  0  0  0  0  0  0  0  0  0  0
    6.4939   -3.5633    1.3615 C   0  0  0  0  0  0  0  0  0  0  0  0
    6.1918   -2.1500    1.3417 C   0  0  0  0  0  0  0  0  0  0  0  0
    5.0125   -1.6836    0.9071 C   0  0  0  0  0  0  0  0  0  0  0  0
    4.6983   -0.1951    1.0499 C   0  0  0  0  0  0  0  0  0  0  0  0
    3.5273   -0.0576    2.0172 C   0  0  0  0  0  0  0  0  0  0  0  0
    3.5419    0.7411    2.9652 O   0  0  0  0  0  0  0  0  0  0  0  0
    2.3187   -0.9171    1.7492 C   0  0  0  0  0  0  0  0  0  0  0  0
    2.7207   -2.3851    1.4513 C   0  0  0  0  0  0  0  0  0  0  0  0
    3.8723   -2.5786    0.4140 C   0  0  1  0  0  0  0  0  0  0  0  0
    3.4136   -2.0796   -0.9807 C   0  0  0  0  0  0  0  0  0  0  0  0
    4.2964   -4.1091    0.2451 C   0  0  2  0  0  0  0  0  0  0  0  0
    3.1829   -5.1540    0.5893 C   0  0  1  0  0  0  0  0  0  0  0  0
    2.0898   -5.0563   -0.3189 O   0  0  0  0  0  0  0  0  0  0  0  0
    3.6552   -6.6226    0.5772 C   0  0  0  0  0  0  0  0  0  0  0  0
    4.9080   -6.8576    1.4485 C   0  0  1  0  0  0  0  0  0  0  0  0
    4.6506   -6.4629    2.9320 C   0  0  0  0  0  0  0  0  0  0  0  0
    5.9500  -11.0887    1.0567 H   0  0  0  0  0  0  0  0  0  0  0  0
    5.5153  -11.4920    2.7194 H   0  0  0  0  0  0  0  0  0  0  0  0
    6.9382  -10.5382    2.4115 H   0  0  0  0  0  0  0  0  0  0  0  0
    5.1574   -9.1521    3.2400 H   0  0  0  0  0  0  0  0  0  0  0  0
    3.4276   -9.8061    0.7686 H   0  0  0  0  0  0  0  0  0  0  0  0
    3.3755  -10.8847    2.1041 H   0  0  0  0  0  0  0  0  0  0  0  0
    3.3523   -8.9224    4.3683 H   0  0  0  0  0  0  0  0  0  0  0  0
    2.2757  -11.2006    3.9622 H   0  0  0  0  0  0  0  0  0  0  0  0
    1.6937  -10.3286    5.3712 H   0  0  0  0  0  0  0  0  0  0  0  0
    0.3307  -10.4086    2.6025 H   0  0  0  0  0  0  0  0  0  0  0  0
   -0.1887  -11.2243    4.0733 H   0  0  0  0  0  0  0  0  0  0  0  0
   -1.4419   -9.0269    3.6661 H   0  0  0  0  0  0  0  0  0  0  0  0
   -0.5678   -9.0516    5.1940 H   0  0  0  0  0  0  0  0  0  0  0  0
    0.4278   -7.7214    2.6031 H   0  0  0  0  0  0  0  0  0  0  0  0
   -0.0943   -6.9045    4.0683 H   0  0  0  0  0  0  0  0  0  0  0  0
    5.4139   -8.5929    0.2769 H   0  0  0  0  0  0  0  0  0  0  0  0
    7.3848   -8.3113    2.5485 H   0  0  0  0  0  0  0  0  0  0  0  0
    7.6755   -8.5561    0.8354 H   0  0  0  0  0  0  0  0  0  0  0  0
    7.4648   -6.0735    2.4379 H   0  0  0  0  0  0  0  0  0  0  0  0
    8.1686   -6.2585    0.8249 H   0  0  0  0  0  0  0  0  0  0  0  0
    6.0351   -6.1941   -0.2347 H   0  0  0  0  0  0  0  0  0  0  0  0
    7.4419   -3.8791    1.7598 H   0  0  0  0  0  0  0  0  0  0  0  0
    6.9177   -1.4624    1.7466 H   0  0  0  0  0  0  0  0  0  0  0  0
    5.5692    0.3392    1.4082 H   0  0  0  0  0  0  0  0  0  0  0  0
    4.4369    0.2279    0.0821 H   0  0  0  0  0  0  0  0  0  0  0  0
    1.6447   -0.8740    2.6076 H   0  0  0  0  0  0  0  0  0  0  0  0
    1.8031   -0.4637    0.9078 H   0  0  0  0  0  0  0  0  0  0  0  0
    3.0208   -2.8379    2.3966 H   0  0  0  0  0  0  0  0  0  0  0  0
    1.8211   -2.9028    1.1322 H   0  0  0  0  0  0  0  0  0  0  0  0
    2.6130   -2.7015   -1.3784 H   0  0  0  0  0  0  0  0  0  0  0  0
    4.2343   -2.0994   -1.6999 H   0  0  0  0  0  0  0  0  0  0  0  0
    3.0239   -1.0607   -0.9597 H   0  0  0  0  0  0  0  0  0  0  0  0
    4.5214   -4.2573   -0.8102 H   0  0  0  0  0  0  0  0  0  0  0  0
    2.7899   -4.9689    1.5864 H   0  0  0  0  0  0  0  0  0  0  0  0
    2.3990   -5.2851   -1.1809 H   0  0  0  0  0  0  0  0  0  0  0  0
    2.8277   -7.2482    0.8879 H   0  0  0  0  0  0  0  0  0  0  0  0
    3.8977   -6.9137   -0.4437 H   0  0  0  0  0  0  0  0  0  0  0  0
    4.4959   -5.3905    3.0616 H   0  0  0  0  0  0  0  0  0  0  0  0
    5.4824   -6.7508    3.5791 H   0  0  0  0  0  0  0  0  0  0  0  0
    3.7532   -6.9388    3.2989 H   0  0  0  0  0  0  0  0  0  0  0  0
  1  2  1  0
  1 32  1  0
  1 33  1  0
  1 34  1  0
  2  3  1  0
  2 11  1  0
  2 35  1  1
  3  4  1  0
  3 36  1  0
  3 37  1  0
  4  5  1  0
  5 10  1  0
  5  6  1  0
  5 38  1  1
  6  7  1  0
  6 39  1  0
  6 40  1  0
  7  8  1  0
  7 41  1  0
  7 42  1  0
  8  9  1  0
  8 43  1  0
  8 44  1  0
  9 10  1  0
  9 45  1  0
  9 46  1  0
 11 30  1  0
 11 12  1  0
 11 47  1  6
 12 13  1  0
 12 48  1  0
 12 49  1  0
 13 14  1  0
 13 50  1  0
 13 51  1  0
 14 30  1  0
 14 15  1  0
 14 52  1  6
 15 26  1  0
 15 16  2  0
 16 17  1  0
 16 53  1  0
 17 18  2  0
 17 54  1  0
 18 24  1  0
 18 19  1  0
 19 20  1  0
 19 55  1  0
 19 56  1  0
 20 21  2  0
 20 22  1  0
 22 23  1  0
 22 57  1  0
 22 58  1  0
 23 24  1  0
 23 59  1  0
 23 60  1  0
 24 25  1  6
 24 26  1  0
 25 61  1  0
 25 62  1  0
 25 63  1  0
 26 27  1  0
 26 64  1  6
 27 28  1  0
 27 29  1  0
 27 65  1  1
 28 66  1  0
 29 30  1  0
 29 67  1  0
 29 68  1  0
 30 31  1  1
 31 69  1  0
 31 70  1  0
 31 71  1  0
M  END
>  <i_m_ct_stereo_status>  (482) 
1

>  <s_m_source_file>  (482) 
/var/tmp/pbs.5076255.sched01/tmpk5ywl0l3/150lwq6_0yz.sdf

>  <i_m_source_file_index>  (482) 
45

>  <i_lp_mmshare_version>  (482) 
48012

>  <i_f3d_flags>  (482) 
0

>  <s_epik_input>  (482) 
TzFbQ0gyXVtDSDJdW0NIMl1bQ0gyXVtDQEhdMU9bQ0gyXVtDQEBIXShbQ0gzXSlbQ0BIXShbQ0gyXVtDSDJdMilbQ0BdKFtDSDNdKShbQ0gyXVtDQEBIXShbQ0BIXTM0KVtPSF0pW0NASF0yQzM9W0NIXVtDSF09QyhbQ0BAXTQ1W0NIM10pW0NIMl1DKD1PKVtDSDJdW0NIMl01

>  <s_epik_cmdline>  (482) 
J2VwaWtfcHl0aG9uJywgJy1waHQnLCAnMi4wJywgJy1waCcsICc3LjAnLCAnLXRuJywgJzgnLCAnLW1hJywgJzIwMCcsICctaW1hZScsICc8aW5maWxlLm1hZT4nLCAnLW9tYWUnLCAnPG91dGZpbGUubWFlPic=

>  <r_lp_tautomer_probability>  (482) 
1

>  <r_epik_Ionization_Penalty>  (482) 
4.20969e-07

>  <r_epik_Ionization_Penalty_Charging>  (482) 
0

>  <r_epik_Ionization_Penalty_Neutral>  (482) 
4.20969e-07

>  <r_epik_State_Penalty>  (482) 
-0

>  <r_epik_Charging_Adjusted_Penalty>  (482) 
0

>  <i_epik_Tot_Q>  (482) 
0

>  <i_epik_Tot_abs_Q>  (482) 
0

>  <s_epik_Chemistry_Notes>  (482) 
This compound contains an acetal/aminal-like group ( X-CH(R)-Y where X, Y are N, S, or O) that may be acid/base labile, releasing an aldehyde.

>  <s_lp_Force_Field>  (482) 
OPLS3e

>  <r_lp_Energy>  (482) 
53.8939

>  <b_lp_Chiralities_Consistent>  (482) 
1

>  <s_lp_Variant>  (482) 
118:0-1

>  <s_i_glide_gridfile>  (482) 
pfpi4k_grid

>  <i_i_glide_lignum>  (482) 
45

>  <i_i_glide_rotatable_bonds>  (482) 
5

>  <r_i_docking_score>  (482) 
-3.5499

>  <r_i_glide_ligand_efficiency>  (482) 
-0.114513

>  <r_i_glide_ligand_efficiency_sa>  (482) 
-0.359728

>  <r_i_glide_ligand_efficiency_ln>  (482) 
-0.80061

>  <r_i_glide_gscore>  (482) 
-3.5499

>  <r_i_glide_lipo>  (482) 
-0.977041

>  <r_i_glide_hbond>  (482) 
-0.323524

>  <r_i_glide_metal>  (482) 
-0

>  <r_i_glide_rewards>  (482) 
-0.509212

>  <r_i_glide_evdw>  (482) 
-24.7236

>  <r_i_glide_ecoul>  (482) 
-5.47192

>  <r_i_glide_erotb>  (482) 
0.324415

>  <r_i_glide_esite>  (482) 
-0.0075678

>  <r_i_glide_emodel>  (482) 
-34.1842

>  <r_i_glide_energy>  (482) 
-30.1955

>  <r_i_glide_einternal>  (482) 
5.1961

>  <r_i_glide_intrahb_reward>  (482) 
-0

>  <i_i_glide_confnum>  (482) 
2

>  <i_i_glide_posenum>  (482) 
13

>  <r_i_glide_eff_state_penalty>  (482) 
0

>  <ligand_id>  (482) 
118

>  <original_smiles>  (482) 
CC(COC1CCCCO1)C1CCC2C3=CC=C4CC(=O)CCC4(C)C3C(O)CC21C

>  <smiles>  (482) 
[H]OC1([H])C([H])([H])C2(C([H])([H])[H])C([H])(C3=C([H])C([H])=C4C([H])([H])C(=O)C([H])([H])C([H])([H])C4(C([H])([H])[H])C31[H])C([H])([H])C([H])([H])C2([H])C([H])(C([H])([H])[H])C([H])([H])OC1([H])OC([H])([H])C([H])([H])C([H])([H])C1([H])[H]

$$$$
118:0:2
     RDKit          3D

 71 75  0  0  1  0  0  0  0  0999 V2000
    5.3397  -10.4677    2.4316 C   0  0  0  0  0  0  0  0  0  0  0  0
    4.4074   -9.2392    2.2685 C   0  0  2  0  0  0  0  0  0  0  0  0
    3.0590   -9.7703    1.6662 C   0  0  0  0  0  0  0  0  0  0  0  0
    1.9748   -8.8722    1.6593 O   0  0  0  0  0  0  0  0  0  0  0  0
    1.5333   -8.3726    2.8915 C   0  0  2  0  0  0  0  0  0  0  0  0
    0.6410   -9.3906    3.5918 C   0  0  0  0  0  0  0  0  0  0  0  0
   -0.6027   -9.5890    2.7281 C   0  0  0  0  0  0  0  0  0  0  0  0
   -1.2968   -8.2456    2.4775 C   0  0  0  0  0  0  0  0  0  0  0  0
   -0.3014   -7.2576    1.8511 C   0  0  0  0  0  0  0  0  0  0  0  0
    0.8284   -7.1874    2.7295 O   0  0  0  0  0  0  0  0  0  0  0  0
    5.0495   -8.0670    1.4343 C   0  0  2  0  0  0  0  0  0  0  0  0
    6.5654   -7.8708    1.7479 C   0  0  0  0  0  0  0  0  0  0  0  0
    6.8730   -6.3744    1.6522 C   0  0  0  0  0  0  0  0  0  0  0  0
    5.6250   -5.7991    0.9715 C   0  0  2  0  0  0  0  0  0  0  0  0
    5.3703   -4.2814    1.0245 C   0  0  0  0  0  0  0  0  0  0  0  0
    6.2058   -3.4259    1.6035 C   0  0  0  0  0  0  0  0  0  0  0  0
    5.9720   -1.9958    1.5988 C   0  0  0  0  0  0  0  0  0  0  0  0
    4.8616   -1.4685    1.0734 C   0  0  0  0  0  0  0  0  0  0  0  0
    4.6158    0.0353    1.2083 C   0  0  0  0  0  0  0  0  0  0  0  0
    3.3892    0.2193    2.1096 C   0  0  0  0  0  0  0  0  0  0  0  0
    3.4072    0.9800    3.0723 O   0  0  0  0  0  0  0  0  0  0  0  0
    2.1584   -0.5744    1.7513 C   0  0  0  0  0  0  0  0  0  0  0  0
    2.5072   -2.0553    1.4735 C   0  0  0  0  0  0  0  0  0  0  0  0
    3.7153   -2.2900    0.5006 C   0  0  1  0  0  0  0  0  0  0  0  0
    3.3745   -1.7670   -0.9156 C   0  0  0  0  0  0  0  0  0  0  0  0
    4.0716   -3.8337    0.3295 C   0  0  2  0  0  0  0  0  0  0  0  0
    2.8954   -4.8211    0.5919 C   0  0  1  0  0  0  0  0  0  0  0  0
    1.8686   -4.6909   -0.3834 O   0  0  0  0  0  0  0  0  0  0  0  0
    3.2903   -6.3069    0.5803 C   0  0  0  0  0  0  0  0  0  0  0  0
    4.4720   -6.6083    1.5412 C   0  0  1  0  0  0  0  0  0  0  0  0
    4.1601   -6.1653    3.0257 C   0  0  0  0  0  0  0  0  0  0  0  0
    5.6137  -10.9051    1.4650 H   0  0  0  0  0  0  0  0  0  0  0  0
    4.8398  -11.2449    3.0262 H   0  0  0  0  0  0  0  0  0  0  0  0
    6.2670  -10.2468    2.9698 H   0  0  0  0  0  0  0  0  0  0  0  0
    4.2883   -8.8964    3.2944 H   0  0  0  0  0  0  0  0  0  0  0  0
    3.2160  -10.0592    0.6281 H   0  0  0  0  0  0  0  0  0  0  0  0
    2.7694  -10.7026    2.1783 H   0  0  0  0  0  0  0  0  0  0  0  0
    2.3464   -8.2003    3.5933 H   0  0  0  0  0  0  0  0  0  0  0  0
    1.1908  -10.3142    3.7298 H   0  0  0  0  0  0  0  0  0  0  0  0
    0.4047   -8.9660    4.5707 H   0  0  0  0  0  0  0  0  0  0  0  0
   -0.3293  -10.0717    1.7880 H   0  0  0  0  0  0  0  0  0  0  0  0
   -1.2721  -10.2578    3.2731 H   0  0  0  0  0  0  0  0  0  0  0  0
   -2.1590   -8.3867    1.8208 H   0  0  0  0  0  0  0  0  0  0  0  0
   -1.6514   -7.8379    3.4281 H   0  0  0  0  0  0  0  0  0  0  0  0
   -0.0023   -7.5446    0.8434 H   0  0  0  0  0  0  0  0  0  0  0  0
   -0.7466   -6.2692    1.7474 H   0  0  0  0  0  0  0  0  0  0  0  0
    5.0093   -8.3814    0.3826 H   0  0  0  0  0  0  0  0  0  0  0  0
    6.8239   -8.1678    2.7648 H   0  0  0  0  0  0  0  0  0  0  0  0
    7.1781   -8.4669    1.0629 H   0  0  0  0  0  0  0  0  0  0  0  0
    6.9940   -5.9866    2.6672 H   0  0  0  0  0  0  0  0  0  0  0  0
    7.7955   -6.1916    1.0995 H   0  0  0  0  0  0  0  0  0  0  0  0
    5.7422   -6.0266   -0.0919 H   0  0  0  0  0  0  0  0  0  0  0  0
    7.0992   -3.7985    2.0683 H   0  0  0  0  0  0  0  0  0  0  0  0
    6.7001   -1.3538    2.0429 H   0  0  0  0  0  0  0  0  0  0  0  0
    5.4774    0.5194    1.6237 H   0  0  0  0  0  0  0  0  0  0  0  0
    4.4194    0.4819    0.2375 H   0  0  0  0  0  0  0  0  0  0  0  0
    1.4333   -0.4911    2.5616 H   0  0  0  0  0  0  0  0  0  0  0  0
    1.7084   -0.1011    0.8794 H   0  0  0  0  0  0  0  0  0  0  0  0
    2.7313   -2.5213    2.4386 H   0  0  0  0  0  0  0  0  0  0  0  0
    1.5988   -2.5213    1.1006 H   0  0  0  0  0  0  0  0  0  0  0  0
    2.5652   -2.3402   -1.3659 H   0  0  0  0  0  0  0  0  0  0  0  0
    4.2291   -1.8298   -1.5892 H   0  0  0  0  0  0  0  0  0  0  0  0
    3.0473   -0.7310   -0.8992 H   0  0  0  0  0  0  0  0  0  0  0  0
    4.3430   -3.9886   -0.7136 H   0  0  0  0  0  0  0  0  0  0  0  0
    2.4510   -4.6385    1.5676 H   0  0  0  0  0  0  0  0  0  0  0  0
    2.2267   -4.9132   -1.2239 H   0  0  0  0  0  0  0  0  0  0  0  0
    2.3849   -6.8423    0.7983 H   0  0  0  0  0  0  0  0  0  0  0  0
    3.6189   -6.5923   -0.4288 H   0  0  0  0  0  0  0  0  0  0  0  0
    4.1805   -5.0773    3.1179 H   0  0  0  0  0  0  0  0  0  0  0  0
    4.9427   -6.5458    3.7040 H   0  0  0  0  0  0  0  0  0  0  0  0
    3.2018   -6.4875    3.3669 H   0  0  0  0  0  0  0  0  0  0  0  0
  1  2  1  0
  1 32  1  0
  1 33  1  0
  1 34  1  0
  2  3  1  0
  2 11  1  0
  2 35  1  1
  3  4  1  0
  3 36  1  0
  3 37  1  0
  4  5  1  0
  5 10  1  0
  5  6  1  0
  5 38  1  1
  6  7  1  0
  6 39  1  0
  6 40  1  0
  7  8  1  0
  7 41  1  0
  7 42  1  0
  8  9  1  0
  8 43  1  0
  8 44  1  0
  9 10  1  0
  9 45  1  0
  9 46  1  0
 11 30  1  0
 11 12  1  0
 11 47  1  6
 12 13  1  0
 12 48  1  0
 12 49  1  0
 13 14  1  0
 13 50  1  0
 13 51  1  0
 14 30  1  0
 14 15  1  0
 14 52  1  6
 15 26  1  0
 15 16  2  0
 16 17  1  0
 16 53  1  0
 17 18  2  0
 17 54  1  0
 18 24  1  0
 18 19  1  0
 19 20  1  0
 19 55  1  0
 19 56  1  0
 20 21  2  0
 20 22  1  0
 22 23  1  0
 22 57  1  0
 22 58  1  0
 23 24  1  0
 23 59  1  0
 23 60  1  0
 24 25  1  6
 24 26  1  0
 25 61  1  0
 25 62  1  0
 25 63  1  0
 26 27  1  0
 26 64  1  6
 27 28  1  0
 27 29  1  0
 27 65  1  1
 28 66  1  0
 29 30  1  0
 29 67  1  0
 29 68  1  0
 30 31  1  1
 31 69  1  0
 31 70  1  0
 31 71  1  0
M  END
>  <i_m_ct_stereo_status>  (483) 
1

>  <s_m_source_file>  (483) 
/var/tmp/pbs.5076255.sched01/tmpk5ywl0l3/150lwq6_0yz.sdf

>  <i_m_source_file_index>  (483) 
45

>  <i_lp_mmshare_version>  (483) 
48012

>  <i_f3d_flags>  (483) 
0

>  <s_epik_input>  (483) 
TzFbQ0gyXVtDSDJdW0NIMl1bQ0gyXVtDQEhdMU9bQ0gyXVtDQEBIXShbQ0gzXSlbQ0BIXShbQ0gyXVtDSDJdMilbQ0BdKFtDSDNdKShbQ0gyXVtDQEBIXShbQ0BIXTM0KVtPSF0pW0NASF0yQzM9W0NIXVtDSF09QyhbQ0BAXTQ1W0NIM10pW0NIMl1DKD1PKVtDSDJdW0NIMl01

>  <s_epik_cmdline>  (483) 
J2VwaWtfcHl0aG9uJywgJy1waHQnLCAnMi4wJywgJy1waCcsICc3LjAnLCAnLXRuJywgJzgnLCAnLW1hJywgJzIwMCcsICctaW1hZScsICc8aW5maWxlLm1hZT4nLCAnLW9tYWUnLCAnPG91dGZpbGUubWFlPic=

>  <r_lp_tautomer_probability>  (483) 
1

>  <r_epik_Ionization_Penalty>  (483) 
4.20969e-07

>  <r_epik_Ionization_Penalty_Charging>  (483) 
0

>  <r_epik_Ionization_Penalty_Neutral>  (483) 
4.20969e-07

>  <r_epik_State_Penalty>  (483) 
-0

>  <r_epik_Charging_Adjusted_Penalty>  (483) 
0

>  <i_epik_Tot_Q>  (483) 
0

>  <i_epik_Tot_abs_Q>  (483) 
0

>  <s_epik_Chemistry_Notes>  (483) 
This compound contains an acetal/aminal-like group ( X-CH(R)-Y where X, Y are N, S, or O) that may be acid/base labile, releasing an aldehyde.

>  <s_lp_Force_Field>  (483) 
OPLS3e

>  <r_lp_Energy>  (483) 
53.8939

>  <b_lp_Chiralities_Consistent>  (483) 
1

>  <s_lp_Variant>  (483) 
118:0-1

>  <s_i_glide_gridfile>  (483) 
pfpi4k_grid

>  <i_i_glide_lignum>  (483) 
45

>  <i_i_glide_rotatable_bonds>  (483) 
5

>  <r_i_docking_score>  (483) 
-3.06547

>  <r_i_glide_ligand_efficiency>  (483) 
-0.0988862

>  <r_i_glide_ligand_efficiency_sa>  (483) 
-0.310639

>  <r_i_glide_ligand_efficiency_ln>  (483) 
-0.691358

>  <r_i_glide_gscore>  (483) 
-3.06547

>  <r_i_glide_lipo>  (483) 
-0.789953

>  <r_i_glide_hbond>  (483) 
-0.339096

>  <r_i_glide_metal>  (483) 
-0

>  <r_i_glide_rewards>  (483) 
-0.540714

>  <r_i_glide_evdw>  (483) 
-23.672

>  <r_i_glide_ecoul>  (483) 
-3.47331

>  <r_i_glide_erotb>  (483) 
0.324415

>  <r_i_glide_esite>  (483) 
-0.0155264

>  <r_i_glide_emodel>  (483) 
-28.4589

>  <r_i_glide_energy>  (483) 
-27.1453

>  <r_i_glide_einternal>  (483) 
6.69174

>  <r_i_glide_intrahb_reward>  (483) 
-0

>  <i_i_glide_confnum>  (483) 
2

>  <i_i_glide_posenum>  (483) 
28

>  <r_i_glide_eff_state_penalty>  (483) 
0

>  <ligand_id>  (483) 
118

>  <original_smiles>  (483) 
CC(COC1CCCCO1)C1CCC2C3=CC=C4CC(=O)CCC4(C)C3C(O)CC21C

>  <smiles>  (483) 
[H]OC1([H])C([H])([H])C2(C([H])([H])[H])C([H])(C3=C([H])C([H])=C4C([H])([H])C(=O)C([H])([H])C([H])([H])C4(C([H])([H])[H])C31[H])C([H])([H])C([H])([H])C2([H])C([H])(C([H])([H])[H])C([H])([H])OC1([H])OC([H])([H])C([H])([H])C([H])([H])C1([H])[H]

$$$$
