0:0:0
     RDKit          3D

 43 49  0  0  1  0  0  0  0  0999 V2000
   -7.2844  -12.4297   -9.3880 C   0  0  0  0  0  0  0  0  0  0  0  0
   -8.7746  -12.0316   -9.5373 C   0  0  0  0  0  0  0  0  0  0  0  0
   -9.3039  -12.8820  -10.7125 C   0  0  0  0  0  0  0  0  0  0  0  0
   -9.6297  -12.2655   -8.2429 C   0  0  2  0  0  0  0  0  0  0  0  0
  -11.1690  -12.0432   -8.3192 C   0  0  0  0  0  0  0  0  0  0  0  0
  -10.9750  -10.5738   -7.9032 C   0  0  2  0  0  0  0  0  0  0  0  0
  -10.7495   -9.4526   -9.0136 C   0  0  1  0  0  0  0  0  0  0  0  0
   -9.6805   -8.5352   -8.4625 C   0  0  1  0  0  0  0  0  0  0  0  0
   -8.3171   -8.2487   -8.8159 O   0  0  0  0  0  0  0  0  0  0  0  0
   -8.5609   -9.6125   -8.5660 C   0  0  1  0  0  0  0  0  0  0  0  0
   -8.5782  -10.1160   -7.1872 N   0  0  0  0  0  0  0  0  0  0  0  0
   -7.3171  -10.5038   -6.5473 C   0  0  0  0  0  0  0  0  0  0  0  0
   -6.4823   -9.2904   -6.1311 C   0  0  0  0  0  0  0  0  0  0  0  0
   -7.0080   -7.9775   -6.2261 C   0  0  0  0  0  0  0  0  0  0  0  0
   -6.2452   -6.8678   -5.8668 C   0  0  0  0  0  0  0  0  0  0  0  0
   -4.9606   -7.0423   -5.3400 C   0  0  0  0  0  0  0  0  0  0  0  0
   -4.4345   -8.3480   -5.1879 C   0  0  0  0  0  0  0  0  0  0  0  0
   -5.1859   -9.4616   -5.5970 C   0  0  0  0  0  0  0  0  0  0  0  0
   -9.6660  -11.1029   -7.2049 C   0  0  2  0  0  0  0  0  0  0  0  0
   -8.9005  -10.5239   -9.7444 C   0  0  1  0  0  0  0  0  0  0  0  0
   -8.9555   -9.8534  -10.9883 O   0  0  0  0  0  0  0  0  0  0  0  0
  -10.2286  -10.0752  -10.2962 C   0  0  2  0  0  0  0  0  0  0  0  0
   -7.1672  -13.2990   -8.7395 H   0  0  0  0  0  0  0  0  0  0  0  0
   -6.6579  -11.6259   -9.0210 H   0  0  0  0  0  0  0  0  0  0  0  0
   -6.8580  -12.7103  -10.3562 H   0  0  0  0  0  0  0  0  0  0  0  0
  -10.3709  -12.7823  -10.9063 H   0  0  0  0  0  0  0  0  0  0  0  0
   -9.1191  -13.9418  -10.5213 H   0  0  0  0  0  0  0  0  0  0  0  0
   -8.7842  -12.6142  -11.6351 H   0  0  0  0  0  0  0  0  0  0  0  0
   -9.4176  -13.2262   -7.7599 H   0  0  0  0  0  0  0  0  0  0  0  0
  -11.6643  -12.1801   -9.2777 H   0  0  0  0  0  0  0  0  0  0  0  0
  -11.7018  -12.6081   -7.5527 H   0  0  0  0  0  0  0  0  0  0  0  0
  -11.6984  -10.2705   -7.1366 H   0  0  0  0  0  0  0  0  0  0  0  0
  -11.6597   -8.8785   -9.1864 H   0  0  0  0  0  0  0  0  0  0  0  0
   -9.9460   -8.0524   -7.5209 H   0  0  0  0  0  0  0  0  0  0  0  0
   -7.5443  -11.0678   -5.6379 H   0  0  0  0  0  0  0  0  0  0  0  0
   -6.7179  -11.1601   -7.1709 H   0  0  0  0  0  0  0  0  0  0  0  0
   -8.0092   -7.7818   -6.5750 H   0  0  0  0  0  0  0  0  0  0  0  0
   -6.6702   -5.8813   -5.9942 H   0  0  0  0  0  0  0  0  0  0  0  0
   -4.3986   -6.1756   -5.0330 H   0  0  0  0  0  0  0  0  0  0  0  0
   -3.4544   -8.4901   -4.7575 H   0  0  0  0  0  0  0  0  0  0  0  0
   -4.7798  -10.4614   -5.4861 H   0  0  0  0  0  0  0  0  0  0  0  0
   -9.8768  -11.4827   -6.2013 H   0  0  0  0  0  0  0  0  0  0  0  0
  -10.9185  -10.7217  -10.8347 H   0  0  0  0  0  0  0  0  0  0  0  0
  1  2  1  0
  1 23  1  0
  1 24  1  0
  1 25  1  0
  2 20  1  0
  2  3  1  0
  2  4  1  0
  3 26  1  0
  3 27  1  0
  3 28  1  0
  4 19  1  0
  4  5  1  0
  4 29  1  1
  5  6  1  0
  5 30  1  0
  5 31  1  0
  6 19  1  0
  6  7  1  0
  6 32  1  1
  7 22  1  0
  7  8  1  0
  7 33  1  6
  8 10  1  0
  8  9  1  0
  8 34  1  1
 10  9  1  6
 10 11  1  0
 10 20  1  0
 11 12  1  0
 11 19  1  0
 12 13  1  0
 12 35  1  0
 12 36  1  0
 13 18  1  0
 13 14  2  0
 14 15  1  0
 14 37  1  0
 15 16  2  0
 15 38  1  0
 16 17  1  0
 16 39  1  0
 17 18  2  0
 17 40  1  0
 18 41  1  0
 19 42  1  1
 20 22  1  0
 20 21  1  6
 21 22  1  0
 22 43  1  6
M  END
>  <i_m_ct_stereo_status>  (1) 
1

>  <s_m_source_file>  (1) 
/var/tmp/pbs.5076255.sched01/tmphrtf3o8j/0_qqz9eae.sdf

>  <i_m_source_file_index>  (1) 
1

>  <i_lp_mmshare_version>  (1) 
48012

>  <i_f3d_flags>  (1) 
0

>  <s_epik_input>  (1) 
QzEyM1tDQF00NVtDQEhdKE81KVtDQEhdKFtDQEBIXTFPMilbQ0BASF02W0NAQEhdKFtDQEBIXShbQ0gyXTYpQzQoW0NIM10pW0NIM10pTjNbQ0gyXWM3W2NIXVtjSF1bY0hdW2NIXVtjSF03

>  <s_epik_cmdline>  (1) 
J2VwaWtfcHl0aG9uJywgJy1waHQnLCAnMi4wJywgJy1waCcsICc3LjAnLCAnLXRuJywgJzgnLCAnLW1hJywgJzIwMCcsICctaW1hZScsICc8aW5maWxlLm1hZT4nLCAnLW9tYWUnLCAnPG91dGZpbGUubWFlPic=

>  <r_epik_Ionization_Penalty>  (1) 
0.212992

>  <r_epik_Ionization_Penalty_Charging>  (1) 
0

>  <r_epik_Ionization_Penalty_Neutral>  (1) 
0.212992

>  <r_epik_State_Penalty>  (1) 
0.203131

>  <r_epik_Charging_Adjusted_Penalty>  (1) 
0.203131

>  <i_epik_Tot_Q>  (1) 
0

>  <i_epik_Tot_abs_Q>  (1) 
0

>  <s_lp_Force_Field>  (1) 
OPLS3e

>  <r_lp_Energy>  (1) 
120.286

>  <b_lp_Chiralities_Consistent>  (1) 
1

>  <s_lp_Variant>  (1) 
0:0-1

>  <s_i_glide_gridfile>  (1) 
pfpi4k_grid

>  <i_i_glide_lignum>  (1) 
1

>  <i_i_glide_rotatable_bonds>  (1) 
2

>  <r_i_docking_score>  (1) 
-4.25195

>  <r_i_glide_ligand_efficiency>  (1) 
-0.19327

>  <r_i_glide_ligand_efficiency_sa>  (1) 
-0.541551

>  <r_i_glide_ligand_efficiency_ln>  (1) 
-1.03933

>  <r_i_glide_gscore>  (1) 
-4.25195

>  <r_i_glide_lipo>  (1) 
-1.55718

>  <r_i_glide_hbond>  (1) 
0

>  <r_i_glide_metal>  (1) 
-0

>  <r_i_glide_rewards>  (1) 
-1.68529

>  <r_i_glide_evdw>  (1) 
-25.7882

>  <r_i_glide_ecoul>  (1) 
-0.930971

>  <r_i_glide_erotb>  (1) 
0.419577

>  <r_i_glide_esite>  (1) 
0

>  <r_i_glide_emodel>  (1) 
-31.4588

>  <r_i_glide_energy>  (1) 
-26.7192

>  <r_i_glide_einternal>  (1) 
3.34461

>  <r_i_glide_intrahb_reward>  (1) 
-0

>  <i_i_glide_confnum>  (1) 
1

>  <i_i_glide_posenum>  (1) 
4

>  <r_i_glide_eff_state_penalty>  (1) 
0

>  <ligand_id>  (1) 
0

>  <original_smiles>  (1) 
CC1(C)C2CC3C4C5OC5(N(Cc5ccccc5)C32)C12OC42

>  <smiles>  (1) 
[H]c1c([H])c([H])c(C([H])([H])N2C3([H])C4([H])C([H])([H])C3([H])C(C([H])([H])[H])(C([H])([H])[H])C35OC3([H])C4([H])C3([H])OC235)c([H])c1[H]

$$$$
0:0:1
     RDKit          3D

 43 49  0  0  1  0  0  0  0  0999 V2000
    4.2277   -2.3486    2.8078 C   0  0  0  0  0  0  0  0  0  0  0  0
    3.9668   -3.8737    2.7252 C   0  0  0  0  0  0  0  0  0  0  0  0
    3.0284   -4.1821    3.9141 C   0  0  0  0  0  0  0  0  0  0  0  0
    3.3168   -4.3391    1.3806 C   0  0  2  0  0  0  0  0  0  0  0  0
    2.8574   -5.8184    1.2224 C   0  0  0  0  0  0  0  0  0  0  0  0
    4.2511   -6.1800    0.6729 C   0  0  2  0  0  0  0  0  0  0  0  0
    5.4375   -6.6142    1.6455 C   0  0  1  0  0  0  0  0  0  0  0  0
    6.6954   -5.9485    1.1093 C   0  0  1  0  0  0  0  0  0  0  0  0
    7.5423   -4.8673    1.5522 O   0  0  0  0  0  0  0  0  0  0  0  0
    6.1876   -4.5261    1.4767 C   0  0  1  0  0  0  0  0  0  0  0  0
    5.6433   -4.1118    0.1864 N   0  0  0  0  0  0  0  0  0  0  0  0
    5.7773   -2.7040   -0.2068 C   0  0  0  0  0  0  0  0  0  0  0  0
    5.1264   -2.3987   -1.5465 C   0  0  0  0  0  0  0  0  0  0  0  0
    5.0232   -3.3940   -2.5416 C   0  0  0  0  0  0  0  0  0  0  0  0
    4.2849   -3.1562   -3.7054 C   0  0  0  0  0  0  0  0  0  0  0  0
    3.6969   -1.8987   -3.9162 C   0  0  0  0  0  0  0  0  0  0  0  0
    3.8226   -0.8862   -2.9454 C   0  0  0  0  0  0  0  0  0  0  0  0
    4.5338   -1.1374   -1.7654 C   0  0  0  0  0  0  0  0  0  0  0  0
    4.2842   -4.6835    0.2081 C   0  0  2  0  0  0  0  0  0  0  0  0
    5.2928   -4.6384    2.7251 C   0  0  1  0  0  0  0  0  0  0  0  0
    5.9471   -5.1593    3.8658 O   0  0  0  0  0  0  0  0  0  0  0  0
    5.1721   -6.0955    3.0473 C   0  0  2  0  0  0  0  0  0  0  0  0
    3.4561   -1.7779    2.2855 H   0  0  0  0  0  0  0  0  0  0  0  0
    5.2027   -2.0580    2.4336 H   0  0  0  0  0  0  0  0  0  0  0  0
    4.2233   -2.0035    3.8450 H   0  0  0  0  0  0  0  0  0  0  0  0
    2.6614   -5.2046    3.9549 H   0  0  0  0  0  0  0  0  0  0  0  0
    2.1424   -3.5439    3.8658 H   0  0  0  0  0  0  0  0  0  0  0  0
    3.5262   -3.9782    4.8628 H   0  0  0  0  0  0  0  0  0  0  0  0
    2.5307   -3.6614    1.0370 H   0  0  0  0  0  0  0  0  0  0  0  0
    2.5647   -6.3556    2.1210 H   0  0  0  0  0  0  0  0  0  0  0  0
    2.0857   -5.9231    0.4581 H   0  0  0  0  0  0  0  0  0  0  0  0
    4.1807   -6.8190   -0.2080 H   0  0  0  0  0  0  0  0  0  0  0  0
    5.5607   -7.6969    1.6471 H   0  0  0  0  0  0  0  0  0  0  0  0
    6.9347   -6.2197    0.0816 H   0  0  0  0  0  0  0  0  0  0  0  0
    5.3332   -2.0313    0.5120 H   0  0  0  0  0  0  0  0  0  0  0  0
    6.8412   -2.4516   -0.2754 H   0  0  0  0  0  0  0  0  0  0  0  0
    5.4519   -4.3742   -2.3866 H   0  0  0  0  0  0  0  0  0  0  0  0
    4.1629   -3.9583   -4.4176 H   0  0  0  0  0  0  0  0  0  0  0  0
    3.1086   -1.7120   -4.7969 H   0  0  0  0  0  0  0  0  0  0  0  0
    3.3475    0.0715   -3.0976 H   0  0  0  0  0  0  0  0  0  0  0  0
    4.5811   -0.3809   -0.9942 H   0  0  0  0  0  0  0  0  0  0  0  0
    3.7632   -4.5732   -0.7490 H   0  0  0  0  0  0  0  0  0  0  0  0
    4.3088   -6.5224    3.5581 H   0  0  0  0  0  0  0  0  0  0  0  0
  1  2  1  0
  1 23  1  0
  1 24  1  0
  1 25  1  0
  2 20  1  0
  2  3  1  0
  2  4  1  0
  3 26  1  0
  3 27  1  0
  3 28  1  0
  4 19  1  0
  4  5  1  0
  4 29  1  6
  5  6  1  0
  5 30  1  0
  5 31  1  0
  6 19  1  0
  6  7  1  0
  6 32  1  6
  7 22  1  0
  7  8  1  0
  7 33  1  1
  8 10  1  0
  8  9  1  0
  8 34  1  6
 10  9  1  1
 10 11  1  0
 10 20  1  0
 11 12  1  0
 11 19  1  0
 12 13  1  0
 12 35  1  0
 12 36  1  0
 13 18  1  0
 13 14  2  0
 14 15  1  0
 14 37  1  0
 15 16  2  0
 15 38  1  0
 16 17  1  0
 16 39  1  0
 17 18  2  0
 17 40  1  0
 18 41  1  0
 19 42  1  6
 20 22  1  0
 20 21  1  1
 21 22  1  0
 22 43  1  1
M  END
>  <i_m_ct_stereo_status>  (2) 
1

>  <s_m_source_file>  (2) 
/var/tmp/pbs.5076255.sched01/tmphrtf3o8j/0_qqz9eae.sdf

>  <i_m_source_file_index>  (2) 
1

>  <i_lp_mmshare_version>  (2) 
48012

>  <i_f3d_flags>  (2) 
0

>  <s_epik_input>  (2) 
QzEyM1tDQF00NVtDQEhdKE81KVtDQEhdKFtDQEBIXTFPMilbQ0BASF02W0NAQEhdKFtDQEBIXShbQ0gyXTYpQzQoW0NIM10pW0NIM10pTjNbQ0gyXWM3W2NIXVtjSF1bY0hdW2NIXVtjSF03

>  <s_epik_cmdline>  (2) 
J2VwaWtfcHl0aG9uJywgJy1waHQnLCAnMi4wJywgJy1waCcsICc3LjAnLCAnLXRuJywgJzgnLCAnLW1hJywgJzIwMCcsICctaW1hZScsICc8aW5maWxlLm1hZT4nLCAnLW9tYWUnLCAnPG91dGZpbGUubWFlPic=

>  <r_epik_Ionization_Penalty>  (2) 
0.212992

>  <r_epik_Ionization_Penalty_Charging>  (2) 
0

>  <r_epik_Ionization_Penalty_Neutral>  (2) 
0.212992

>  <r_epik_State_Penalty>  (2) 
0.203131

>  <r_epik_Charging_Adjusted_Penalty>  (2) 
0.203131

>  <i_epik_Tot_Q>  (2) 
0

>  <i_epik_Tot_abs_Q>  (2) 
0

>  <s_lp_Force_Field>  (2) 
OPLS3e

>  <r_lp_Energy>  (2) 
120.286

>  <b_lp_Chiralities_Consistent>  (2) 
1

>  <s_lp_Variant>  (2) 
0:0-1

>  <s_i_glide_gridfile>  (2) 
pfpi4k_grid

>  <i_i_glide_lignum>  (2) 
1

>  <i_i_glide_rotatable_bonds>  (2) 
2

>  <r_i_docking_score>  (2) 
-3.29146

>  <r_i_glide_ligand_efficiency>  (2) 
-0.149612

>  <r_i_glide_ligand_efficiency_sa>  (2) 
-0.419218

>  <r_i_glide_ligand_efficiency_ln>  (2) 
-0.804552

>  <r_i_glide_gscore>  (2) 
-3.29146

>  <r_i_glide_lipo>  (2) 
-0.784913

>  <r_i_glide_hbond>  (2) 
0

>  <r_i_glide_metal>  (2) 
-0

>  <r_i_glide_rewards>  (2) 
-1.49951

>  <r_i_glide_evdw>  (2) 
-26.6075

>  <r_i_glide_ecoul>  (2) 
-0.641594

>  <r_i_glide_erotb>  (2) 
0.419577

>  <r_i_glide_esite>  (2) 
0

>  <r_i_glide_emodel>  (2) 
-31.215

>  <r_i_glide_energy>  (2) 
-27.2491

>  <r_i_glide_einternal>  (2) 
2.03121

>  <r_i_glide_intrahb_reward>  (2) 
-0

>  <i_i_glide_confnum>  (2) 
1

>  <i_i_glide_posenum>  (2) 
35

>  <r_i_glide_eff_state_penalty>  (2) 
0

>  <ligand_id>  (2) 
0

>  <original_smiles>  (2) 
CC1(C)C2CC3C4C5OC5(N(Cc5ccccc5)C32)C12OC42

>  <smiles>  (2) 
[H]c1c([H])c([H])c(C([H])([H])N2C3([H])C4([H])C([H])([H])C3([H])C(C([H])([H])[H])(C([H])([H])[H])C35OC3([H])C4([H])C3([H])OC235)c([H])c1[H]

$$$$
0:0:2
     RDKit          3D

 43 49  0  0  1  0  0  0  0  0999 V2000
    4.9736   -6.5017    0.4908 C   0  0  0  0  0  0  0  0  0  0  0  0
    4.4294   -5.8779    1.7958 C   0  0  0  0  0  0  0  0  0  0  0  0
    4.1488   -7.0874    2.7190 C   0  0  0  0  0  0  0  0  0  0  0  0
    5.3923   -4.8573    2.4767 C   0  0  2  0  0  0  0  0  0  0  0  0
    5.0351   -4.2853    3.8767 C   0  0  0  0  0  0  0  0  0  0  0  0
    4.2989   -3.1255    3.1914 C   0  0  2  0  0  0  0  0  0  0  0  0
    2.7558   -3.2231    2.8115 C   0  0  1  0  0  0  0  0  0  0  0  0
    2.6259   -2.5737    1.4376 C   0  0  1  0  0  0  0  0  0  0  0  0
    2.3843   -3.0555    0.1029 O   0  0  0  0  0  0  0  0  0  0  0  0
    3.4512   -3.6866    0.7296 C   0  0  1  0  0  0  0  0  0  0  0  0
    4.7501   -3.0393    0.6994 N   0  0  0  0  0  0  0  0  0  0  0  0
    5.6097   -3.2704   -0.4626 C   0  0  0  0  0  0  0  0  0  0  0  0
    4.9992   -2.6419   -1.7045 C   0  0  0  0  0  0  0  0  0  0  0  0
    4.5366   -3.4490   -2.7665 C   0  0  0  0  0  0  0  0  0  0  0  0
    3.9054   -2.8556   -3.8793 C   0  0  0  0  0  0  0  0  0  0  0  0
    3.7505   -1.4587   -3.9359 C   0  0  0  0  0  0  0  0  0  0  0  0
    4.2060   -0.6519   -2.8784 C   0  0  0  0  0  0  0  0  0  0  0  0
    4.8327   -1.2473   -1.7597 C   0  0  0  0  0  0  0  0  0  0  0  0
    5.3058   -3.3688    2.0141 C   0  0  2  0  0  0  0  0  0  0  0  0
    3.2134   -5.0044    1.4999 C   0  0  1  0  0  0  0  0  0  0  0  0
    1.8799   -5.4405    1.5131 O   0  0  0  0  0  0  0  0  0  0  0  0
    2.3507   -4.6875    2.6727 C   0  0  2  0  0  0  0  0  0  0  0  0
    6.0568   -6.6443    0.5437 H   0  0  0  0  0  0  0  0  0  0  0  0
    4.7125   -5.9471   -0.4039 H   0  0  0  0  0  0  0  0  0  0  0  0
    4.5372   -7.4835    0.3017 H   0  0  0  0  0  0  0  0  0  0  0  0
    3.8362   -6.8336    3.7269 H   0  0  0  0  0  0  0  0  0  0  0  0
    5.0531   -7.6881    2.8241 H   0  0  0  0  0  0  0  0  0  0  0  0
    3.3817   -7.7338    2.2928 H   0  0  0  0  0  0  0  0  0  0  0  0
    6.4284   -5.1939    2.4932 H   0  0  0  0  0  0  0  0  0  0  0  0
    4.3912   -4.8978    4.5032 H   0  0  0  0  0  0  0  0  0  0  0  0
    5.9124   -3.9495    4.4367 H   0  0  0  0  0  0  0  0  0  0  0  0
    4.5499   -2.1841    3.6779 H   0  0  0  0  0  0  0  0  0  0  0  0
    2.1254   -2.7067    3.5376 H   0  0  0  0  0  0  0  0  0  0  0  0
    2.9419   -1.5225    1.4121 H   0  0  0  0  0  0  0  0  0  0  0  0
    6.5848   -2.8086   -0.2955 H   0  0  0  0  0  0  0  0  0  0  0  0
    5.8313   -4.3137   -0.6466 H   0  0  0  0  0  0  0  0  0  0  0  0
    4.6237   -4.5221   -2.7133 H   0  0  0  0  0  0  0  0  0  0  0  0
    3.5296   -3.4826   -4.6757 H   0  0  0  0  0  0  0  0  0  0  0  0
    3.2578   -1.0012   -4.7889 H   0  0  0  0  0  0  0  0  0  0  0  0
    4.0762    0.4187   -2.9076 H   0  0  0  0  0  0  0  0  0  0  0  0
    5.1530   -0.6325   -0.9301 H   0  0  0  0  0  0  0  0  0  0  0  0
    6.2494   -2.8570    2.1917 H   0  0  0  0  0  0  0  0  0  0  0  0
    2.3737   -5.2691    3.5930 H   0  0  0  0  0  0  0  0  0  0  0  0
  1  2  1  0
  1 23  1  0
  1 24  1  0
  1 25  1  0
  2 20  1  0
  2  3  1  0
  2  4  1  0
  3 26  1  0
  3 27  1  0
  3 28  1  0
  4 19  1  0
  4  5  1  0
  4 29  1  1
  5  6  1  0
  5 30  1  0
  5 31  1  0
  6 19  1  0
  6  7  1  0
  6 32  1  1
  7 22  1  0
  7  8  1  0
  7 33  1  1
  8 10  1  0
  8  9  1  0
  8 34  1  1
 10  9  1  6
 10 11  1  0
 10 20  1  0
 11 12  1  0
 11 19  1  0
 12 13  1  0
 12 35  1  0
 12 36  1  0
 13 18  1  0
 13 14  2  0
 14 15  1  0
 14 37  1  0
 15 16  2  0
 15 38  1  0
 16 17  1  0
 16 39  1  0
 17 18  2  0
 17 40  1  0
 18 41  1  0
 19 42  1  1
 20 22  1  0
 20 21  1  6
 21 22  1  0
 22 43  1  1
M  END
>  <i_m_ct_stereo_status>  (3) 
1

>  <s_m_source_file>  (3) 
/var/tmp/pbs.5076255.sched01/tmphrtf3o8j/0_qqz9eae.sdf

>  <i_m_source_file_index>  (3) 
1

>  <i_lp_mmshare_version>  (3) 
48012

>  <i_f3d_flags>  (3) 
0

>  <s_epik_input>  (3) 
QzEyM1tDQF00NVtDQEhdKE81KVtDQEhdKFtDQEBIXTFPMilbQ0BASF02W0NAQEhdKFtDQEBIXShbQ0gyXTYpQzQoW0NIM10pW0NIM10pTjNbQ0gyXWM3W2NIXVtjSF1bY0hdW2NIXVtjSF03

>  <s_epik_cmdline>  (3) 
J2VwaWtfcHl0aG9uJywgJy1waHQnLCAnMi4wJywgJy1waCcsICc3LjAnLCAnLXRuJywgJzgnLCAnLW1hJywgJzIwMCcsICctaW1hZScsICc8aW5maWxlLm1hZT4nLCAnLW9tYWUnLCAnPG91dGZpbGUubWFlPic=

>  <r_epik_Ionization_Penalty>  (3) 
0.212992

>  <r_epik_Ionization_Penalty_Charging>  (3) 
0

>  <r_epik_Ionization_Penalty_Neutral>  (3) 
0.212992

>  <r_epik_State_Penalty>  (3) 
0.203131

>  <r_epik_Charging_Adjusted_Penalty>  (3) 
0.203131

>  <i_epik_Tot_Q>  (3) 
0

>  <i_epik_Tot_abs_Q>  (3) 
0

>  <s_lp_Force_Field>  (3) 
OPLS3e

>  <r_lp_Energy>  (3) 
120.286

>  <b_lp_Chiralities_Consistent>  (3) 
1

>  <s_lp_Variant>  (3) 
0:0-1

>  <s_i_glide_gridfile>  (3) 
pfpi4k_grid

>  <i_i_glide_lignum>  (3) 
1

>  <i_i_glide_rotatable_bonds>  (3) 
2

>  <r_i_docking_score>  (3) 
-3.01716

>  <r_i_glide_ligand_efficiency>  (3) 
-0.137144

>  <r_i_glide_ligand_efficiency_sa>  (3) 
-0.384282

>  <r_i_glide_ligand_efficiency_ln>  (3) 
-0.737504

>  <r_i_glide_gscore>  (3) 
-3.01716

>  <r_i_glide_lipo>  (3) 
-0.623655

>  <r_i_glide_hbond>  (3) 
-0.0499036

>  <r_i_glide_metal>  (3) 
-0

>  <r_i_glide_rewards>  (3) 
-1.39517

>  <r_i_glide_evdw>  (3) 
-24.9655

>  <r_i_glide_ecoul>  (3) 
-0.778827

>  <r_i_glide_erotb>  (3) 
0.419577

>  <r_i_glide_esite>  (3) 
-0.00291491

>  <r_i_glide_emodel>  (3) 
-30.2633

>  <r_i_glide_energy>  (3) 
-25.7443

>  <r_i_glide_einternal>  (3) 
0.682863

>  <r_i_glide_intrahb_reward>  (3) 
-0

>  <i_i_glide_confnum>  (3) 
5

>  <i_i_glide_posenum>  (3) 
21

>  <r_i_glide_eff_state_penalty>  (3) 
0

>  <ligand_id>  (3) 
0

>  <original_smiles>  (3) 
CC1(C)C2CC3C4C5OC5(N(Cc5ccccc5)C32)C12OC42

>  <smiles>  (3) 
[H]c1c([H])c([H])c(C([H])([H])N2C3([H])C4([H])C([H])([H])C3([H])C(C([H])([H])[H])(C([H])([H])[H])C35OC3([H])C4([H])C3([H])OC235)c([H])c1[H]

$$$$
0:1:0
     RDKit          3D

 44 50  0  0  1  0  0  0  0  0999 V2000
    3.2598   -2.4538    2.7227 C   0  0  0  0  0  0  0  0  0  0  0  0
    3.3180   -3.9984    2.6981 C   0  0  0  0  0  0  0  0  0  0  0  0
    2.4601   -4.4818    3.8948 C   0  0  0  0  0  0  0  0  0  0  0  0
    2.7923   -4.5640    1.3444 C   0  0  2  0  0  0  0  0  0  0  0  0
    2.6753   -6.0982    1.1424 C   0  0  0  0  0  0  0  0  0  0  0  0
    4.1188   -6.1148    0.5984 C   0  0  2  0  0  0  0  0  0  0  0  0
    5.3364   -6.3424    1.5889 C   0  0  1  0  0  0  0  0  0  0  0  0
    6.4225   -5.4164    1.0857 C   0  0  1  0  0  0  0  0  0  0  0  0
    7.0429   -4.2032    1.5641 O   0  0  0  0  0  0  0  0  0  0  0  0
    5.6479   -4.1452    1.5288 C   0  0  1  0  0  0  0  0  0  0  0  0
    4.9355   -3.6827    0.3085 N   0  0  1  0  0  0  0  0  0  0  0  0
    5.7350   -3.3522   -0.9110 C   0  0  0  0  0  0  0  0  0  0  0  0
    4.9478   -2.5401   -1.9382 C   0  0  0  0  0  0  0  0  0  0  0  0
    4.2430   -3.1926   -2.9689 C   0  0  0  0  0  0  0  0  0  0  0  0
    3.5055   -2.4562   -3.9167 C   0  0  0  0  0  0  0  0  0  0  0  0
    3.4887   -1.0552   -3.8582 C   0  0  0  0  0  0  0  0  0  0  0  0
    4.2135   -0.3974   -2.8476 C   0  0  0  0  0  0  0  0  0  0  0  0
    4.9349   -1.1298   -1.8875 C   0  0  0  0  0  0  0  0  0  0  0  0
    3.7935   -4.6402    0.1518 C   0  0  2  0  0  0  0  0  0  0  0  0
    4.7699   -4.4804    2.7247 C   0  0  1  0  0  0  0  0  0  0  0  0
    5.4894   -4.8896    3.8656 O   0  0  0  0  0  0  0  0  0  0  0  0
    4.9513   -5.9397    3.0054 C   0  0  2  0  0  0  0  0  0  0  0  0
    2.2287   -2.1018    2.6525 H   0  0  0  0  0  0  0  0  0  0  0  0
    3.8025   -1.9796    1.9083 H   0  0  0  0  0  0  0  0  0  0  0  0
    3.6723   -2.0618    3.6531 H   0  0  0  0  0  0  0  0  0  0  0  0
    2.3195   -5.5591    3.9395 H   0  0  0  0  0  0  0  0  0  0  0  0
    1.4596   -4.0486    3.8492 H   0  0  0  0  0  0  0  0  0  0  0  0
    2.9001   -4.1721    4.8436 H   0  0  0  0  0  0  0  0  0  0  0  0
    1.8581   -4.0914    1.0434 H   0  0  0  0  0  0  0  0  0  0  0  0
    2.5235   -6.6956    2.0414 H   0  0  0  0  0  0  0  0  0  0  0  0
    1.9377   -6.3641    0.3827 H   0  0  0  0  0  0  0  0  0  0  0  0
    4.1906   -6.7477   -0.2886 H   0  0  0  0  0  0  0  0  0  0  0  0
    5.6765   -7.3812    1.5667 H   0  0  0  0  0  0  0  0  0  0  0  0
    6.7428   -5.6321    0.0739 H   0  0  0  0  0  0  0  0  0  0  0  0
    6.6122   -2.7739   -0.6152 H   0  0  0  0  0  0  0  0  0  0  0  0
    6.1064   -4.2462   -1.4033 H   0  0  0  0  0  0  0  0  0  0  0  0
    4.2518   -4.2674   -3.0398 H   0  0  0  0  0  0  0  0  0  0  0  0
    2.9438   -2.9724   -4.6818 H   0  0  0  0  0  0  0  0  0  0  0  0
    2.9183   -0.4877   -4.5766 H   0  0  0  0  0  0  0  0  0  0  0  0
    4.2103    0.6816   -2.8118 H   0  0  0  0  0  0  0  0  0  0  0  0
    5.4842   -0.5970   -1.1235 H   0  0  0  0  0  0  0  0  0  0  0  0
    3.2718   -4.5730   -0.8018 H   0  0  0  0  0  0  0  0  0  0  0  0
    4.1868   -6.5446    3.4899 H   0  0  0  0  0  0  0  0  0  0  0  0
    4.5198   -2.7992    0.5689 H   0  0  0  0  0  0  0  0  0  0  0  0
  1  2  1  0
  1 23  1  0
  1 24  1  0
  1 25  1  0
  2 20  1  0
  2  3  1  0
  2  4  1  0
  3 26  1  0
  3 27  1  0
  3 28  1  0
  4 19  1  0
  4  5  1  0
  4 29  1  6
  5  6  1  0
  5 30  1  0
  5 31  1  0
  6 19  1  0
  6  7  1  0
  6 32  1  6
  7 22  1  0
  7  8  1  0
  7 33  1  1
  8 10  1  0
  8  9  1  0
  8 34  1  6
 10  9  1  1
 10 11  1  0
 10 20  1  0
 11 12  1  0
 11 19  1  0
 11 44  1  1
 12 13  1  0
 12 35  1  0
 12 36  1  0
 13 18  1  0
 13 14  2  0
 14 15  1  0
 14 37  1  0
 15 16  2  0
 15 38  1  0
 16 17  1  0
 16 39  1  0
 17 18  2  0
 17 40  1  0
 18 41  1  0
 19 42  1  6
 20 22  1  0
 20 21  1  1
 21 22  1  0
 22 43  1  1
M  CHG  1  11   1
M  END
>  <i_m_ct_stereo_status>  (4) 
1

>  <s_m_source_file>  (4) 
/var/tmp/pbs.5076255.sched01/tmphrtf3o8j/0_qqz9eae.sdf

>  <i_m_source_file_index>  (4) 
2

>  <i_lp_mmshare_version>  (4) 
48012

>  <i_f3d_flags>  (4) 
0

>  <s_epik_input>  (4) 
QzEyM1tDQF00NVtDQEhdKE81KVtDQEhdKFtDQEBIXTFPMilbQ0BASF02W0NAQEhdKFtDQEBIXShbQ0gyXTYpQzQoW0NIM10pW0NIM10pTjNbQ0gyXWM3W2NIXVtjSF1bY0hdW2NIXVtjSF03

>  <s_epik_cmdline>  (4) 
J2VwaWtfcHl0aG9uJywgJy1waHQnLCAnMi4wJywgJy1waCcsICc3LjAnLCAnLXRuJywgJzgnLCAnLW1hJywgJzIwMCcsICctaW1hZScsICc8aW5maWxlLm1hZT4nLCAnLW9tYWUnLCAnPG91dGZpbGUubWFlPic=

>  <r_epik_Ionization_Penalty>  (4) 
0.709465

>  <r_epik_Ionization_Penalty_Charging>  (4) 
0.709465

>  <r_epik_Ionization_Penalty_Neutral>  (4) 
1.28927e-14

>  <r_epik_State_Penalty>  (4) 
0.732908

>  <r_epik_Charging_Adjusted_Penalty>  (4) 
1.44237

>  <i_epik_Tot_Q>  (4) 
1

>  <i_epik_Tot_abs_Q>  (4) 
1

>  <s_lp_Force_Field>  (4) 
OPLS3e

>  <r_lp_Energy>  (4) 
121.594

>  <b_lp_Chiralities_Consistent>  (4) 
1

>  <s_lp_Variant>  (4) 
0:0-2

>  <s_i_glide_gridfile>  (4) 
pfpi4k_grid

>  <i_i_glide_lignum>  (4) 
2

>  <i_i_glide_rotatable_bonds>  (4) 
2

>  <r_i_docking_score>  (4) 
-3.65596

>  <r_i_glide_ligand_efficiency>  (4) 
-0.16618

>  <r_i_glide_ligand_efficiency_sa>  (4) 
-0.465642

>  <r_i_glide_ligand_efficiency_ln>  (4) 
-0.893649

>  <r_i_glide_gscore>  (4) 
-3.65596

>  <r_i_glide_lipo>  (4) 
-0.882541

>  <r_i_glide_hbond>  (4) 
0

>  <r_i_glide_metal>  (4) 
-0

>  <r_i_glide_rewards>  (4) 
-1.46306

>  <r_i_glide_evdw>  (4) 
-24.6825

>  <r_i_glide_ecoul>  (4) 
-3.28879

>  <r_i_glide_erotb>  (4) 
0.417087

>  <r_i_glide_esite>  (4) 
0

>  <r_i_glide_emodel>  (4) 
-34.6543

>  <r_i_glide_energy>  (4) 
-27.9713

>  <r_i_glide_einternal>  (4) 
0.0207323

>  <r_i_glide_intrahb_reward>  (4) 
-0

>  <i_i_glide_confnum>  (4) 
1

>  <i_i_glide_posenum>  (4) 
1

>  <r_i_glide_eff_state_penalty>  (4) 
0

>  <ligand_id>  (4) 
0

>  <original_smiles>  (4) 
CC1(C)C2CC3C4C5OC5(N(Cc5ccccc5)C32)C12OC42

>  <smiles>  (4) 
[H]c1c([H])c([H])c(C([H])([H])[N+]2([H])C3([H])C4([H])C([H])([H])C3([H])C(C([H])([H])[H])(C([H])([H])[H])C35OC3([H])C4([H])C3([H])OC352)c([H])c1[H]

$$$$
0:1:1
     RDKit          3D

 44 50  0  0  1  0  0  0  0  0999 V2000
    1.7611    1.3439    1.8527 C   0  0  0  0  0  0  0  0  0  0  0  0
    1.8347    0.2449    2.9304 C   0  0  0  0  0  0  0  0  0  0  0  0
    0.7978    0.6316    4.0119 C   0  0  0  0  0  0  0  0  0  0  0  0
    1.5356   -1.1568    2.3280 C   0  0  2  0  0  0  0  0  0  0  0  0
    1.4606   -2.4031    3.2524 C   0  0  0  0  0  0  0  0  0  0  0  0
    2.9701   -2.6187    3.0397 C   0  0  2  0  0  0  0  0  0  0  0  0
    4.0212   -1.9602    4.0230 C   0  0  1  0  0  0  0  0  0  0  0  0
    5.1506   -1.5271    3.1134 C   0  0  1  0  0  0  0  0  0  0  0  0
    5.6875   -0.2605    2.6839 O   0  0  0  0  0  0  0  0  0  0  0  0
    4.3176   -0.3970    2.4604 C   0  0  1  0  0  0  0  0  0  0  0  0
    3.8022   -1.0007    1.2078 N   0  0  1  0  0  0  0  0  0  0  0  0
    4.7888   -1.5274    0.2100 C   0  0  0  0  0  0  0  0  0  0  0  0
    4.1894   -1.6996   -1.1821 C   0  0  0  0  0  0  0  0  0  0  0  0
    4.4010   -0.7344   -2.1924 C   0  0  0  0  0  0  0  0  0  0  0  0
    3.8218   -0.8828   -3.4685 C   0  0  0  0  0  0  0  0  0  0  0  0
    3.0393   -2.0113   -3.7489 C   0  0  0  0  0  0  0  0  0  0  0  0
    2.8450   -2.9978   -2.7717 C   0  0  0  0  0  0  0  0  0  0  0  0
    3.4389   -2.8562   -1.4999 C   0  0  0  0  0  0  0  0  0  0  0  0
    2.7101   -1.9204    1.6554 C   0  0  2  0  0  0  0  0  0  0  0  0
    3.2623    0.0895    3.4399 C   0  0  1  0  0  0  0  0  0  0  0  0
    3.7994    0.6686    4.6063 O   0  0  0  0  0  0  0  0  0  0  0  0
    3.4079   -0.7339    4.6805 C   0  0  2  0  0  0  0  0  0  0  0  0
    0.7557    1.4254    1.4346 H   0  0  0  0  0  0  0  0  0  0  0  0
    2.4257    1.1665    1.0128 H   0  0  0  0  0  0  0  0  0  0  0  0
    2.0194    2.3213    2.2640 H   0  0  0  0  0  0  0  0  0  0  0  0
    0.6565   -0.1194    4.7845 H   0  0  0  0  0  0  0  0  0  0  0  0
   -0.1817    0.7893    3.5595 H   0  0  0  0  0  0  0  0  0  0  0  0
    1.0784    1.5629    4.5029 H   0  0  0  0  0  0  0  0  0  0  0  0
    0.6655   -1.1452    1.6753 H   0  0  0  0  0  0  0  0  0  0  0  0
    1.1718   -2.2166    4.2854 H   0  0  0  0  0  0  0  0  0  0  0  0
    0.8584   -3.2140    2.8310 H   0  0  0  0  0  0  0  0  0  0  0  0
    3.1764   -3.6711    2.8649 H   0  0  0  0  0  0  0  0  0  0  0  0
    4.3705   -2.6743    4.7788 H   0  0  0  0  0  0  0  0  0  0  0  0
    5.6349   -2.3442    2.5860 H   0  0  0  0  0  0  0  0  0  0  0  0
    5.6284   -0.8397    0.1315 H   0  0  0  0  0  0  0  0  0  0  0  0
    5.2070   -2.4856    0.5055 H   0  0  0  0  0  0  0  0  0  0  0  0
    5.0111    0.1325   -1.9997 H   0  0  0  0  0  0  0  0  0  0  0  0
    3.9677   -0.1291   -4.2288 H   0  0  0  0  0  0  0  0  0  0  0  0
    2.5714   -2.1297   -4.7095 H   0  0  0  0  0  0  0  0  0  0  0  0
    2.2312   -3.8605   -2.9911 H   0  0  0  0  0  0  0  0  0  0  0  0
    3.2906   -3.6500   -0.7754 H   0  0  0  0  0  0  0  0  0  0  0  0
    2.3162   -2.5954    0.9007 H   0  0  0  0  0  0  0  0  0  0  0  0
    2.5830   -0.9122    5.3605 H   0  0  0  0  0  0  0  0  0  0  0  0
    3.3430   -0.2515    0.7112 H   0  0  0  0  0  0  0  0  0  0  0  0
  1  2  1  0
  1 23  1  0
  1 24  1  0
  1 25  1  0
  2 20  1  0
  2  3  1  0
  2  4  1  0
  3 26  1  0
  3 27  1  0
  3 28  1  0
  4 19  1  0
  4  5  1  0
  4 29  1  6
  5  6  1  0
  5 30  1  0
  5 31  1  0
  6 19  1  0
  6  7  1  0
  6 32  1  6
  7 22  1  0
  7  8  1  0
  7 33  1  1
  8 10  1  0
  8  9  1  0
  8 34  1  6
 10  9  1  6
 10 11  1  0
 10 20  1  0
 11 12  1  0
 11 19  1  0
 11 44  1  6
 12 13  1  0
 12 35  1  0
 12 36  1  0
 13 18  1  0
 13 14  2  0
 14 15  1  0
 14 37  1  0
 15 16  2  0
 15 38  1  0
 16 17  1  0
 16 39  1  0
 17 18  2  0
 17 40  1  0
 18 41  1  0
 19 42  1  6
 20 22  1  0
 20 21  1  1
 21 22  1  0
 22 43  1  1
M  CHG  1  11   1
M  END
>  <i_m_ct_stereo_status>  (5) 
1

>  <s_m_source_file>  (5) 
/var/tmp/pbs.5076255.sched01/tmphrtf3o8j/0_qqz9eae.sdf

>  <i_m_source_file_index>  (5) 
2

>  <i_lp_mmshare_version>  (5) 
48012

>  <i_f3d_flags>  (5) 
0

>  <s_epik_input>  (5) 
QzEyM1tDQF00NVtDQEhdKE81KVtDQEhdKFtDQEBIXTFPMilbQ0BASF02W0NAQEhdKFtDQEBIXShbQ0gyXTYpQzQoW0NIM10pW0NIM10pTjNbQ0gyXWM3W2NIXVtjSF1bY0hdW2NIXVtjSF03

>  <s_epik_cmdline>  (5) 
J2VwaWtfcHl0aG9uJywgJy1waHQnLCAnMi4wJywgJy1waCcsICc3LjAnLCAnLXRuJywgJzgnLCAnLW1hJywgJzIwMCcsICctaW1hZScsICc8aW5maWxlLm1hZT4nLCAnLW9tYWUnLCAnPG91dGZpbGUubWFlPic=

>  <r_epik_Ionization_Penalty>  (5) 
0.709465

>  <r_epik_Ionization_Penalty_Charging>  (5) 
0.709465

>  <r_epik_Ionization_Penalty_Neutral>  (5) 
1.28927e-14

>  <r_epik_State_Penalty>  (5) 
0.732908

>  <r_epik_Charging_Adjusted_Penalty>  (5) 
1.44237

>  <i_epik_Tot_Q>  (5) 
1

>  <i_epik_Tot_abs_Q>  (5) 
1

>  <s_lp_Force_Field>  (5) 
OPLS3e

>  <r_lp_Energy>  (5) 
121.594

>  <b_lp_Chiralities_Consistent>  (5) 
1

>  <s_lp_Variant>  (5) 
0:0-2

>  <s_i_glide_gridfile>  (5) 
pfpi4k_grid

>  <i_i_glide_lignum>  (5) 
2

>  <i_i_glide_rotatable_bonds>  (5) 
2

>  <r_i_docking_score>  (5) 
-3.60199

>  <r_i_glide_ligand_efficiency>  (5) 
-0.163727

>  <r_i_glide_ligand_efficiency_sa>  (5) 
-0.458769

>  <r_i_glide_ligand_efficiency_ln>  (5) 
-0.880457

>  <r_i_glide_gscore>  (5) 
-3.60199

>  <r_i_glide_lipo>  (5) 
-0.518303

>  <r_i_glide_hbond>  (5) 
-0.146474

>  <r_i_glide_metal>  (5) 
-0

>  <r_i_glide_rewards>  (5) 
-1.4878

>  <r_i_glide_evdw>  (5) 
-24.5735

>  <r_i_glide_ecoul>  (5) 
-4.18227

>  <r_i_glide_erotb>  (5) 
0.417087

>  <r_i_glide_esite>  (5) 
-0.0104831

>  <r_i_glide_emodel>  (5) 
-35.0672

>  <r_i_glide_energy>  (5) 
-28.7557

>  <r_i_glide_einternal>  (5) 
0.140266

>  <r_i_glide_intrahb_reward>  (5) 
-0

>  <i_i_glide_confnum>  (5) 
1

>  <i_i_glide_posenum>  (5) 
21

>  <r_i_glide_eff_state_penalty>  (5) 
0

>  <ligand_id>  (5) 
0

>  <original_smiles>  (5) 
CC1(C)C2CC3C4C5OC5(N(Cc5ccccc5)C32)C12OC42

>  <smiles>  (5) 
[H]c1c([H])c([H])c(C([H])([H])[N+]2([H])C3([H])C4([H])C([H])([H])C3([H])C(C([H])([H])[H])(C([H])([H])[H])C35OC3([H])C4([H])C3([H])OC352)c([H])c1[H]

$$$$
0:1:2
     RDKit          3D

 44 50  0  0  1  0  0  0  0  0999 V2000
    5.4374   -1.1038    2.4015 C   0  0  0  0  0  0  0  0  0  0  0  0
    4.5095   -2.1693    3.0244 C   0  0  0  0  0  0  0  0  0  0  0  0
    4.3191   -1.7686    4.5101 C   0  0  0  0  0  0  0  0  0  0  0  0
    3.1580   -2.2435    2.2592 C   0  0  2  0  0  0  0  0  0  0  0  0
    2.0311   -3.1724    2.7774 C   0  0  0  0  0  0  0  0  0  0  0  0
    2.6047   -4.3028    1.8998 C   0  0  2  0  0  0  0  0  0  0  0  0
    3.6728   -5.3194    2.4761 C   0  0  1  0  0  0  0  0  0  0  0  0
    4.6323   -5.5346    1.3230 C   0  0  1  0  0  0  0  0  0  0  0  0
    6.0007   -5.1598    1.0397 O   0  0  0  0  0  0  0  0  0  0  0  0
    5.1893   -4.0920    1.4096 C   0  0  1  0  0  0  0  0  0  0  0  0
    4.4384   -3.3498    0.3890 N   0  0  1  0  0  0  0  0  0  0  0  0
    4.4997   -3.7997   -1.0280 C   0  0  0  0  0  0  0  0  0  0  0  0
    4.0662   -2.7192   -2.0056 C   0  0  0  0  0  0  0  0  0  0  0  0
    4.6604   -1.4393   -1.9818 C   0  0  0  0  0  0  0  0  0  0  0  0
    4.2308   -0.4354   -2.8795 C   0  0  0  0  0  0  0  0  0  0  0  0
    3.2593   -0.6970   -3.8569 C   0  0  0  0  0  0  0  0  0  0  0  0
    2.6867   -1.9806   -3.9006 C   0  0  0  0  0  0  0  0  0  0  0  0
    3.0823   -2.9815   -2.9880 C   0  0  0  0  0  0  0  0  0  0  0  0
    3.0873   -3.1238    0.9809 C   0  0  2  0  0  0  0  0  0  0  0  0
    5.0669   -3.5779    2.8276 C   0  0  1  0  0  0  0  0  0  0  0  0
    5.7824   -4.3212    3.7728 O   0  0  0  0  0  0  0  0  0  0  0  0
    4.3928   -4.6526    3.6252 C   0  0  2  0  0  0  0  0  0  0  0  0
    5.0081   -0.1054    2.5024 H   0  0  0  0  0  0  0  0  0  0  0  0
    5.6365   -1.2579    1.3452 H   0  0  0  0  0  0  0  0  0  0  0  0
    6.4061   -1.0802    2.8896 H   0  0  0  0  0  0  0  0  0  0  0  0
    3.5898   -2.3671    5.0492 H   0  0  0  0  0  0  0  0  0  0  0  0
    3.9732   -0.7391    4.5854 H   0  0  0  0  0  0  0  0  0  0  0  0
    5.2591   -1.8285    5.0585 H   0  0  0  0  0  0  0  0  0  0  0  0
    2.7260   -1.2643    2.0835 H   0  0  0  0  0  0  0  0  0  0  0  0
    2.0432   -3.3941    3.8470 H   0  0  0  0  0  0  0  0  0  0  0  0
    1.0351   -2.8344    2.4599 H   0  0  0  0  0  0  0  0  0  0  0  0
    1.8053   -4.8172    1.3913 H   0  0  0  0  0  0  0  0  0  0  0  0
    3.2133   -6.2644    2.7987 H   0  0  0  0  0  0  0  0  0  0  0  0
    4.1740   -5.9757    0.4453 H   0  0  0  0  0  0  0  0  0  0  0  0
    5.5067   -4.1052   -1.3047 H   0  0  0  0  0  0  0  0  0  0  0  0
    3.8527   -4.6527   -1.1772 H   0  0  0  0  0  0  0  0  0  0  0  0
    5.4345   -1.2023   -1.2675 H   0  0  0  0  0  0  0  0  0  0  0  0
    4.6583    0.5518   -2.8215 H   0  0  0  0  0  0  0  0  0  0  0  0
    2.9298    0.0843   -4.5341 H   0  0  0  0  0  0  0  0  0  0  0  0
    1.8944   -2.1834   -4.6069 H   0  0  0  0  0  0  0  0  0  0  0  0
    2.5845   -3.9371   -3.0695 H   0  0  0  0  0  0  0  0  0  0  0  0
    2.3264   -2.7579    0.2906 H   0  0  0  0  0  0  0  0  0  0  0  0
    3.8243   -4.4497    4.5202 H   0  0  0  0  0  0  0  0  0  0  0  0
    4.8646   -2.4382    0.3493 H   0  0  0  0  0  0  0  0  0  0  0  0
  1  2  1  0
  1 23  1  0
  1 24  1  0
  1 25  1  0
  2 20  1  0
  2  3  1  0
  2  4  1  0
  3 26  1  0
  3 27  1  0
  3 28  1  0
  4 19  1  0
  4  5  1  0
  4 29  1  6
  5  6  1  0
  5 30  1  0
  5 31  1  0
  6 19  1  0
  6  7  1  0
  6 32  1  6
  7 22  1  0
  7  8  1  0
  7 33  1  1
  8 10  1  0
  8  9  1  0
  8 34  1  6
 10  9  1  6
 10 11  1  0
 10 20  1  0
 11 12  1  0
 11 19  1  0
 11 44  1  6
 12 13  1  0
 12 35  1  0
 12 36  1  0
 13 18  1  0
 13 14  2  0
 14 15  1  0
 14 37  1  0
 15 16  2  0
 15 38  1  0
 16 17  1  0
 16 39  1  0
 17 18  2  0
 17 40  1  0
 18 41  1  0
 19 42  1  6
 20 22  1  0
 20 21  1  1
 21 22  1  0
 22 43  1  1
M  CHG  1  11   1
M  END
>  <i_m_ct_stereo_status>  (6) 
1

>  <s_m_source_file>  (6) 
/var/tmp/pbs.5076255.sched01/tmphrtf3o8j/0_qqz9eae.sdf

>  <i_m_source_file_index>  (6) 
2

>  <i_lp_mmshare_version>  (6) 
48012

>  <i_f3d_flags>  (6) 
0

>  <s_epik_input>  (6) 
QzEyM1tDQF00NVtDQEhdKE81KVtDQEhdKFtDQEBIXTFPMilbQ0BASF02W0NAQEhdKFtDQEBIXShbQ0gyXTYpQzQoW0NIM10pW0NIM10pTjNbQ0gyXWM3W2NIXVtjSF1bY0hdW2NIXVtjSF03

>  <s_epik_cmdline>  (6) 
J2VwaWtfcHl0aG9uJywgJy1waHQnLCAnMi4wJywgJy1waCcsICc3LjAnLCAnLXRuJywgJzgnLCAnLW1hJywgJzIwMCcsICctaW1hZScsICc8aW5maWxlLm1hZT4nLCAnLW9tYWUnLCAnPG91dGZpbGUubWFlPic=

>  <r_epik_Ionization_Penalty>  (6) 
0.709465

>  <r_epik_Ionization_Penalty_Charging>  (6) 
0.709465

>  <r_epik_Ionization_Penalty_Neutral>  (6) 
1.28927e-14

>  <r_epik_State_Penalty>  (6) 
0.732908

>  <r_epik_Charging_Adjusted_Penalty>  (6) 
1.44237

>  <i_epik_Tot_Q>  (6) 
1

>  <i_epik_Tot_abs_Q>  (6) 
1

>  <s_lp_Force_Field>  (6) 
OPLS3e

>  <r_lp_Energy>  (6) 
121.594

>  <b_lp_Chiralities_Consistent>  (6) 
1

>  <s_lp_Variant>  (6) 
0:0-2

>  <s_i_glide_gridfile>  (6) 
pfpi4k_grid

>  <i_i_glide_lignum>  (6) 
2

>  <i_i_glide_rotatable_bonds>  (6) 
2

>  <r_i_docking_score>  (6) 
-3.53479

>  <r_i_glide_ligand_efficiency>  (6) 
-0.160672

>  <r_i_glide_ligand_efficiency_sa>  (6) 
-0.450211

>  <r_i_glide_ligand_efficiency_ln>  (6) 
-0.864033

>  <r_i_glide_gscore>  (6) 
-3.53479

>  <r_i_glide_lipo>  (6) 
-0.77405

>  <r_i_glide_hbond>  (6) 
0

>  <r_i_glide_metal>  (6) 
-0

>  <r_i_glide_rewards>  (6) 
-1.43983

>  <r_i_glide_evdw>  (6) 
-19.7046

>  <r_i_glide_ecoul>  (6) 
-5.01845

>  <r_i_glide_erotb>  (6) 
0.417087

>  <r_i_glide_esite>  (6) 
0

>  <r_i_glide_emodel>  (6) 
-30.6717

>  <r_i_glide_energy>  (6) 
-24.7231

>  <r_i_glide_einternal>  (6) 
0.985868

>  <r_i_glide_intrahb_reward>  (6) 
-0

>  <i_i_glide_confnum>  (6) 
6

>  <i_i_glide_posenum>  (6) 
39

>  <r_i_glide_eff_state_penalty>  (6) 
0

>  <ligand_id>  (6) 
0

>  <original_smiles>  (6) 
CC1(C)C2CC3C4C5OC5(N(Cc5ccccc5)C32)C12OC42

>  <smiles>  (6) 
[H]c1c([H])c([H])c(C([H])([H])[N+]2([H])C3([H])C4([H])C([H])([H])C3([H])C(C([H])([H])[H])(C([H])([H])[H])C35OC3([H])C4([H])C3([H])OC352)c([H])c1[H]

$$$$
1:0:0
     RDKit          3D

 37 38  0  0  1  0  0  0  0  0999 V2000
    4.9880   -4.5718   -0.9322 C   0  0  0  0  0  0  0  0  0  0  0  0
    4.1976   -3.8784    0.0242 O   0  0  0  0  0  0  0  0  0  0  0  0
    2.8515   -4.3410    0.0912 C   0  0  0  0  0  0  0  0  0  0  0  0
    2.8462   -5.7130    0.8021 C   0  0  0  0  0  0  0  0  0  0  0  0
    1.4390   -6.2702    1.0591 C   0  0  0  0  0  0  0  0  0  0  0  0
    0.6249   -6.2528    0.1330 O   0  0  0  0  0  0  0  0  0  0  0  0
    1.1016   -6.7838    2.2622 N   0  0  0  0  0  0  0  0  0  0  0  0
    1.9680   -6.7409    3.4587 C   0  0  0  0  0  0  0  0  0  0  0  0
    2.1399   -8.1528    4.0310 C   0  0  0  0  0  0  0  0  0  0  0  0
    0.7889   -8.8042    4.3596 C   0  0  0  0  0  0  0  0  0  0  0  0
   -0.1114   -8.7784    3.1101 C   0  0  0  0  0  0  0  0  0  0  0  0
   -0.2315   -7.3705    2.4991 C   0  0  0  0  0  0  0  0  0  0  0  0
    0.9823  -10.2635    4.8225 C   0  0  0  0  0  0  0  0  0  0  0  0
    0.6842  -10.2469    6.2310 N   0  0  0  0  0  0  0  0  0  0  0  0
    0.2094   -9.1023    6.6864 C   0  0  0  0  0  0  0  0  0  0  0  0
   -0.1240   -8.8572    7.8494 O   0  0  0  0  0  0  0  0  0  0  0  0
    0.1302   -8.0889    5.5704 C   0  0  0  0  0  0  0  0  0  0  0  0
    5.9994   -4.1739   -0.9347 H   0  0  0  0  0  0  0  0  0  0  0  0
    4.5634   -4.4441   -1.9258 H   0  0  0  0  0  0  0  0  0  0  0  0
    5.0779   -5.6397   -0.7312 H   0  0  0  0  0  0  0  0  0  0  0  0
    2.3008   -3.6297    0.7140 H   0  0  0  0  0  0  0  0  0  0  0  0
    2.3774   -4.3502   -0.8922 H   0  0  0  0  0  0  0  0  0  0  0  0
    3.3367   -6.4859    0.2077 H   0  0  0  0  0  0  0  0  0  0  0  0
    3.4520   -5.5422    1.6884 H   0  0  0  0  0  0  0  0  0  0  0  0
    2.9875   -6.4016    3.3262 H   0  0  0  0  0  0  0  0  0  0  0  0
    1.4994   -6.0596    4.1721 H   0  0  0  0  0  0  0  0  0  0  0  0
    2.6884   -8.7660    3.3145 H   0  0  0  0  0  0  0  0  0  0  0  0
    2.7661   -8.0993    4.9206 H   0  0  0  0  0  0  0  0  0  0  0  0
    0.2894   -9.4555    2.3553 H   0  0  0  0  0  0  0  0  0  0  0  0
   -1.1031   -9.1626    3.3698 H   0  0  0  0  0  0  0  0  0  0  0  0
   -0.7812   -6.7200    3.1764 H   0  0  0  0  0  0  0  0  0  0  0  0
   -0.8616   -7.4708    1.6083 H   0  0  0  0  0  0  0  0  0  0  0  0
    0.2922  -10.9494    4.3206 H   0  0  0  0  0  0  0  0  0  0  0  0
    1.9946  -10.6307    4.6416 H   0  0  0  0  0  0  0  0  0  0  0  0
    0.8464  -11.0942    6.7996 H   0  0  0  0  0  0  0  0  0  0  0  0
    0.6546   -7.1871    5.8793 H   0  0  0  0  0  0  0  0  0  0  0  0
   -0.9053   -7.8217    5.3733 H   0  0  0  0  0  0  0  0  0  0  0  0
  1  2  1  0
  1 18  1  0
  1 19  1  0
  1 20  1  0
  2  3  1  0
  3  4  1  0
  3 21  1  0
  3 22  1  0
  4  5  1  0
  4 23  1  0
  4 24  1  0
  5  6  2  0
  5  7  1  0
  7 12  1  0
  7  8  1  0
  8  9  1  0
  8 25  1  0
  8 26  1  0
  9 10  1  0
  9 27  1  0
  9 28  1  0
 10 17  1  0
 10 11  1  0
 10 13  1  0
 11 12  1  0
 11 29  1  0
 11 30  1  0
 12 31  1  0
 12 32  1  0
 13 14  1  0
 13 33  1  0
 13 34  1  0
 14 15  1  0
 14 35  1  0
 15 16  2  0
 15 17  1  0
 17 36  1  0
 17 37  1  0
M  END
>  <i_m_ct_stereo_status>  (7) 
1

>  <s_m_source_file>  (7) 
/var/tmp/pbs.5076255.sched01/tmphrtf3o8j/0_qqz9eae.sdf

>  <i_m_source_file_index>  (7) 
3

>  <i_lp_mmshare_version>  (7) 
48012

>  <i_f3d_flags>  (7) 
0

>  <s_epik_input>  (7) 
W0NIM11PW0NIMl1bQ0gyXUMoPU8pTihbQ0gyXVtDSDJdMSlbQ0gyXVtDSDJdQzEyW0NIMl1bTkhdQyg9TylbQ0gyXTI=

>  <s_epik_cmdline>  (7) 
J2VwaWtfcHl0aG9uJywgJy1waHQnLCAnMi4wJywgJy1waCcsICc3LjAnLCAnLXRuJywgJzgnLCAnLW1hJywgJzIwMCcsICctaW1hZScsICc8aW5maWxlLm1hZT4nLCAnLW9tYWUnLCAnPG91dGZpbGUubWFlPic=

>  <r_lp_tautomer_probability>  (7) 
1

>  <r_epik_Ionization_Penalty>  (7) 
7.72707e-08

>  <r_epik_Ionization_Penalty_Charging>  (7) 
0

>  <r_epik_Ionization_Penalty_Neutral>  (7) 
7.72707e-08

>  <r_epik_State_Penalty>  (7) 
-0

>  <r_epik_Charging_Adjusted_Penalty>  (7) 
0

>  <i_epik_Tot_Q>  (7) 
0

>  <i_epik_Tot_abs_Q>  (7) 
0

>  <s_lp_Force_Field>  (7) 
OPLS3e

>  <r_lp_Energy>  (7) 
3.45335

>  <b_lp_Chiralities_Consistent>  (7) 
1

>  <s_lp_Variant>  (7) 
1:0-1

>  <s_i_glide_gridfile>  (7) 
pfpi4k_grid

>  <i_i_glide_lignum>  (7) 
3

>  <i_i_glide_rotatable_bonds>  (7) 
4

>  <r_i_docking_score>  (7) 
-4.09322

>  <r_i_glide_ligand_efficiency>  (7) 
-0.240777

>  <r_i_glide_ligand_efficiency_sa>  (7) 
-0.619106

>  <r_i_glide_ligand_efficiency_ln>  (7) 
-1.06783

>  <r_i_glide_gscore>  (7) 
-4.09322

>  <r_i_glide_lipo>  (7) 
0

>  <r_i_glide_hbond>  (7) 
-0.525562

>  <r_i_glide_metal>  (7) 
-0

>  <r_i_glide_rewards>  (7) 
-1.77069

>  <r_i_glide_evdw>  (7) 
-15.5415

>  <r_i_glide_ecoul>  (7) 
-8.96255

>  <r_i_glide_erotb>  (7) 
0.599217

>  <r_i_glide_esite>  (7) 
-0.274724

>  <r_i_glide_emodel>  (7) 
-29.6629

>  <r_i_glide_energy>  (7) 
-24.504

>  <r_i_glide_einternal>  (7) 
3.12669

>  <r_i_glide_intrahb_reward>  (7) 
-0

>  <i_i_glide_confnum>  (7) 
1

>  <i_i_glide_posenum>  (7) 
28

>  <r_i_glide_eff_state_penalty>  (7) 
0

>  <ligand_id>  (7) 
1

>  <original_smiles>  (7) 
COCCC(=O)N1CCC2(CC1)CNC(=O)C2

>  <smiles>  (7) 
[H]N1C(=O)C([H])([H])C2(C1([H])[H])C([H])([H])C([H])([H])N(C(=O)C([H])([H])C([H])([H])OC([H])([H])[H])C([H])([H])C2([H])[H]

$$$$
1:0:1
     RDKit          3D

 37 38  0  0  1  0  0  0  0  0999 V2000
    1.9954   -3.8364   -1.1724 C   0  0  0  0  0  0  0  0  0  0  0  0
    1.8156   -4.9807   -0.3573 O   0  0  0  0  0  0  0  0  0  0  0  0
    2.7698   -5.0735    0.6879 C   0  0  0  0  0  0  0  0  0  0  0  0
    2.5581   -6.3734    1.4815 C   0  0  0  0  0  0  0  0  0  0  0  0
    1.1367   -6.5244    2.0567 C   0  0  0  0  0  0  0  0  0  0  0  0
    0.1744   -6.4061    1.2891 O   0  0  0  0  0  0  0  0  0  0  0  0
    0.9407   -6.7553    3.3731 N   0  0  0  0  0  0  0  0  0  0  0  0
    2.0158   -6.7243    4.3771 C   0  0  0  0  0  0  0  0  0  0  0  0
    2.0212   -8.0452    5.1621 C   0  0  0  0  0  0  0  0  0  0  0  0
    0.6553   -8.3262    5.8180 C   0  0  0  0  0  0  0  0  0  0  0  0
   -0.4479   -8.2855    4.7410 C   0  0  0  0  0  0  0  0  0  0  0  0
   -0.4088   -6.9865    3.9225 C   0  0  0  0  0  0  0  0  0  0  0  0
    0.6535   -9.7187    6.4933 C   0  0  0  0  0  0  0  0  0  0  0  0
    0.6355   -9.4584    7.9160 N   0  0  0  0  0  0  0  0  0  0  0  0
    0.4719   -8.1693    8.2214 C   0  0  0  0  0  0  0  0  0  0  0  0
    0.3878   -7.6942    9.3586 O   0  0  0  0  0  0  0  0  0  0  0  0
    0.3952   -7.3214    6.9602 C   0  0  0  0  0  0  0  0  0  0  0  0
    1.2061   -3.8159   -1.9259 H   0  0  0  0  0  0  0  0  0  0  0  0
    2.9620   -3.8498   -1.6802 H   0  0  0  0  0  0  0  0  0  0  0  0
    1.9302   -2.9292   -0.5720 H   0  0  0  0  0  0  0  0  0  0  0  0
    3.7684   -5.0775    0.2539 H   0  0  0  0  0  0  0  0  0  0  0  0
    2.7039   -4.2082    1.3485 H   0  0  0  0  0  0  0  0  0  0  0  0
    2.7215   -7.2418    0.8450 H   0  0  0  0  0  0  0  0  0  0  0  0
    3.3506   -6.4014    2.1983 H   0  0  0  0  0  0  0  0  0  0  0  0
    3.0177   -6.5989    4.0109 H   0  0  0  0  0  0  0  0  0  0  0  0
    1.8160   -5.8749    5.0368 H   0  0  0  0  0  0  0  0  0  0  0  0
    2.2841   -8.8629    4.4889 H   0  0  0  0  0  0  0  0  0  0  0  0
    2.7984   -8.0185    5.9236 H   0  0  0  0  0  0  0  0  0  0  0  0
   -0.3385   -9.1365    4.0597 H   0  0  0  0  0  0  0  0  0  0  0  0
   -1.4285   -8.4097    5.2053 H   0  0  0  0  0  0  0  0  0  0  0  0
   -0.6825   -6.1364    4.5389 H   0  0  0  0  0  0  0  0  0  0  0  0
   -1.2013   -7.0655    3.1704 H   0  0  0  0  0  0  0  0  0  0  0  0
   -0.2295  -10.3065    6.2368 H   0  0  0  0  0  0  0  0  0  0  0  0
    1.5224  -10.3212    6.2211 H   0  0  0  0  0  0  0  0  0  0  0  0
    0.7348  -10.2084    8.5765 H   0  0  0  0  0  0  0  0  0  0  0  0
    1.1443   -6.5334    7.0286 H   0  0  0  0  0  0  0  0  0  0  0  0
   -0.5757   -6.8292    6.9007 H   0  0  0  0  0  0  0  0  0  0  0  0
  1  2  1  0
  1 18  1  0
  1 19  1  0
  1 20  1  0
  2  3  1  0
  3  4  1  0
  3 21  1  0
  3 22  1  0
  4  5  1  0
  4 23  1  0
  4 24  1  0
  5  6  2  0
  5  7  1  0
  7 12  1  0
  7  8  1  0
  8  9  1  0
  8 25  1  0
  8 26  1  0
  9 10  1  0
  9 27  1  0
  9 28  1  0
 10 17  1  0
 10 11  1  0
 10 13  1  0
 11 12  1  0
 11 29  1  0
 11 30  1  0
 12 31  1  0
 12 32  1  0
 13 14  1  0
 13 33  1  0
 13 34  1  0
 14 15  1  0
 14 35  1  0
 15 16  2  0
 15 17  1  0
 17 36  1  0
 17 37  1  0
M  END
>  <i_m_ct_stereo_status>  (8) 
1

>  <s_m_source_file>  (8) 
/var/tmp/pbs.5076255.sched01/tmphrtf3o8j/0_qqz9eae.sdf

>  <i_m_source_file_index>  (8) 
3

>  <i_lp_mmshare_version>  (8) 
48012

>  <i_f3d_flags>  (8) 
0

>  <s_epik_input>  (8) 
W0NIM11PW0NIMl1bQ0gyXUMoPU8pTihbQ0gyXVtDSDJdMSlbQ0gyXVtDSDJdQzEyW0NIMl1bTkhdQyg9TylbQ0gyXTI=

>  <s_epik_cmdline>  (8) 
J2VwaWtfcHl0aG9uJywgJy1waHQnLCAnMi4wJywgJy1waCcsICc3LjAnLCAnLXRuJywgJzgnLCAnLW1hJywgJzIwMCcsICctaW1hZScsICc8aW5maWxlLm1hZT4nLCAnLW9tYWUnLCAnPG91dGZpbGUubWFlPic=

>  <r_lp_tautomer_probability>  (8) 
1

>  <r_epik_Ionization_Penalty>  (8) 
7.72707e-08

>  <r_epik_Ionization_Penalty_Charging>  (8) 
0

>  <r_epik_Ionization_Penalty_Neutral>  (8) 
7.72707e-08

>  <r_epik_State_Penalty>  (8) 
-0

>  <r_epik_Charging_Adjusted_Penalty>  (8) 
0

>  <i_epik_Tot_Q>  (8) 
0

>  <i_epik_Tot_abs_Q>  (8) 
0

>  <s_lp_Force_Field>  (8) 
OPLS3e

>  <r_lp_Energy>  (8) 
3.45335

>  <b_lp_Chiralities_Consistent>  (8) 
1

>  <s_lp_Variant>  (8) 
1:0-1

>  <s_i_glide_gridfile>  (8) 
pfpi4k_grid

>  <i_i_glide_lignum>  (8) 
3

>  <i_i_glide_rotatable_bonds>  (8) 
4

>  <r_i_docking_score>  (8) 
-3.687

>  <r_i_glide_ligand_efficiency>  (8) 
-0.216882

>  <r_i_glide_ligand_efficiency_sa>  (8) 
-0.557665

>  <r_i_glide_ligand_efficiency_ln>  (8) 
-0.961855

>  <r_i_glide_gscore>  (8) 
-3.687

>  <r_i_glide_lipo>  (8) 
0

>  <r_i_glide_hbond>  (8) 
-0.369763

>  <r_i_glide_metal>  (8) 
-0

>  <r_i_glide_rewards>  (8) 
-1.77069

>  <r_i_glide_evdw>  (8) 
-15.0575

>  <r_i_glide_ecoul>  (8) 
-7.89335

>  <r_i_glide_erotb>  (8) 
0.599217

>  <r_i_glide_esite>  (8) 
-0.208882

>  <r_i_glide_emodel>  (8) 
-28.0051

>  <r_i_glide_energy>  (8) 
-22.9509

>  <r_i_glide_einternal>  (8) 
1.68889

>  <r_i_glide_intrahb_reward>  (8) 
-0

>  <i_i_glide_confnum>  (8) 
1

>  <i_i_glide_posenum>  (8) 
14

>  <r_i_glide_eff_state_penalty>  (8) 
0

>  <ligand_id>  (8) 
1

>  <original_smiles>  (8) 
COCCC(=O)N1CCC2(CC1)CNC(=O)C2

>  <smiles>  (8) 
[H]N1C(=O)C([H])([H])C2(C1([H])[H])C([H])([H])C([H])([H])N(C(=O)C([H])([H])C([H])([H])OC([H])([H])[H])C([H])([H])C2([H])[H]

$$$$
1:0:2
     RDKit          3D

 37 38  0  0  1  0  0  0  0  0999 V2000
    2.8426   -3.3160   -1.0302 C   0  0  0  0  0  0  0  0  0  0  0  0
    2.6142   -4.0154    0.1804 O   0  0  0  0  0  0  0  0  0  0  0  0
    2.8817   -5.4014    0.0571 C   0  0  0  0  0  0  0  0  0  0  0  0
    2.7519   -6.0612    1.4330 C   0  0  0  0  0  0  0  0  0  0  0  0
    1.3090   -6.3562    1.8598 C   0  0  0  0  0  0  0  0  0  0  0  0
    0.4017   -6.2668    1.0475 O   0  0  0  0  0  0  0  0  0  0  0  0
    1.0848   -6.7259    3.1538 N   0  0  0  0  0  0  0  0  0  0  0  0
    2.1203   -6.7628    4.1980 C   0  0  0  0  0  0  0  0  0  0  0  0
    2.1159   -8.1294    4.8936 C   0  0  0  0  0  0  0  0  0  0  0  0
    0.7249   -8.4738    5.4797 C   0  0  0  0  0  0  0  0  0  0  0  0
   -0.3290   -8.3583    4.3508 C   0  0  0  0  0  0  0  0  0  0  0  0
   -0.2741   -7.0017    3.6359 C   0  0  0  0  0  0  0  0  0  0  0  0
    0.7186   -9.9105    6.0574 C   0  0  0  0  0  0  0  0  0  0  0  0
    0.6238   -9.7451    7.4859 N   0  0  0  0  0  0  0  0  0  0  0  0
    0.4385   -8.4979    7.8878 C   0  0  0  0  0  0  0  0  0  0  0  0
    0.2993   -8.1152    9.0331 O   0  0  0  0  0  0  0  0  0  0  0  0
    0.4087   -7.5616    6.7055 C   0  0  0  0  0  0  0  0  0  0  0  0
    2.6161   -2.2612   -0.8842 H   0  0  0  0  0  0  0  0  0  0  0  0
    2.2151   -3.6960   -1.8376 H   0  0  0  0  0  0  0  0  0  0  0  0
    3.8880   -3.3934   -1.3313 H   0  0  0  0  0  0  0  0  0  0  0  0
    2.1922   -5.8347   -0.6670 H   0  0  0  0  0  0  0  0  0  0  0  0
    3.9020   -5.5492   -0.3080 H   0  0  0  0  0  0  0  0  0  0  0  0
    3.2929   -7.0053    1.4400 H   0  0  0  0  0  0  0  0  0  0  0  0
    3.2505   -5.3819    2.1227 H   0  0  0  0  0  0  0  0  0  0  0  0
    3.1508   -6.6396    3.8735 H   0  0  0  0  0  0  0  0  0  0  0  0
    1.9313   -5.9517    4.9019 H   0  0  0  0  0  0  0  0  0  0  0  0
    2.4247   -8.8938    4.1735 H   0  0  0  0  0  0  0  0  0  0  0  0
    2.8685   -8.1437    5.6866 H   0  0  0  0  0  0  0  0  0  0  0  0
   -0.1726   -9.1514    3.6143 H   0  0  0  0  0  0  0  0  0  0  0  0
   -1.3249   -8.5250    4.7633 H   0  0  0  0  0  0  0  0  0  0  0  0
   -0.5671   -6.1969    4.3100 H   0  0  0  0  0  0  0  0  0  0  0  0
   -1.0428   -7.0400    2.8603 H   0  0  0  0  0  0  0  0  0  0  0  0
   -0.1462  -10.4885    5.7235 H   0  0  0  0  0  0  0  0  0  0  0  0
    1.6116  -10.4853    5.7907 H   0  0  0  0  0  0  0  0  0  0  0  0
    0.7497  -10.5718    8.0720 H   0  0  0  0  0  0  0  0  0  0  0  0
    1.1575   -6.7823    6.8568 H   0  0  0  0  0  0  0  0  0  0  0  0
   -0.5596   -7.0744    6.6142 H   0  0  0  0  0  0  0  0  0  0  0  0
  1  2  1  0
  1 18  1  0
  1 19  1  0
  1 20  1  0
  2  3  1  0
  3  4  1  0
  3 21  1  0
  3 22  1  0
  4  5  1  0
  4 23  1  0
  4 24  1  0
  5  6  2  0
  5  7  1  0
  7 12  1  0
  7  8  1  0
  8  9  1  0
  8 25  1  0
  8 26  1  0
  9 10  1  0
  9 27  1  0
  9 28  1  0
 10 17  1  0
 10 11  1  0
 10 13  1  0
 11 12  1  0
 11 29  1  0
 11 30  1  0
 12 31  1  0
 12 32  1  0
 13 14  1  0
 13 33  1  0
 13 34  1  0
 14 15  1  0
 14 35  1  0
 15 16  2  0
 15 17  1  0
 17 36  1  0
 17 37  1  0
M  END
>  <i_m_ct_stereo_status>  (9) 
1

>  <s_m_source_file>  (9) 
/var/tmp/pbs.5076255.sched01/tmphrtf3o8j/0_qqz9eae.sdf

>  <i_m_source_file_index>  (9) 
3

>  <i_lp_mmshare_version>  (9) 
48012

>  <i_f3d_flags>  (9) 
0

>  <s_epik_input>  (9) 
W0NIM11PW0NIMl1bQ0gyXUMoPU8pTihbQ0gyXVtDSDJdMSlbQ0gyXVtDSDJdQzEyW0NIMl1bTkhdQyg9TylbQ0gyXTI=

>  <s_epik_cmdline>  (9) 
J2VwaWtfcHl0aG9uJywgJy1waHQnLCAnMi4wJywgJy1waCcsICc3LjAnLCAnLXRuJywgJzgnLCAnLW1hJywgJzIwMCcsICctaW1hZScsICc8aW5maWxlLm1hZT4nLCAnLW9tYWUnLCAnPG91dGZpbGUubWFlPic=

>  <r_lp_tautomer_probability>  (9) 
1

>  <r_epik_Ionization_Penalty>  (9) 
7.72707e-08

>  <r_epik_Ionization_Penalty_Charging>  (9) 
0

>  <r_epik_Ionization_Penalty_Neutral>  (9) 
7.72707e-08

>  <r_epik_State_Penalty>  (9) 
-0

>  <r_epik_Charging_Adjusted_Penalty>  (9) 
0

>  <i_epik_Tot_Q>  (9) 
0

>  <i_epik_Tot_abs_Q>  (9) 
0

>  <s_lp_Force_Field>  (9) 
OPLS3e

>  <r_lp_Energy>  (9) 
3.45335

>  <b_lp_Chiralities_Consistent>  (9) 
1

>  <s_lp_Variant>  (9) 
1:0-1

>  <s_i_glide_gridfile>  (9) 
pfpi4k_grid

>  <i_i_glide_lignum>  (9) 
3

>  <i_i_glide_rotatable_bonds>  (9) 
4

>  <r_i_docking_score>  (9) 
-3.63689

>  <r_i_glide_ligand_efficiency>  (9) 
-0.213935

>  <r_i_glide_ligand_efficiency_sa>  (9) 
-0.550087

>  <r_i_glide_ligand_efficiency_ln>  (9) 
-0.948784

>  <r_i_glide_gscore>  (9) 
-3.63689

>  <r_i_glide_lipo>  (9) 
-0.0430276

>  <r_i_glide_hbond>  (9) 
-0.273271

>  <r_i_glide_metal>  (9) 
-0

>  <r_i_glide_rewards>  (9) 
-1.77069

>  <r_i_glide_evdw>  (9) 
-12.7594

>  <r_i_glide_ecoul>  (9) 
-8.56844

>  <r_i_glide_erotb>  (9) 
0.599217

>  <r_i_glide_esite>  (9) 
-0.225885

>  <r_i_glide_emodel>  (9) 
-27.178

>  <r_i_glide_energy>  (9) 
-21.3278

>  <r_i_glide_einternal>  (9) 
0.707618

>  <r_i_glide_intrahb_reward>  (9) 
-0

>  <i_i_glide_confnum>  (9) 
1

>  <i_i_glide_posenum>  (9) 
1

>  <r_i_glide_eff_state_penalty>  (9) 
0

>  <ligand_id>  (9) 
1

>  <original_smiles>  (9) 
COCCC(=O)N1CCC2(CC1)CNC(=O)C2

>  <smiles>  (9) 
[H]N1C(=O)C([H])([H])C2(C1([H])[H])C([H])([H])C([H])([H])N(C(=O)C([H])([H])C([H])([H])OC([H])([H])[H])C([H])([H])C2([H])[H]

$$$$
2:0:0
     RDKit          3D

 53 58  0  0  1  0  0  0  0  0999 V2000
    6.2998   -1.7971    0.5412 C   0  0  0  0  0  0  0  0  0  0  0  0
    4.8049   -2.0443    0.2203 C   0  0  1  0  0  0  0  0  0  0  0  0
    4.3548   -1.0600   -0.9018 C   0  0  0  0  0  0  0  0  0  0  0  0
    4.9456   -1.3311   -2.2878 C   0  0  0  0  0  0  0  0  0  0  0  0
    4.6224   -2.7461   -2.7121 C   0  0  0  0  0  0  0  0  0  0  0  0
    4.1340   -2.9995   -3.8126 O   0  0  0  0  0  0  0  0  0  0  0  0
    5.0559   -3.8274   -1.7376 C   0  0  0  0  0  0  0  0  0  0  0  0
    4.7272   -3.5028   -0.2764 C   0  0  0  0  0  0  0  0  0  0  0  0
    4.5647   -4.5147    0.5911 C   0  0  0  0  0  0  0  0  0  0  0  0
    4.4738   -4.3030    2.0794 C   0  0  0  0  0  0  0  0  0  0  0  0
    3.6410   -3.0641    2.4369 C   0  0  1  0  0  0  0  0  0  0  0  0
    3.7730   -2.6884    3.9146 C   0  0  2  0  0  0  0  0  0  0  0  0
    4.2301   -3.5440    5.0809 C   0  0  0  0  0  0  0  0  0  0  0  0
    4.3950   -2.4251    6.1515 C   0  0  0  0  0  0  0  0  0  0  0  0
    3.5823   -1.1964    5.6414 C   0  0  1  0  0  0  0  0  0  0  0  0
    4.3444   -0.1161    4.8050 C   0  0  0  0  0  0  0  0  0  0  0  0
    3.4995    0.0398    3.5198 C   0  0  2  0  0  0  0  0  0  0  0  0
    4.1732   -0.3468    2.1744 C   0  0  0  0  0  0  0  0  0  0  0  0
    3.9004   -1.7892    1.5034 C   0  0  1  0  0  0  0  0  0  0  0  0
    2.2839    0.8535    3.7889 C   0  0  0  0  0  0  0  0  0  0  0  0
    2.1695   -0.6528    3.6896 C   0  0  1  0  0  0  0  0  0  0  0  0
    1.0665   -1.0130    2.7102 C   0  0  0  0  0  0  0  0  0  0  0  0
    2.6739   -1.7844    4.5681 C   0  0  1  0  0  0  0  0  0  0  0  0
    6.5376   -0.7385    0.6519 H   0  0  0  0  0  0  0  0  0  0  0  0
    6.9442   -2.1846   -0.2497 H   0  0  0  0  0  0  0  0  0  0  0  0
    6.5868   -2.3071    1.4623 H   0  0  0  0  0  0  0  0  0  0  0  0
    3.2682   -1.0711   -1.0109 H   0  0  0  0  0  0  0  0  0  0  0  0
    4.6105   -0.0360   -0.6181 H   0  0  0  0  0  0  0  0  0  0  0  0
    4.5703   -0.6205   -3.0240 H   0  0  0  0  0  0  0  0  0  0  0  0
    6.0274   -1.2394   -2.2672 H   0  0  0  0  0  0  0  0  0  0  0  0
    4.6176   -4.7810   -2.0215 H   0  0  0  0  0  0  0  0  0  0  0  0
    6.1346   -3.9215   -1.8351 H   0  0  0  0  0  0  0  0  0  0  0  0
    4.6225   -5.5380    0.2528 H   0  0  0  0  0  0  0  0  0  0  0  0
    4.0241   -5.1908    2.5293 H   0  0  0  0  0  0  0  0  0  0  0  0
    5.4913   -4.2207    2.4679 H   0  0  0  0  0  0  0  0  0  0  0  0
    2.6213   -3.4061    2.2800 H   0  0  0  0  0  0  0  0  0  0  0  0
    4.7350   -2.2057    3.7727 H   0  0  0  0  0  0  0  0  0  0  0  0
    3.4628   -4.2615    5.3714 H   0  0  0  0  0  0  0  0  0  0  0  0
    5.1663   -4.0736    4.9012 H   0  0  0  0  0  0  0  0  0  0  0  0
    4.0262   -2.7779    7.1172 H   0  0  0  0  0  0  0  0  0  0  0  0
    5.4452   -2.1577    6.2914 H   0  0  0  0  0  0  0  0  0  0  0  0
    3.0060   -0.7243    6.4359 H   0  0  0  0  0  0  0  0  0  0  0  0
    4.3765    0.8265    5.3557 H   0  0  0  0  0  0  0  0  0  0  0  0
    5.3777   -0.3713    4.5776 H   0  0  0  0  0  0  0  0  0  0  0  0
    3.8646    0.4201    1.4626 H   0  0  0  0  0  0  0  0  0  0  0  0
    5.2378   -0.1934    2.3231 H   0  0  0  0  0  0  0  0  0  0  0  0
    2.9169   -1.6798    1.0556 H   0  0  0  0  0  0  0  0  0  0  0  0
    2.1440    1.2889    4.7765 H   0  0  0  0  0  0  0  0  0  0  0  0
    1.9084    1.4674    2.9720 H   0  0  0  0  0  0  0  0  0  0  0  0
    1.0449   -2.0703    2.4782 H   0  0  0  0  0  0  0  0  0  0  0  0
    1.1747   -0.4439    1.7831 H   0  0  0  0  0  0  0  0  0  0  0  0
    0.1052   -0.7554    3.1477 H   0  0  0  0  0  0  0  0  0  0  0  0
    1.8436   -2.3616    4.9738 H   0  0  0  0  0  0  0  0  0  0  0  0
  2  1  1  1
  1 24  1  0
  1 25  1  0
  1 26  1  0
  2  8  1  0
  2 19  1  0
  2  3  1  0
  3  4  1  0
  3 27  1  0
  3 28  1  0
  4  5  1  0
  4 29  1  0
  4 30  1  0
  5  6  2  0
  5  7  1  0
  7  8  1  0
  7 31  1  0
  7 32  1  0
  8  9  2  0
  9 10  1  0
  9 33  1  0
 10 11  1  0
 10 34  1  0
 10 35  1  0
 11 19  1  0
 11 12  1  0
 11 36  1  1
 12 23  1  0
 12 13  1  0
 12 37  1  6
 13 14  1  0
 13 38  1  0
 13 39  1  0
 14 15  1  0
 14 40  1  0
 14 41  1  0
 15 23  1  0
 15 16  1  0
 15 42  1  1
 17 16  1  1
 16 43  1  0
 16 44  1  0
 17 21  1  0
 17 18  1  0
 17 20  1  0
 18 19  1  0
 18 45  1  0
 18 46  1  0
 19 47  1  6
 20 21  1  0
 20 48  1  0
 20 49  1  0
 21 22  1  6
 21 23  1  0
 22 50  1  0
 22 51  1  0
 22 52  1  0
 23 53  1  1
M  END
>  <i_m_ct_stereo_status>  (10) 
1

>  <s_m_source_file>  (10) 
/var/tmp/pbs.5076255.sched01/tmphrtf3o8j/0_qqz9eae.sdf

>  <i_m_source_file_index>  (10) 
4

>  <i_lp_mmshare_version>  (10) 
48012

>  <i_f3d_flags>  (10) 
0

>  <s_epik_input>  (10) 
W0NIMl0xW0NIMl1DKD1PKVtDSDJdQyg9W0NIXVtDSDJdMilbQ0BdMShbQ0gzXSlbQ0BIXShbQ0gyXTMpW0NAQEhdMltDQEBIXShbQ0BASF00W0NAQF0oW0NAXTM1NikoW0NIMl02KVtDSDNdKVtDSDJdW0NIMl1bQ0BIXTRbQ0gyXTU=

>  <s_epik_cmdline>  (10) 
J2VwaWtfcHl0aG9uJywgJy1waHQnLCAnMi4wJywgJy1waCcsICc3LjAnLCAnLXRuJywgJzgnLCAnLW1hJywgJzIwMCcsICctaW1hZScsICc8aW5maWxlLm1hZT4nLCAnLW9tYWUnLCAnPG91dGZpbGUubWFlPic=

>  <r_lp_tautomer_probability>  (10) 
1

>  <r_epik_Ionization_Penalty>  (10) 
1.65763e-13

>  <r_epik_Ionization_Penalty_Charging>  (10) 
0

>  <r_epik_Ionization_Penalty_Neutral>  (10) 
1.65763e-13

>  <r_epik_State_Penalty>  (10) 
-0

>  <r_epik_Charging_Adjusted_Penalty>  (10) 
0

>  <i_epik_Tot_Q>  (10) 
0

>  <i_epik_Tot_abs_Q>  (10) 
0

>  <s_lp_Force_Field>  (10) 
OPLS3e

>  <r_lp_Energy>  (10) 
110.722

>  <b_lp_Chiralities_Consistent>  (10) 
1

>  <s_lp_Variant>  (10) 
2:0-1

>  <s_i_glide_gridfile>  (10) 
pfpi4k_grid

>  <i_i_glide_lignum>  (10) 
4

>  <i_i_glide_rotatable_bonds>  (10) 
0

>  <r_i_docking_score>  (10) 
-3.22729

>  <r_i_glide_ligand_efficiency>  (10) 
-0.140317

>  <r_i_glide_ligand_efficiency_sa>  (10) 
-0.399043

>  <r_i_glide_ligand_efficiency_ln>  (10) 
-0.780389

>  <r_i_glide_gscore>  (10) 
-3.22729

>  <r_i_glide_lipo>  (10) 
-0.26453

>  <r_i_glide_hbond>  (10) 
-0.027623

>  <r_i_glide_metal>  (10) 
-0

>  <r_i_glide_rewards>  (10) 
-1.44231

>  <r_i_glide_evdw>  (10) 
-24.8156

>  <r_i_glide_ecoul>  (10) 
-1.68033

>  <r_i_glide_erotb>  (10) 
0

>  <r_i_glide_esite>  (10) 
0

>  <r_i_glide_emodel>  (10) 
-31.5182

>  <r_i_glide_energy>  (10) 
-26.496

>  <r_i_glide_einternal>  (10) 
0

>  <r_i_glide_intrahb_reward>  (10) 
-0

>  <i_i_glide_confnum>  (10) 
1

>  <i_i_glide_posenum>  (10) 
1

>  <r_i_glide_eff_state_penalty>  (10) 
0

>  <ligand_id>  (10) 
2

>  <original_smiles>  (10) 
CC12CCC(=O)CC1=CCC1C3CCC4CC5(CC12)CC5(C)C43

>  <smiles>  (10) 
[H]C1=C2C([H])([H])C(=O)C([H])([H])C([H])([H])C2(C([H])([H])[H])C2([H])C([H])([H])C34C([H])([H])C5([H])C([H])([H])C([H])([H])C([H])(C2([H])C1([H])[H])C5([H])C3(C([H])([H])[H])C4([H])[H]

$$$$
2:0:1
     RDKit          3D

 53 58  0  0  1  0  0  0  0  0999 V2000
    5.7215   -3.1463    0.3643 C   0  0  0  0  0  0  0  0  0  0  0  0
    4.3833   -2.3791    0.2656 C   0  0  1  0  0  0  0  0  0  0  0  0
    4.6484   -1.0001   -0.4153 C   0  0  0  0  0  0  0  0  0  0  0  0
    4.9955   -1.0655   -1.9059 C   0  0  0  0  0  0  0  0  0  0  0  0
    3.9022   -1.7930   -2.6568 C   0  0  0  0  0  0  0  0  0  0  0  0
    3.3993   -1.3368   -3.6795 O   0  0  0  0  0  0  0  0  0  0  0  0
    3.5705   -3.1797   -2.1371 C   0  0  0  0  0  0  0  0  0  0  0  0
    3.4686   -3.2554   -0.6145 C   0  0  0  0  0  0  0  0  0  0  0  0
    2.7190   -4.2278   -0.0646 C   0  0  0  0  0  0  0  0  0  0  0  0
    2.7293   -4.5310    1.4093 C   0  0  0  0  0  0  0  0  0  0  0  0
    2.7772   -3.2509    2.2554 C   0  0  1  0  0  0  0  0  0  0  0  0
    3.0604   -3.5483    3.7288 C   0  0  2  0  0  0  0  0  0  0  0  0
    2.8908   -4.8482    4.4917 C   0  0  0  0  0  0  0  0  0  0  0  0
    3.6534   -4.4682    5.7935 C   0  0  0  0  0  0  0  0  0  0  0  0
    3.7373   -2.9102    5.8215 C   0  0  1  0  0  0  0  0  0  0  0  0
    5.0139   -2.2411    5.2165 C   0  0  0  0  0  0  0  0  0  0  0  0
    4.4645   -1.2063    4.2071 C   0  0  2  0  0  0  0  0  0  0  0  0
    4.8181   -1.4144    2.7101 C   0  0  0  0  0  0  0  0  0  0  0  0
    3.7657   -2.1167    1.7067 C   0  0  1  0  0  0  0  0  0  0  0  0
    3.9550   -0.0025    4.9148 C   0  0  0  0  0  0  0  0  0  0  0  0
    2.9752   -1.0367    4.4028 C   0  0  1  0  0  0  0  0  0  0  0  0
    1.8980   -0.3510    3.5746 C   0  0  0  0  0  0  0  0  0  0  0  0
    2.6908   -2.4748    4.8046 C   0  0  1  0  0  0  0  0  0  0  0  0
    6.5350   -2.5231    0.7346 H   0  0  0  0  0  0  0  0  0  0  0  0
    6.0336   -3.5215   -0.6108 H   0  0  0  0  0  0  0  0  0  0  0  0
    5.6262   -4.0092    1.0249 H   0  0  0  0  0  0  0  0  0  0  0  0
    3.7705   -0.3642   -0.3129 H   0  0  0  0  0  0  0  0  0  0  0  0
    5.4505   -0.4652    0.0980 H   0  0  0  0  0  0  0  0  0  0  0  0
    5.1153   -0.0639   -2.3190 H   0  0  0  0  0  0  0  0  0  0  0  0
    5.9251   -1.6060   -2.0684 H   0  0  0  0  0  0  0  0  0  0  0  0
    2.6512   -3.5356   -2.5996 H   0  0  0  0  0  0  0  0  0  0  0  0
    4.3680   -3.8439   -2.4647 H   0  0  0  0  0  0  0  0  0  0  0  0
    2.1813   -4.9147   -0.6994 H   0  0  0  0  0  0  0  0  0  0  0  0
    1.8310   -5.0993    1.6561 H   0  0  0  0  0  0  0  0  0  0  0  0
    3.5881   -5.1737    1.6112 H   0  0  0  0  0  0  0  0  0  0  0  0
    1.7584   -2.8780    2.1924 H   0  0  0  0  0  0  0  0  0  0  0  0
    4.1263   -3.6781    3.5617 H   0  0  0  0  0  0  0  0  0  0  0  0
    1.8401   -5.0578    4.6918 H   0  0  0  0  0  0  0  0  0  0  0  0
    3.3389   -5.7121    3.9968 H   0  0  0  0  0  0  0  0  0  0  0  0
    3.1230   -4.8569    6.6646 H   0  0  0  0  0  0  0  0  0  0  0  0
    4.6549   -4.9050    5.8123 H   0  0  0  0  0  0  0  0  0  0  0  0
    3.5314   -2.5042    6.8106 H   0  0  0  0  0  0  0  0  0  0  0  0
    5.5823   -1.7397    6.0010 H   0  0  0  0  0  0  0  0  0  0  0  0
    5.7026   -2.9369    4.7411 H   0  0  0  0  0  0  0  0  0  0  0  0
    5.0439   -0.4238    2.3187 H   0  0  0  0  0  0  0  0  0  0  0  0
    5.7644   -1.9499    2.7011 H   0  0  0  0  0  0  0  0  0  0  0  0
    3.0473   -1.3313    1.4961 H   0  0  0  0  0  0  0  0  0  0  0  0
    4.0725    0.0641    5.9948 H   0  0  0  0  0  0  0  0  0  0  0  0
    4.0398    0.9488    4.3952 H   0  0  0  0  0  0  0  0  0  0  0  0
    1.2629   -1.0541    3.0486 H   0  0  0  0  0  0  0  0  0  0  0  0
    2.3491    0.3341    2.8544 H   0  0  0  0  0  0  0  0  0  0  0  0
    1.2571    0.2327    4.2320 H   0  0  0  0  0  0  0  0  0  0  0  0
    1.6668   -2.5804    5.1678 H   0  0  0  0  0  0  0  0  0  0  0  0
  2  1  1  1
  1 24  1  0
  1 25  1  0
  1 26  1  0
  2  8  1  0
  2 19  1  0
  2  3  1  0
  3  4  1  0
  3 27  1  0
  3 28  1  0
  4  5  1  0
  4 29  1  0
  4 30  1  0
  5  6  2  0
  5  7  1  0
  7  8  1  0
  7 31  1  0
  7 32  1  0
  8  9  2  0
  9 10  1  0
  9 33  1  0
 10 11  1  0
 10 34  1  0
 10 35  1  0
 11 19  1  0
 11 12  1  0
 11 36  1  1
 12 23  1  0
 12 13  1  0
 12 37  1  6
 13 14  1  0
 13 38  1  0
 13 39  1  0
 14 15  1  0
 14 40  1  0
 14 41  1  0
 15 23  1  0
 15 16  1  0
 15 42  1  1
 17 16  1  1
 16 43  1  0
 16 44  1  0
 17 21  1  0
 17 18  1  0
 17 20  1  0
 18 19  1  0
 18 45  1  0
 18 46  1  0
 19 47  1  6
 20 21  1  0
 20 48  1  0
 20 49  1  0
 21 22  1  6
 21 23  1  0
 22 50  1  0
 22 51  1  0
 22 52  1  0
 23 53  1  1
M  END
>  <i_m_ct_stereo_status>  (11) 
1

>  <s_m_source_file>  (11) 
/var/tmp/pbs.5076255.sched01/tmphrtf3o8j/0_qqz9eae.sdf

>  <i_m_source_file_index>  (11) 
4

>  <i_lp_mmshare_version>  (11) 
48012

>  <i_f3d_flags>  (11) 
0

>  <s_epik_input>  (11) 
W0NIMl0xW0NIMl1DKD1PKVtDSDJdQyg9W0NIXVtDSDJdMilbQ0BdMShbQ0gzXSlbQ0BIXShbQ0gyXTMpW0NAQEhdMltDQEBIXShbQ0BASF00W0NAQF0oW0NAXTM1NikoW0NIMl02KVtDSDNdKVtDSDJdW0NIMl1bQ0BIXTRbQ0gyXTU=

>  <s_epik_cmdline>  (11) 
J2VwaWtfcHl0aG9uJywgJy1waHQnLCAnMi4wJywgJy1waCcsICc3LjAnLCAnLXRuJywgJzgnLCAnLW1hJywgJzIwMCcsICctaW1hZScsICc8aW5maWxlLm1hZT4nLCAnLW9tYWUnLCAnPG91dGZpbGUubWFlPic=

>  <r_lp_tautomer_probability>  (11) 
1

>  <r_epik_Ionization_Penalty>  (11) 
1.65763e-13

>  <r_epik_Ionization_Penalty_Charging>  (11) 
0

>  <r_epik_Ionization_Penalty_Neutral>  (11) 
1.65763e-13

>  <r_epik_State_Penalty>  (11) 
-0

>  <r_epik_Charging_Adjusted_Penalty>  (11) 
0

>  <i_epik_Tot_Q>  (11) 
0

>  <i_epik_Tot_abs_Q>  (11) 
0

>  <s_lp_Force_Field>  (11) 
OPLS3e

>  <r_lp_Energy>  (11) 
110.722

>  <b_lp_Chiralities_Consistent>  (11) 
1

>  <s_lp_Variant>  (11) 
2:0-1

>  <s_i_glide_gridfile>  (11) 
pfpi4k_grid

>  <i_i_glide_lignum>  (11) 
4

>  <i_i_glide_rotatable_bonds>  (11) 
0

>  <r_i_docking_score>  (11) 
-2.84362

>  <r_i_glide_ligand_efficiency>  (11) 
-0.123636

>  <r_i_glide_ligand_efficiency_sa>  (11) 
-0.351603

>  <r_i_glide_ligand_efficiency_ln>  (11) 
-0.687612

>  <r_i_glide_gscore>  (11) 
-2.84362

>  <r_i_glide_lipo>  (11) 
-0.221643

>  <r_i_glide_hbond>  (11) 
0

>  <r_i_glide_metal>  (11) 
-0

>  <r_i_glide_rewards>  (11) 
-1.29223

>  <r_i_glide_evdw>  (11) 
-23.6401

>  <r_i_glide_ecoul>  (11) 
-0.880162

>  <r_i_glide_erotb>  (11) 
0

>  <r_i_glide_esite>  (11) 
-0.0157178

>  <r_i_glide_emodel>  (11) 
-28.935

>  <r_i_glide_energy>  (11) 
-24.5202

>  <r_i_glide_einternal>  (11) 
0

>  <r_i_glide_intrahb_reward>  (11) 
-0

>  <i_i_glide_confnum>  (11) 
2

>  <i_i_glide_posenum>  (11) 
8

>  <r_i_glide_eff_state_penalty>  (11) 
0

>  <ligand_id>  (11) 
2

>  <original_smiles>  (11) 
CC12CCC(=O)CC1=CCC1C3CCC4CC5(CC12)CC5(C)C43

>  <smiles>  (11) 
[H]C1=C2C([H])([H])C(=O)C([H])([H])C([H])([H])C2(C([H])([H])[H])C2([H])C([H])([H])C34C([H])([H])C5([H])C([H])([H])C([H])([H])C([H])(C2([H])C1([H])[H])C5([H])C3(C([H])([H])[H])C4([H])[H]

$$$$
2:0:2
     RDKit          3D

 53 58  0  0  1  0  0  0  0  0999 V2000
    2.1698   -3.5481    3.2231 C   0  0  0  0  0  0  0  0  0  0  0  0
    3.2655   -4.5882    2.9034 C   0  0  1  0  0  0  0  0  0  0  0  0
    4.1989   -4.7325    4.1494 C   0  0  0  0  0  0  0  0  0  0  0  0
    3.5552   -5.4178    5.3596 C   0  0  0  0  0  0  0  0  0  0  0  0
    3.0369   -6.7805    4.9473 C   0  0  0  0  0  0  0  0  0  0  0  0
    3.3465   -7.7995    5.5530 O   0  0  0  0  0  0  0  0  0  0  0  0
    2.0629   -6.7911    3.7823 C   0  0  0  0  0  0  0  0  0  0  0  0
    2.5076   -5.9063    2.6179 C   0  0  0  0  0  0  0  0  0  0  0  0
    2.0784   -6.2000    1.3856 C   0  0  0  0  0  0  0  0  0  0  0  0
    2.2717   -5.2766    0.2115 C   0  0  0  0  0  0  0  0  0  0  0  0
    3.6450   -4.5985    0.2193 C   0  0  1  0  0  0  0  0  0  0  0  0
    3.7356   -3.4488   -0.7928 C   0  0  2  0  0  0  0  0  0  0  0  0
    2.8729   -3.1606   -2.0092 C   0  0  0  0  0  0  0  0  0  0  0  0
    3.3636   -1.7257   -2.3389 C   0  0  0  0  0  0  0  0  0  0  0  0
    4.7249   -1.5478   -1.5990 C   0  0  1  0  0  0  0  0  0  0  0  0
    4.6954   -0.9274   -0.1617 C   0  0  0  0  0  0  0  0  0  0  0  0
    5.4865   -1.9281    0.7003 C   0  0  2  0  0  0  0  0  0  0  0  0
    4.7275   -2.6225    1.8559 C   0  0  0  0  0  0  0  0  0  0  0  0
    4.1458   -4.1182    1.6627 C   0  0  1  0  0  0  0  0  0  0  0  0
    6.9453   -1.7895    0.4592 C   0  0  0  0  0  0  0  0  0  0  0  0
    6.1933   -2.9268   -0.1820 C   0  0  1  0  0  0  0  0  0  0  0  0
    6.9181   -4.2224    0.1239 C   0  0  0  0  0  0  0  0  0  0  0  0
    5.1454   -2.9763   -1.2722 C   0  0  1  0  0  0  0  0  0  0  0  0
    2.5690   -2.6474    3.6956 H   0  0  0  0  0  0  0  0  0  0  0  0
    1.4235   -3.9565    3.9089 H   0  0  0  0  0  0  0  0  0  0  0  0
    1.6425   -3.2482    2.3147 H   0  0  0  0  0  0  0  0  0  0  0  0
    5.0873   -5.3095    3.8907 H   0  0  0  0  0  0  0  0  0  0  0  0
    4.5658   -3.7546    4.4695 H   0  0  0  0  0  0  0  0  0  0  0  0
    4.2710   -5.5273    6.1745 H   0  0  0  0  0  0  0  0  0  0  0  0
    2.7197   -4.8377    5.7457 H   0  0  0  0  0  0  0  0  0  0  0  0
    1.9245   -7.8156    3.4415 H   0  0  0  0  0  0  0  0  0  0  0  0
    1.1042   -6.4408    4.1570 H   0  0  0  0  0  0  0  0  0  0  0  0
    1.4619   -7.0695    1.2093 H   0  0  0  0  0  0  0  0  0  0  0  0
    2.1243   -5.8455   -0.7019 H   0  0  0  0  0  0  0  0  0  0  0  0
    1.4900   -4.5304    0.2222 H   0  0  0  0  0  0  0  0  0  0  0  0
    4.3012   -5.3896   -0.1357 H   0  0  0  0  0  0  0  0  0  0  0  0
    3.2060   -2.7501   -0.1483 H   0  0  0  0  0  0  0  0  0  0  0  0
    3.1001   -3.8537   -2.8226 H   0  0  0  0  0  0  0  0  0  0  0  0
    1.8002   -3.1856   -1.8070 H   0  0  0  0  0  0  0  0  0  0  0  0
    3.4639   -1.6035   -3.4167 H   0  0  0  0  0  0  0  0  0  0  0  0
    2.6480   -0.9759   -1.9991 H   0  0  0  0  0  0  0  0  0  0  0  0
    5.4592   -1.0359   -2.2203 H   0  0  0  0  0  0  0  0  0  0  0  0
    5.1909    0.0418   -0.1529 H   0  0  0  0  0  0  0  0  0  0  0  0
    3.6930   -0.7523    0.2321 H   0  0  0  0  0  0  0  0  0  0  0  0
    5.4193   -2.6333    2.6978 H   0  0  0  0  0  0  0  0  0  0  0  0
    3.9311   -1.9351    2.1423 H   0  0  0  0  0  0  0  0  0  0  0  0
    5.0244   -4.7456    1.7736 H   0  0  0  0  0  0  0  0  0  0  0  0
    7.2828   -1.0021   -0.2036 H   0  0  0  0  0  0  0  0  0  0  0  0
    7.6226   -2.0172    1.2696 H   0  0  0  0  0  0  0  0  0  0  0  0
    6.3448   -5.0926   -0.1741 H   0  0  0  0  0  0  0  0  0  0  0  0
    7.1519   -4.2904    1.1877 H   0  0  0  0  0  0  0  0  0  0  0  0
    7.8618   -4.2379   -0.4225 H   0  0  0  0  0  0  0  0  0  0  0  0
    5.5061   -3.5387   -2.1375 H   0  0  0  0  0  0  0  0  0  0  0  0
  2  1  1  1
  1 24  1  0
  1 25  1  0
  1 26  1  0
  2  8  1  0
  2 19  1  0
  2  3  1  0
  3  4  1  0
  3 27  1  0
  3 28  1  0
  4  5  1  0
  4 29  1  0
  4 30  1  0
  5  6  2  0
  5  7  1  0
  7  8  1  0
  7 31  1  0
  7 32  1  0
  8  9  2  0
  9 10  1  0
  9 33  1  0
 10 11  1  0
 10 34  1  0
 10 35  1  0
 11 19  1  0
 11 12  1  0
 11 36  1  6
 12 23  1  0
 12 13  1  0
 12 37  1  1
 13 14  1  0
 13 38  1  0
 13 39  1  0
 14 15  1  0
 14 40  1  0
 14 41  1  0
 15 23  1  0
 15 16  1  0
 15 42  1  6
 17 16  1  6
 16 43  1  0
 16 44  1  0
 17 21  1  0
 17 18  1  0
 17 20  1  0
 18 19  1  0
 18 45  1  0
 18 46  1  0
 19 47  1  1
 20 21  1  0
 20 48  1  0
 20 49  1  0
 21 22  1  1
 21 23  1  0
 22 50  1  0
 22 51  1  0
 22 52  1  0
 23 53  1  6
M  END
>  <i_m_ct_stereo_status>  (12) 
1

>  <s_m_source_file>  (12) 
/var/tmp/pbs.5076255.sched01/tmphrtf3o8j/0_qqz9eae.sdf

>  <i_m_source_file_index>  (12) 
4

>  <i_lp_mmshare_version>  (12) 
48012

>  <i_f3d_flags>  (12) 
0

>  <s_epik_input>  (12) 
W0NIMl0xW0NIMl1DKD1PKVtDSDJdQyg9W0NIXVtDSDJdMilbQ0BdMShbQ0gzXSlbQ0BIXShbQ0gyXTMpW0NAQEhdMltDQEBIXShbQ0BASF00W0NAQF0oW0NAXTM1NikoW0NIMl02KVtDSDNdKVtDSDJdW0NIMl1bQ0BIXTRbQ0gyXTU=

>  <s_epik_cmdline>  (12) 
J2VwaWtfcHl0aG9uJywgJy1waHQnLCAnMi4wJywgJy1waCcsICc3LjAnLCAnLXRuJywgJzgnLCAnLW1hJywgJzIwMCcsICctaW1hZScsICc8aW5maWxlLm1hZT4nLCAnLW9tYWUnLCAnPG91dGZpbGUubWFlPic=

>  <r_lp_tautomer_probability>  (12) 
1

>  <r_epik_Ionization_Penalty>  (12) 
1.65763e-13

>  <r_epik_Ionization_Penalty_Charging>  (12) 
0

>  <r_epik_Ionization_Penalty_Neutral>  (12) 
1.65763e-13

>  <r_epik_State_Penalty>  (12) 
-0

>  <r_epik_Charging_Adjusted_Penalty>  (12) 
0

>  <i_epik_Tot_Q>  (12) 
0

>  <i_epik_Tot_abs_Q>  (12) 
0

>  <s_lp_Force_Field>  (12) 
OPLS3e

>  <r_lp_Energy>  (12) 
110.722

>  <b_lp_Chiralities_Consistent>  (12) 
1

>  <s_lp_Variant>  (12) 
2:0-1

>  <s_i_glide_gridfile>  (12) 
pfpi4k_grid

>  <i_i_glide_lignum>  (12) 
4

>  <i_i_glide_rotatable_bonds>  (12) 
0

>  <r_i_docking_score>  (12) 
-2.63808

>  <r_i_glide_ligand_efficiency>  (12) 
-0.114699

>  <r_i_glide_ligand_efficiency_sa>  (12) 
-0.326189

>  <r_i_glide_ligand_efficiency_ln>  (12) 
-0.637912

>  <r_i_glide_gscore>  (12) 
-2.63808

>  <r_i_glide_lipo>  (12) 
-0.337645

>  <r_i_glide_hbond>  (12) 
0

>  <r_i_glide_metal>  (12) 
-0

>  <r_i_glide_rewards>  (12) 
-1.29223

>  <r_i_glide_evdw>  (12) 
-20.3832

>  <r_i_glide_ecoul>  (12) 
0.0730382

>  <r_i_glide_erotb>  (12) 
0

>  <r_i_glide_esite>  (12) 
0

>  <r_i_glide_emodel>  (12) 
-24.3462

>  <r_i_glide_energy>  (12) 
-20.3102

>  <r_i_glide_einternal>  (12) 
0

>  <r_i_glide_intrahb_reward>  (12) 
-0

>  <i_i_glide_confnum>  (12) 
1

>  <i_i_glide_posenum>  (12) 
2

>  <r_i_glide_eff_state_penalty>  (12) 
0

>  <ligand_id>  (12) 
2

>  <original_smiles>  (12) 
CC12CCC(=O)CC1=CCC1C3CCC4CC5(CC12)CC5(C)C43

>  <smiles>  (12) 
[H]C1=C2C([H])([H])C(=O)C([H])([H])C([H])([H])C2(C([H])([H])[H])C2([H])C([H])([H])C34C([H])([H])C5([H])C([H])([H])C([H])([H])C([H])(C2([H])C1([H])[H])C5([H])C3(C([H])([H])[H])C4([H])[H]

$$$$
3:0:0
     RDKit          3D

 47 50  0  0  1  0  0  0  0  0999 V2000
    2.2096   -1.9031    7.2202 C   0  0  0  0  0  0  0  0  0  0  0  0
    1.6102   -3.1557    6.5608 C   0  0  2  0  0  0  0  0  0  0  0  0
    2.5626   -3.7675    5.5062 C   0  0  0  0  0  0  0  0  0  0  0  0
    2.5695   -2.9457    4.2310 C   0  0  0  0  0  0  0  0  0  0  0  0
    1.4824   -2.2961    3.8025 C   0  0  0  0  0  0  0  0  0  0  0  0
    1.8090   -1.6369    2.5697 C   0  0  0  0  0  0  0  0  0  0  0  0
    3.0845   -1.9114    2.2452 C   0  0  0  0  0  0  0  0  0  0  0  0
    3.7065   -1.2831    1.0327 C   0  0  0  0  0  0  0  0  0  0  0  0
    3.8414   -0.0624    0.9687 O   0  0  0  0  0  0  0  0  0  0  0  0
    4.2061   -2.1116   -0.2074 C   0  0  2  0  0  0  0  0  0  0  0  0
    3.2870   -3.3264   -0.5447 C   0  0  0  0  0  0  0  0  0  0  0  0
    3.3562   -4.3486    0.5815 C   0  0  0  0  0  0  0  0  0  0  0  0
    2.2128   -4.7780    0.8140 O   0  0  0  0  0  0  0  0  0  0  0  0
    4.4889   -4.2935    1.3691 C   0  0  0  0  0  0  0  0  0  0  0  0
    4.3092   -4.1788    2.8100 C   0  0  0  0  0  0  0  0  0  0  0  0
    4.6278   -5.0617    3.6081 O   0  0  0  0  0  0  0  0  0  0  0  0
    3.7954   -2.7907    3.3188 C   0  0  2  0  0  0  0  0  0  0  0  0
    4.9107   -2.0079    4.0309 C   0  0  0  0  0  0  0  0  0  0  0  0
    5.7675   -3.7178    0.9079 C   0  0  0  0  0  0  0  0  0  0  0  0
    6.8651   -4.1086    1.2978 O   0  0  0  0  0  0  0  0  0  0  0  0
    5.6970   -2.5795   -0.1150 C   0  0  0  0  0  0  0  0  0  0  0  0
    6.1845   -3.0960   -1.4886 C   0  0  0  0  0  0  0  0  0  0  0  0
    6.6559   -1.4580    0.3280 C   0  0  0  0  0  0  0  0  0  0  0  0
    0.1435   -2.2661    4.5316 C   0  0  0  0  0  0  0  0  0  0  0  0
    0.2292   -2.8274    5.9627 C   0  0  0  0  0  0  0  0  0  0  0  0
   -0.7906   -2.9798    6.6290 O   0  0  0  0  0  0  0  0  0  0  0  0
    1.5752   -1.5411    8.0278 H   0  0  0  0  0  0  0  0  0  0  0  0
    2.3275   -1.0932    6.5019 H   0  0  0  0  0  0  0  0  0  0  0  0
    3.1910   -2.1141    7.6446 H   0  0  0  0  0  0  0  0  0  0  0  0
    1.4614   -3.8974    7.3469 H   0  0  0  0  0  0  0  0  0  0  0  0
    3.5752   -3.8723    5.9037 H   0  0  0  0  0  0  0  0  0  0  0  0
    2.2189   -4.7710    5.2385 H   0  0  0  0  0  0  0  0  0  0  0  0
    1.1346   -1.0068    2.0050 H   0  0  0  0  0  0  0  0  0  0  0  0
    4.1393   -1.4293   -1.0534 H   0  0  0  0  0  0  0  0  0  0  0  0
    2.2726   -2.9364   -0.6779 H   0  0  0  0  0  0  0  0  0  0  0  0
    3.5375   -3.8015   -1.4917 H   0  0  0  0  0  0  0  0  0  0  0  0
    5.7520   -1.8224    3.3710 H   0  0  0  0  0  0  0  0  0  0  0  0
    5.2872   -2.5591    4.8882 H   0  0  0  0  0  0  0  0  0  0  0  0
    4.5508   -1.0413    4.3869 H   0  0  0  0  0  0  0  0  0  0  0  0
    5.9740   -2.3834   -2.2878 H   0  0  0  0  0  0  0  0  0  0  0  0
    5.7056   -4.0344   -1.7612 H   0  0  0  0  0  0  0  0  0  0  0  0
    7.2564   -3.2973   -1.4948 H   0  0  0  0  0  0  0  0  0  0  0  0
    6.5647   -0.5892   -0.3183 H   0  0  0  0  0  0  0  0  0  0  0  0
    7.6971   -1.7906    0.3190 H   0  0  0  0  0  0  0  0  0  0  0  0
    6.4533   -1.1138    1.3408 H   0  0  0  0  0  0  0  0  0  0  0  0
   -0.2444   -1.2484    4.5664 H   0  0  0  0  0  0  0  0  0  0  0  0
   -0.5677   -2.8663    3.9770 H   0  0  0  0  0  0  0  0  0  0  0  0
  1  2  1  0
  1 27  1  0
  1 28  1  0
  1 29  1  0
  2 25  1  0
  2  3  1  0
  2 30  1  1
  3  4  1  0
  3 31  1  0
  3 32  1  0
  4 17  1  0
  4  5  2  0
  5  6  1  0
  5 24  1  0
  6  7  2  0
  6 33  1  0
  7 17  1  0
  7  8  1  0
  8  9  2  0
  8 10  1  0
 10 21  1  0
 10 11  1  0
 10 34  1  6
 11 12  1  0
 11 35  1  0
 11 36  1  0
 12 13  1  0
 12 14  2  0
 14 15  1  0
 14 19  1  0
 15 16  2  0
 15 17  1  0
 17 18  1  1
 18 37  1  0
 18 38  1  0
 18 39  1  0
 19 20  2  0
 19 21  1  0
 21 22  1  0
 21 23  1  0
 22 40  1  0
 22 41  1  0
 22 42  1  0
 23 43  1  0
 23 44  1  0
 23 45  1  0
 24 25  1  0
 24 46  1  0
 24 47  1  0
 25 26  2  0
M  CHG  1  13  -1
M  END
>  <i_m_ct_stereo_status>  (13) 
1

>  <s_m_source_file>  (13) 
/var/tmp/pbs.5076255.sched01/tmphrtf3o8j/0_qqz9eae.sdf

>  <i_m_source_file_index>  (13) 
5

>  <i_lp_mmshare_version>  (13) 
48012

>  <i_f3d_flags>  (13) 
0

>  <s_epik_input>  (13) 
W0NIM11bQ0BIXShbQ0gyXTEpQyg9TylbQ0gyXUMoPUMxW0NAXTIzW0NIM10pW0NIXT1DMkMoPU8pW0NAQEhdNFtDSDJdQyg9TylbQ0BIXShDMz1PKUMoPU8pQzQoW0NIM10pW0NIM10=

>  <s_epik_cmdline>  (13) 
J2VwaWtfcHl0aG9uJywgJy1waHQnLCAnMi4wJywgJy1waCcsICc3LjAnLCAnLXRuJywgJzgnLCAnLW1hJywgJzIwMCcsICctaW1hZScsICc8aW5maWxlLm1hZT4nLCAnLW9tYWUnLCAnPG91dGZpbGUubWFlPic=

>  <r_lp_tautomer_probability>  (13) 
1

>  <r_epik_Ionization_Penalty>  (13) 
3.94583e-11

>  <r_epik_Ionization_Penalty_Charging>  (13) 
0

>  <r_epik_Ionization_Penalty_Neutral>  (13) 
3.94583e-11

>  <r_epik_State_Penalty>  (13) 
-0

>  <r_epik_Charging_Adjusted_Penalty>  (13) 
0

>  <i_epik_Tot_Q>  (13) 
-1

>  <i_epik_Tot_abs_Q>  (13) 
1

>  <s_lp_Force_Field>  (13) 
OPLS3e

>  <r_lp_Energy>  (13) 
63.715

>  <b_lp_Chiralities_Consistent>  (13) 
1

>  <s_lp_Variant>  (13) 
3:0-1

>  <s_i_glide_gridfile>  (13) 
pfpi4k_grid

>  <i_i_glide_lignum>  (13) 
5

>  <i_i_glide_rotatable_bonds>  (13) 
0

>  <r_i_docking_score>  (13) 
-3.07138

>  <r_i_glide_ligand_efficiency>  (13) 
-0.11813

>  <r_i_glide_ligand_efficiency_sa>  (13) 
-0.34996

>  <r_i_glide_ligand_efficiency_ln>  (13) 
-0.721304

>  <r_i_glide_gscore>  (13) 
-3.07138

>  <r_i_glide_lipo>  (13) 
-0.301597

>  <r_i_glide_hbond>  (13) 
-0.0227082

>  <r_i_glide_metal>  (13) 
-0

>  <r_i_glide_rewards>  (13) 
-1.10092

>  <r_i_glide_evdw>  (13) 
-24.3622

>  <r_i_glide_ecoul>  (13) 
-2.57879

>  <r_i_glide_erotb>  (13) 
0

>  <r_i_glide_esite>  (13) 
-0.0412251

>  <r_i_glide_emodel>  (13) 
-34.2506

>  <r_i_glide_energy>  (13) 
-26.941

>  <r_i_glide_einternal>  (13) 
0

>  <r_i_glide_intrahb_reward>  (13) 
-0

>  <i_i_glide_confnum>  (13) 
1

>  <i_i_glide_posenum>  (13) 
2

>  <r_i_glide_eff_state_penalty>  (13) 
0

>  <ligand_id>  (13) 
3

>  <original_smiles>  (13) 
CC1CC2=C(C=C3C(=O)C4CC(=O)C(C(=O)C32C)C(=O)C4(C)C)CC1=O

>  <smiles>  (13) 
[H]C1=C2C(=O)C3([H])C([H])([H])C([O-])=C(C(=O)C2(C([H])([H])[H])C2=C1C([H])([H])C(=O)C([H])(C([H])([H])[H])C2([H])[H])C(=O)C3(C([H])([H])[H])C([H])([H])[H]

$$$$
3:0:1
     RDKit          3D

 47 50  0  0  1  0  0  0  0  0999 V2000
    5.6386   -1.5874    0.9972 C   0  0  0  0  0  0  0  0  0  0  0  0
    4.2311   -1.6889    0.3812 C   0  0  2  0  0  0  0  0  0  0  0  0
    3.2431   -2.4366    1.3082 C   0  0  0  0  0  0  0  0  0  0  0  0
    3.4976   -3.9328    1.2978 C   0  0  0  0  0  0  0  0  0  0  0  0
    3.9403   -4.5586    0.2036 C   0  0  0  0  0  0  0  0  0  0  0  0
    4.0657   -5.9573    0.5083 C   0  0  0  0  0  0  0  0  0  0  0  0
    3.6773   -6.1718    1.7771 C   0  0  0  0  0  0  0  0  0  0  0  0
    3.7674   -7.5473    2.3799 C   0  0  0  0  0  0  0  0  0  0  0  0
    4.8610   -8.0975    2.5003 O   0  0  0  0  0  0  0  0  0  0  0  0
    2.5070   -8.3606    2.8557 C   0  0  2  0  0  0  0  0  0  0  0  0
    1.2786   -8.1797    1.9099 C   0  0  0  0  0  0  0  0  0  0  0  0
    0.7955   -6.7342    1.9462 C   0  0  0  0  0  0  0  0  0  0  0  0
    0.5682   -6.3303    0.7688 O   0  0  0  0  0  0  0  0  0  0  0  0
    1.1084   -6.0622    3.1147 C   0  0  0  0  0  0  0  0  0  0  0  0
    1.8026   -4.7824    3.0027 C   0  0  0  0  0  0  0  0  0  0  0  0
    1.3042   -3.7145    3.3512 O   0  0  0  0  0  0  0  0  0  0  0  0
    3.2802   -4.8545    2.5077 C   0  0  2  0  0  0  0  0  0  0  0  0
    4.2638   -4.5215    3.6407 C   0  0  0  0  0  0  0  0  0  0  0  0
    1.4296   -6.7309    4.4099 C   0  0  0  0  0  0  0  0  0  0  0  0
    1.2109   -6.2301    5.5100 O   0  0  0  0  0  0  0  0  0  0  0  0
    2.0886   -8.1139    4.3454 C   0  0  0  0  0  0  0  0  0  0  0  0
    1.0671   -9.1848    4.8096 C   0  0  0  0  0  0  0  0  0  0  0  0
    3.2890   -8.1785    5.3262 C   0  0  0  0  0  0  0  0  0  0  0  0
    4.2610   -3.8729   -1.1223 C   0  0  0  0  0  0  0  0  0  0  0  0
    4.3102   -2.3401   -1.0084 C   0  0  0  0  0  0  0  0  0  0  0  0
    4.4736   -1.6472   -2.0094 O   0  0  0  0  0  0  0  0  0  0  0  0
    6.2957   -0.9763    0.3803 H   0  0  0  0  0  0  0  0  0  0  0  0
    6.1004   -2.5681    1.1041 H   0  0  0  0  0  0  0  0  0  0  0  0
    5.6023   -1.1304    1.9856 H   0  0  0  0  0  0  0  0  0  0  0  0
    3.8576   -0.6728    0.2422 H   0  0  0  0  0  0  0  0  0  0  0  0
    3.2855   -2.0425    2.3249 H   0  0  0  0  0  0  0  0  0  0  0  0
    2.2225   -2.2800    0.9483 H   0  0  0  0  0  0  0  0  0  0  0  0
    4.4319   -6.7095   -0.1803 H   0  0  0  0  0  0  0  0  0  0  0  0
    2.8004   -9.4081    2.7887 H   0  0  0  0  0  0  0  0  0  0  0  0
    1.5956   -8.4575    0.9115 H   0  0  0  0  0  0  0  0  0  0  0  0
    0.4700   -8.8610    2.1563 H   0  0  0  0  0  0  0  0  0  0  0  0
    4.1632   -5.2127    4.4719 H   0  0  0  0  0  0  0  0  0  0  0  0
    4.0849   -3.5208    4.0246 H   0  0  0  0  0  0  0  0  0  0  0  0
    5.2978   -4.5679    3.2907 H   0  0  0  0  0  0  0  0  0  0  0  0
    1.4156  -10.1969    4.5936 H   0  0  0  0  0  0  0  0  0  0  0  0
    0.0989   -9.0693    4.3264 H   0  0  0  0  0  0  0  0  0  0  0  0
    0.8740   -9.1343    5.8824 H   0  0  0  0  0  0  0  0  0  0  0  0
    3.8220   -9.1297    5.2490 H   0  0  0  0  0  0  0  0  0  0  0  0
    2.9710   -8.0638    6.3653 H   0  0  0  0  0  0  0  0  0  0  0  0
    4.0100   -7.3836    5.1404 H   0  0  0  0  0  0  0  0  0  0  0  0
    5.2148   -4.2359   -1.5041 H   0  0  0  0  0  0  0  0  0  0  0  0
    3.5000   -4.1430   -1.8521 H   0  0  0  0  0  0  0  0  0  0  0  0
  1  2  1  0
  1 27  1  0
  1 28  1  0
  1 29  1  0
  2 25  1  0
  2  3  1  0
  2 30  1  6
  3  4  1  0
  3 31  1  0
  3 32  1  0
  4 17  1  0
  4  5  2  0
  5  6  1  0
  5 24  1  0
  6  7  2  0
  6 33  1  0
  7 17  1  0
  7  8  1  0
  8  9  2  0
  8 10  1  0
 10 21  1  0
 10 11  1  0
 10 34  1  1
 11 12  1  0
 11 35  1  0
 11 36  1  0
 12 13  1  0
 12 14  2  0
 14 15  1  0
 14 19  1  0
 15 16  2  0
 15 17  1  0
 17 18  1  1
 18 37  1  0
 18 38  1  0
 18 39  1  0
 19 20  2  0
 19 21  1  0
 21 22  1  0
 21 23  1  0
 22 40  1  0
 22 41  1  0
 22 42  1  0
 23 43  1  0
 23 44  1  0
 23 45  1  0
 24 25  1  0
 24 46  1  0
 24 47  1  0
 25 26  2  0
M  CHG  1  13  -1
M  END
>  <i_m_ct_stereo_status>  (14) 
1

>  <s_m_source_file>  (14) 
/var/tmp/pbs.5076255.sched01/tmphrtf3o8j/0_qqz9eae.sdf

>  <i_m_source_file_index>  (14) 
5

>  <i_lp_mmshare_version>  (14) 
48012

>  <i_f3d_flags>  (14) 
0

>  <s_epik_input>  (14) 
W0NIM11bQ0BIXShbQ0gyXTEpQyg9TylbQ0gyXUMoPUMxW0NAXTIzW0NIM10pW0NIXT1DMkMoPU8pW0NAQEhdNFtDSDJdQyg9TylbQ0BIXShDMz1PKUMoPU8pQzQoW0NIM10pW0NIM10=

>  <s_epik_cmdline>  (14) 
J2VwaWtfcHl0aG9uJywgJy1waHQnLCAnMi4wJywgJy1waCcsICc3LjAnLCAnLXRuJywgJzgnLCAnLW1hJywgJzIwMCcsICctaW1hZScsICc8aW5maWxlLm1hZT4nLCAnLW9tYWUnLCAnPG91dGZpbGUubWFlPic=

>  <r_lp_tautomer_probability>  (14) 
1

>  <r_epik_Ionization_Penalty>  (14) 
3.94583e-11

>  <r_epik_Ionization_Penalty_Charging>  (14) 
0

>  <r_epik_Ionization_Penalty_Neutral>  (14) 
3.94583e-11

>  <r_epik_State_Penalty>  (14) 
-0

>  <r_epik_Charging_Adjusted_Penalty>  (14) 
0

>  <i_epik_Tot_Q>  (14) 
-1

>  <i_epik_Tot_abs_Q>  (14) 
1

>  <s_lp_Force_Field>  (14) 
OPLS3e

>  <r_lp_Energy>  (14) 
63.715

>  <b_lp_Chiralities_Consistent>  (14) 
1

>  <s_lp_Variant>  (14) 
3:0-1

>  <s_i_glide_gridfile>  (14) 
pfpi4k_grid

>  <i_i_glide_lignum>  (14) 
5

>  <i_i_glide_rotatable_bonds>  (14) 
0

>  <r_i_docking_score>  (14) 
-2.72836

>  <r_i_glide_ligand_efficiency>  (14) 
-0.104937

>  <r_i_glide_ligand_efficiency_sa>  (14) 
-0.310875

>  <r_i_glide_ligand_efficiency_ln>  (14) 
-0.640746

>  <r_i_glide_gscore>  (14) 
-2.72836

>  <r_i_glide_lipo>  (14) 
-0.245045

>  <r_i_glide_hbond>  (14) 
-0.2

>  <r_i_glide_metal>  (14) 
-0

>  <r_i_glide_rewards>  (14) 
-0.999624

>  <r_i_glide_evdw>  (14) 
-24.6126

>  <r_i_glide_ecoul>  (14) 
-0.0918072

>  <r_i_glide_erotb>  (14) 
0

>  <r_i_glide_esite>  (14) 
-0.0392917

>  <r_i_glide_emodel>  (14) 
-31.1733

>  <r_i_glide_energy>  (14) 
-24.7044

>  <r_i_glide_einternal>  (14) 
0

>  <r_i_glide_intrahb_reward>  (14) 
-0

>  <i_i_glide_confnum>  (14) 
1

>  <i_i_glide_posenum>  (14) 
30

>  <r_i_glide_eff_state_penalty>  (14) 
0

>  <ligand_id>  (14) 
3

>  <original_smiles>  (14) 
CC1CC2=C(C=C3C(=O)C4CC(=O)C(C(=O)C32C)C(=O)C4(C)C)CC1=O

>  <smiles>  (14) 
[H]C1=C2C(=O)C3([H])C([H])([H])C([O-])=C(C(=O)C2(C([H])([H])[H])C2=C1C([H])([H])C(=O)C([H])(C([H])([H])[H])C2([H])[H])C(=O)C3(C([H])([H])[H])C([H])([H])[H]

$$$$
3:0:2
     RDKit          3D

 47 50  0  0  1  0  0  0  0  0999 V2000
    4.0351   -9.0505    3.1271 C   0  0  0  0  0  0  0  0  0  0  0  0
    2.9116   -8.0886    3.5523 C   0  0  2  0  0  0  0  0  0  0  0  0
    2.5624   -7.0732    2.4403 C   0  0  0  0  0  0  0  0  0  0  0  0
    3.6201   -5.9884    2.3363 C   0  0  0  0  0  0  0  0  0  0  0  0
    4.2890   -5.5508    3.4093 C   0  0  0  0  0  0  0  0  0  0  0  0
    5.2007   -4.5291    2.9804 C   0  0  0  0  0  0  0  0  0  0  0  0
    5.0724   -4.3325    1.6578 C   0  0  0  0  0  0  0  0  0  0  0  0
    5.9495   -3.3509    0.9291 C   0  0  0  0  0  0  0  0  0  0  0  0
    7.1660   -3.5282    0.8772 O   0  0  0  0  0  0  0  0  0  0  0  0
    5.3991   -2.0580    0.2266 C   0  0  2  0  0  0  0  0  0  0  0  0
    4.2447   -1.3726    1.0217 C   0  0  0  0  0  0  0  0  0  0  0  0
    3.0339   -2.2989    1.0753 C   0  0  0  0  0  0  0  0  0  0  0  0
    2.6016   -2.3159    2.2595 O   0  0  0  0  0  0  0  0  0  0  0  0
    2.9657   -3.2046    0.0289 C   0  0  0  0  0  0  0  0  0  0  0  0
    2.8009   -4.6201    0.3624 C   0  0  0  0  0  0  0  0  0  0  0  0
    1.8145   -5.2878    0.0819 O   0  0  0  0  0  0  0  0  0  0  0  0
    4.0310   -5.2987    1.0287 C   0  0  2  0  0  0  0  0  0  0  0  0
    4.6939   -6.2914    0.0810 C   0  0  0  0  0  0  0  0  0  0  0  0
    3.6555   -3.0240   -1.2804 C   0  0  0  0  0  0  0  0  0  0  0  0
    3.2374   -3.4404   -2.3598 O   0  0  0  0  0  0  0  0  0  0  0  0
    4.9817   -2.2641   -1.2690 C   0  0  0  0  0  0  0  0  0  0  0  0
    4.7633   -0.9088   -1.9668 C   0  0  0  0  0  0  0  0  0  0  0  0
    6.0496   -3.0248   -2.0932 C   0  0  0  0  0  0  0  0  0  0  0  0
    4.1065   -6.0807    4.8249 C   0  0  0  0  0  0  0  0  0  0  0  0
    3.2798   -7.3790    4.8670 C   0  0  0  0  0  0  0  0  0  0  0  0
    2.9367   -7.8556    5.9439 O   0  0  0  0  0  0  0  0  0  0  0  0
    4.1981   -9.8197    3.8816 H   0  0  0  0  0  0  0  0  0  0  0  0
    4.9782   -8.5251    2.9820 H   0  0  0  0  0  0  0  0  0  0  0  0
    3.7895   -9.5590    2.1939 H   0  0  0  0  0  0  0  0  0  0  0  0
    2.0247   -8.6938    3.7463 H   0  0  0  0  0  0  0  0  0  0  0  0
    2.4165   -7.5767    1.4817 H   0  0  0  0  0  0  0  0  0  0  0  0
    1.6185   -6.5786    2.6862 H   0  0  0  0  0  0  0  0  0  0  0  0
    5.8857   -4.0136    3.6314 H   0  0  0  0  0  0  0  0  0  0  0  0
    6.2312   -1.3556    0.2292 H   0  0  0  0  0  0  0  0  0  0  0  0
    4.6168   -1.1663    2.0238 H   0  0  0  0  0  0  0  0  0  0  0  0
    3.9725   -0.4050    0.6105 H   0  0  0  0  0  0  0  0  0  0  0  0
    5.0238   -5.7967   -0.8309 H   0  0  0  0  0  0  0  0  0  0  0  0
    3.9971   -7.0629   -0.2262 H   0  0  0  0  0  0  0  0  0  0  0  0
    5.5543   -6.7713    0.5388 H   0  0  0  0  0  0  0  0  0  0  0  0
    5.6227   -0.2633   -1.8042 H   0  0  0  0  0  0  0  0  0  0  0  0
    3.8856   -0.3890   -1.5911 H   0  0  0  0  0  0  0  0  0  0  0  0
    4.6195   -0.9995   -3.0454 H   0  0  0  0  0  0  0  0  0  0  0  0
    7.0293   -2.5425   -2.0480 H   0  0  0  0  0  0  0  0  0  0  0  0
    5.7698   -3.1065   -3.1475 H   0  0  0  0  0  0  0  0  0  0  0  0
    6.1690   -4.0435   -1.7318 H   0  0  0  0  0  0  0  0  0  0  0  0
    5.0775   -6.2680    5.2815 H   0  0  0  0  0  0  0  0  0  0  0  0
    3.6017   -5.3274    5.4276 H   0  0  0  0  0  0  0  0  0  0  0  0
  1  2  1  0
  1 27  1  0
  1 28  1  0
  1 29  1  0
  2 25  1  0
  2  3  1  0
  2 30  1  1
  3  4  1  0
  3 31  1  0
  3 32  1  0
  4 17  1  0
  4  5  2  0
  5  6  1  0
  5 24  1  0
  6  7  2  0
  6 33  1  0
  7 17  1  0
  7  8  1  0
  8  9  2  0
  8 10  1  0
 10 21  1  0
 10 11  1  0
 10 34  1  6
 11 12  1  0
 11 35  1  0
 11 36  1  0
 12 13  1  0
 12 14  2  0
 14 15  1  0
 14 19  1  0
 15 16  2  0
 15 17  1  0
 17 18  1  6
 18 37  1  0
 18 38  1  0
 18 39  1  0
 19 20  2  0
 19 21  1  0
 21 22  1  0
 21 23  1  0
 22 40  1  0
 22 41  1  0
 22 42  1  0
 23 43  1  0
 23 44  1  0
 23 45  1  0
 24 25  1  0
 24 46  1  0
 24 47  1  0
 25 26  2  0
M  CHG  1  13  -1
M  END
>  <i_m_ct_stereo_status>  (15) 
1

>  <s_m_source_file>  (15) 
/var/tmp/pbs.5076255.sched01/tmphrtf3o8j/0_qqz9eae.sdf

>  <i_m_source_file_index>  (15) 
5

>  <i_lp_mmshare_version>  (15) 
48012

>  <i_f3d_flags>  (15) 
0

>  <s_epik_input>  (15) 
W0NIM11bQ0BIXShbQ0gyXTEpQyg9TylbQ0gyXUMoPUMxW0NAXTIzW0NIM10pW0NIXT1DMkMoPU8pW0NAQEhdNFtDSDJdQyg9TylbQ0BIXShDMz1PKUMoPU8pQzQoW0NIM10pW0NIM10=

>  <s_epik_cmdline>  (15) 
J2VwaWtfcHl0aG9uJywgJy1waHQnLCAnMi4wJywgJy1waCcsICc3LjAnLCAnLXRuJywgJzgnLCAnLW1hJywgJzIwMCcsICctaW1hZScsICc8aW5maWxlLm1hZT4nLCAnLW9tYWUnLCAnPG91dGZpbGUubWFlPic=

>  <r_lp_tautomer_probability>  (15) 
1

>  <r_epik_Ionization_Penalty>  (15) 
3.94583e-11

>  <r_epik_Ionization_Penalty_Charging>  (15) 
0

>  <r_epik_Ionization_Penalty_Neutral>  (15) 
3.94583e-11

>  <r_epik_State_Penalty>  (15) 
-0

>  <r_epik_Charging_Adjusted_Penalty>  (15) 
0

>  <i_epik_Tot_Q>  (15) 
-1

>  <i_epik_Tot_abs_Q>  (15) 
1

>  <s_lp_Force_Field>  (15) 
OPLS3e

>  <r_lp_Energy>  (15) 
63.715

>  <b_lp_Chiralities_Consistent>  (15) 
1

>  <s_lp_Variant>  (15) 
3:0-1

>  <s_i_glide_gridfile>  (15) 
pfpi4k_grid

>  <i_i_glide_lignum>  (15) 
5

>  <i_i_glide_rotatable_bonds>  (15) 
0

>  <r_i_docking_score>  (15) 
-2.51719

>  <r_i_glide_ligand_efficiency>  (15) 
-0.0968148

>  <r_i_glide_ligand_efficiency_sa>  (15) 
-0.286814

>  <r_i_glide_ligand_efficiency_ln>  (15) 
-0.591153

>  <r_i_glide_gscore>  (15) 
-2.51719

>  <r_i_glide_lipo>  (15) 
-0.318759

>  <r_i_glide_hbond>  (15) 
-0.0792001

>  <r_i_glide_metal>  (15) 
-0

>  <r_i_glide_rewards>  (15) 
-1.10318

>  <r_i_glide_evdw>  (15) 
-25.4166

>  <r_i_glide_ecoul>  (15) 
1.95874

>  <r_i_glide_erotb>  (15) 
0

>  <r_i_glide_esite>  (15) 
-0.0390249

>  <r_i_glide_emodel>  (15) 
-29.3562

>  <r_i_glide_energy>  (15) 
-23.4579

>  <r_i_glide_einternal>  (15) 
0

>  <r_i_glide_intrahb_reward>  (15) 
-0

>  <i_i_glide_confnum>  (15) 
1

>  <i_i_glide_posenum>  (15) 
3

>  <r_i_glide_eff_state_penalty>  (15) 
0

>  <ligand_id>  (15) 
3

>  <original_smiles>  (15) 
CC1CC2=C(C=C3C(=O)C4CC(=O)C(C(=O)C32C)C(=O)C4(C)C)CC1=O

>  <smiles>  (15) 
[H]C1=C2C(=O)C3([H])C([H])([H])C([O-])=C(C(=O)C2(C([H])([H])[H])C2=C1C([H])([H])C(=O)C([H])(C([H])([H])[H])C2([H])[H])C(=O)C3(C([H])([H])[H])C([H])([H])[H]

$$$$
4:0:0
     RDKit          3D

 17 18  0  0  1  0  0  0  0  0999 V2000
    1.1374  -11.3175    3.1171 C   0  0  0  0  0  0  0  0  0  0  0  0
    1.1509   -9.9401    2.6576 N   0  0  0  0  0  0  0  0  0  0  0  0
    2.2305   -9.2442    2.1811 C   0  0  0  0  0  0  0  0  0  0  0  0
    1.7299   -7.9263    1.8571 C   0  0  0  0  0  0  0  0  0  0  0  0
    2.5742   -6.8598    1.3018 N   0  0  0  0  0  0  0  0  0  0  0  0
    3.7759   -7.0797    1.2017 O   0  0  0  0  0  0  0  0  0  0  0  0
    2.0235   -5.8126    0.9676 O   0  0  0  0  0  0  0  0  0  0  0  0
    0.4115   -7.9296    2.1512 N   0  0  0  0  0  0  0  0  0  0  0  0
   -0.5759   -7.0323    2.0833 N   0  0  0  0  0  0  0  0  0  0  0  0
   -1.5557   -7.8216    2.5476 C   0  0  0  0  0  0  0  0  0  0  0  0
   -1.2055   -9.1159    2.8796 N   0  0  0  0  0  0  0  0  0  0  0  0
    0.0675   -9.1374    2.6209 C   0  0  0  0  0  0  0  0  0  0  0  0
    2.1291  -11.7643    3.0396 H   0  0  0  0  0  0  0  0  0  0  0  0
    0.4425  -11.8970    2.5086 H   0  0  0  0  0  0  0  0  0  0  0  0
    0.8032  -11.3552    4.1555 H   0  0  0  0  0  0  0  0  0  0  0  0
    3.2079   -9.7138    2.1079 H   0  0  0  0  0  0  0  0  0  0  0  0
   -2.5650   -7.4547    2.6518 H   0  0  0  0  0  0  0  0  0  0  0  0
  1  2  1  0
  1 13  1  0
  1 14  1  0
  1 15  1  0
  2 12  1  0
  2  3  1  0
  3  4  2  0
  3 16  1  0
  4  5  1  0
  4  8  1  0
  5  6  2  0
  5  7  1  0
  8 12  1  0
  8  9  1  0
  9 10  2  0
 10 11  1  0
 10 17  1  0
 11 12  2  0
M  CHG  2   5   1   7  -1
M  END
>  <i_m_ct_stereo_status>  (16) 
1

>  <s_m_source_file>  (16) 
/var/tmp/pbs.5076255.sched01/tmphrtf3o8j/0_qqz9eae.sdf

>  <i_m_source_file_index>  (16) 
6

>  <i_lp_mmshare_version>  (16) 
48012

>  <i_f3d_flags>  (16) 
0

>  <s_epik_input>  (16) 
bjFbY0hdbmMobjEyKW4oW0NIM10pW2NIXWMyW04rXSg9TylbTy1d

>  <s_epik_cmdline>  (16) 
J2VwaWtfcHl0aG9uJywgJy1waHQnLCAnMi4wJywgJy1waCcsICc3LjAnLCAnLXRuJywgJzgnLCAnLW1hJywgJzIwMCcsICctaW1hZScsICc8aW5maWxlLm1hZT4nLCAnLW9tYWUnLCAnPG91dGZpbGUubWFlPic=

>  <r_lp_tautomer_probability>  (16) 
1

>  <r_epik_Ionization_Penalty>  (16) 
4.59025e-09

>  <r_epik_Ionization_Penalty_Charging>  (16) 
0

>  <r_epik_Ionization_Penalty_Neutral>  (16) 
4.59025e-09

>  <r_epik_State_Penalty>  (16) 
-0

>  <r_epik_Charging_Adjusted_Penalty>  (16) 
0

>  <i_epik_Tot_Q>  (16) 
0

>  <i_epik_Tot_abs_Q>  (16) 
2

>  <s_lp_Force_Field>  (16) 
OPLS3e

>  <r_lp_Energy>  (16) 
3.95327

>  <b_lp_Chiralities_Consistent>  (16) 
1

>  <s_lp_Variant>  (16) 
4:0-1

>  <s_i_glide_gridfile>  (16) 
pfpi4k_grid

>  <i_i_glide_lignum>  (16) 
6

>  <i_i_glide_rotatable_bonds>  (16) 
1

>  <r_i_docking_score>  (16) 
-4.28058

>  <r_i_glide_ligand_efficiency>  (16) 
-0.356715

>  <r_i_glide_ligand_efficiency_sa>  (16) 
-0.816673

>  <r_i_glide_ligand_efficiency_ln>  (16) 
-1.22832

>  <r_i_glide_gscore>  (16) 
-4.28058

>  <r_i_glide_lipo>  (16) 
-0.250618

>  <r_i_glide_hbond>  (16) 
-0.14396

>  <r_i_glide_metal>  (16) 
-0

>  <r_i_glide_rewards>  (16) 
-2.42622

>  <r_i_glide_evdw>  (16) 
-19.0957

>  <r_i_glide_ecoul>  (16) 
-2.16992

>  <r_i_glide_erotb>  (16) 
0

>  <r_i_glide_esite>  (16) 
-0.179508

>  <r_i_glide_emodel>  (16) 
-27.4676

>  <r_i_glide_energy>  (16) 
-21.2656

>  <r_i_glide_einternal>  (16) 
0.0474273

>  <r_i_glide_intrahb_reward>  (16) 
-0

>  <i_i_glide_confnum>  (16) 
1

>  <i_i_glide_posenum>  (16) 
21

>  <r_i_glide_eff_state_penalty>  (16) 
0

>  <ligand_id>  (16) 
4

>  <original_smiles>  (16) 
Cn1cc([N+](=O)[O-])n2ncnc12

>  <smiles>  (16) 
[H]c1nc2n(C([H])([H])[H])c([H])c([N+](=O)[O-])n2n1

$$$$
4:0:1
     RDKit          3D

 17 18  0  0  1  0  0  0  0  0999 V2000
   -1.9893   -8.7889    2.6834 C   0  0  0  0  0  0  0  0  0  0  0  0
   -0.5457   -8.8469    2.5932 N   0  0  0  0  0  0  0  0  0  0  0  0
    0.2541   -9.8920    2.9852 C   0  0  0  0  0  0  0  0  0  0  0  0
    1.6082   -9.4808    2.6772 C   0  0  0  0  0  0  0  0  0  0  0  0
    2.7840  -10.3189    2.9584 N   0  0  0  0  0  0  0  0  0  0  0  0
    2.5879  -11.4305    3.4363 O   0  0  0  0  0  0  0  0  0  0  0  0
    3.8943   -9.8510    2.7161 O   0  0  0  0  0  0  0  0  0  0  0  0
    1.5204   -8.2459    2.1399 N   0  0  0  0  0  0  0  0  0  0  0  0
    2.4010   -7.3637    1.6781 N   0  0  0  0  0  0  0  0  0  0  0  0
    1.5262   -6.4077    1.3314 C   0  0  0  0  0  0  0  0  0  0  0  0
    0.1866   -6.6720    1.5703 N   0  0  0  0  0  0  0  0  0  0  0  0
    0.2331   -7.8665    2.0888 C   0  0  0  0  0  0  0  0  0  0  0  0
   -2.3859   -9.7039    3.1259 H   0  0  0  0  0  0  0  0  0  0  0  0
   -2.4109   -8.6666    1.6848 H   0  0  0  0  0  0  0  0  0  0  0  0
   -2.2842   -7.9387    3.2999 H   0  0  0  0  0  0  0  0  0  0  0  0
   -0.1643  -10.7891    3.4304 H   0  0  0  0  0  0  0  0  0  0  0  0
    1.8691   -5.4806    0.8914 H   0  0  0  0  0  0  0  0  0  0  0  0
  1  2  1  0
  1 13  1  0
  1 14  1  0
  1 15  1  0
  2 12  1  0
  2  3  1  0
  3  4  2  0
  3 16  1  0
  4  5  1  0
  4  8  1  0
  5  6  2  0
  5  7  1  0
  8 12  1  0
  8  9  1  0
  9 10  2  0
 10 11  1  0
 10 17  1  0
 11 12  2  0
M  CHG  2   5   1   7  -1
M  END
>  <i_m_ct_stereo_status>  (17) 
1

>  <s_m_source_file>  (17) 
/var/tmp/pbs.5076255.sched01/tmphrtf3o8j/0_qqz9eae.sdf

>  <i_m_source_file_index>  (17) 
6

>  <i_lp_mmshare_version>  (17) 
48012

>  <i_f3d_flags>  (17) 
0

>  <s_epik_input>  (17) 
bjFbY0hdbmMobjEyKW4oW0NIM10pW2NIXWMyW04rXSg9TylbTy1d

>  <s_epik_cmdline>  (17) 
J2VwaWtfcHl0aG9uJywgJy1waHQnLCAnMi4wJywgJy1waCcsICc3LjAnLCAnLXRuJywgJzgnLCAnLW1hJywgJzIwMCcsICctaW1hZScsICc8aW5maWxlLm1hZT4nLCAnLW9tYWUnLCAnPG91dGZpbGUubWFlPic=

>  <r_lp_tautomer_probability>  (17) 
1

>  <r_epik_Ionization_Penalty>  (17) 
4.59025e-09

>  <r_epik_Ionization_Penalty_Charging>  (17) 
0

>  <r_epik_Ionization_Penalty_Neutral>  (17) 
4.59025e-09

>  <r_epik_State_Penalty>  (17) 
-0

>  <r_epik_Charging_Adjusted_Penalty>  (17) 
0

>  <i_epik_Tot_Q>  (17) 
0

>  <i_epik_Tot_abs_Q>  (17) 
2

>  <s_lp_Force_Field>  (17) 
OPLS3e

>  <r_lp_Energy>  (17) 
3.95327

>  <b_lp_Chiralities_Consistent>  (17) 
1

>  <s_lp_Variant>  (17) 
4:0-1

>  <s_i_glide_gridfile>  (17) 
pfpi4k_grid

>  <i_i_glide_lignum>  (17) 
6

>  <i_i_glide_rotatable_bonds>  (17) 
1

>  <r_i_docking_score>  (17) 
-3.99975

>  <r_i_glide_ligand_efficiency>  (17) 
-0.333313

>  <r_i_glide_ligand_efficiency_sa>  (17) 
-0.763096

>  <r_i_glide_ligand_efficiency_ln>  (17) 
-1.14774

>  <r_i_glide_gscore>  (17) 
-3.99975

>  <r_i_glide_lipo>  (17) 
-0.137848

>  <r_i_glide_hbond>  (17) 
-0.120134

>  <r_i_glide_metal>  (17) 
-0

>  <r_i_glide_rewards>  (17) 
-2.25

>  <r_i_glide_evdw>  (17) 
-19.2996

>  <r_i_glide_ecoul>  (17) 
-2.03393

>  <r_i_glide_erotb>  (17) 
0

>  <r_i_glide_esite>  (17) 
-0.221703

>  <r_i_glide_emodel>  (17) 
-27.1576

>  <r_i_glide_energy>  (17) 
-21.3335

>  <r_i_glide_einternal>  (17) 
0.0088953

>  <r_i_glide_intrahb_reward>  (17) 
-0

>  <i_i_glide_confnum>  (17) 
1

>  <i_i_glide_posenum>  (17) 
18

>  <r_i_glide_eff_state_penalty>  (17) 
0

>  <ligand_id>  (17) 
4

>  <original_smiles>  (17) 
Cn1cc([N+](=O)[O-])n2ncnc12

>  <smiles>  (17) 
[H]c1nc2n(C([H])([H])[H])c([H])c([N+](=O)[O-])n2n1

$$$$
4:0:2
     RDKit          3D

 17 18  0  0  1  0  0  0  0  0999 V2000
    0.8423    0.4126    1.8905 C   0  0  0  0  0  0  0  0  0  0  0  0
   -0.0135    0.8096    2.9914 N   0  0  0  0  0  0  0  0  0  0  0  0
   -0.5712    2.0483    3.1824 C   0  0  0  0  0  0  0  0  0  0  0  0
   -1.3394    1.9405    4.4049 C   0  0  0  0  0  0  0  0  0  0  0  0
   -2.0847    3.0677    4.9765 N   0  0  0  0  0  0  0  0  0  0  0  0
   -2.1371    4.1071    4.3279 O   0  0  0  0  0  0  0  0  0  0  0  0
   -2.6075    2.9128    6.0792 O   0  0  0  0  0  0  0  0  0  0  0  0
   -1.1879    0.6757    4.8501 N   0  0  0  0  0  0  0  0  0  0  0  0
   -1.6339   -0.0226    5.8974 N   0  0  0  0  0  0  0  0  0  0  0  0
   -1.0255   -1.1848    5.6032 C   0  0  0  0  0  0  0  0  0  0  0  0
   -0.2627   -1.2108    4.4537 N   0  0  0  0  0  0  0  0  0  0  0  0
   -0.3920    0.0022    4.0031 C   0  0  0  0  0  0  0  0  0  0  0  0
    1.0024    1.2415    1.1968 H   0  0  0  0  0  0  0  0  0  0  0  0
    0.3764   -0.4103    1.3494 H   0  0  0  0  0  0  0  0  0  0  0  0
    1.8049    0.0711    2.2745 H   0  0  0  0  0  0  0  0  0  0  0  0
   -0.3874    2.8634    2.4866 H   0  0  0  0  0  0  0  0  0  0  0  0
   -1.1480   -2.0504    6.2401 H   0  0  0  0  0  0  0  0  0  0  0  0
  1  2  1  0
  1 13  1  0
  1 14  1  0
  1 15  1  0
  2 12  1  0
  2  3  1  0
  3  4  2  0
  3 16  1  0
  4  5  1  0
  4  8  1  0
  5  6  2  0
  5  7  1  0
  8 12  1  0
  8  9  1  0
  9 10  2  0
 10 11  1  0
 10 17  1  0
 11 12  2  0
M  CHG  2   5   1   7  -1
M  END
>  <i_m_ct_stereo_status>  (18) 
1

>  <s_m_source_file>  (18) 
/var/tmp/pbs.5076255.sched01/tmphrtf3o8j/0_qqz9eae.sdf

>  <i_m_source_file_index>  (18) 
6

>  <i_lp_mmshare_version>  (18) 
48012

>  <i_f3d_flags>  (18) 
0

>  <s_epik_input>  (18) 
bjFbY0hdbmMobjEyKW4oW0NIM10pW2NIXWMyW04rXSg9TylbTy1d

>  <s_epik_cmdline>  (18) 
J2VwaWtfcHl0aG9uJywgJy1waHQnLCAnMi4wJywgJy1waCcsICc3LjAnLCAnLXRuJywgJzgnLCAnLW1hJywgJzIwMCcsICctaW1hZScsICc8aW5maWxlLm1hZT4nLCAnLW9tYWUnLCAnPG91dGZpbGUubWFlPic=

>  <r_lp_tautomer_probability>  (18) 
1

>  <r_epik_Ionization_Penalty>  (18) 
4.59025e-09

>  <r_epik_Ionization_Penalty_Charging>  (18) 
0

>  <r_epik_Ionization_Penalty_Neutral>  (18) 
4.59025e-09

>  <r_epik_State_Penalty>  (18) 
-0

>  <r_epik_Charging_Adjusted_Penalty>  (18) 
0

>  <i_epik_Tot_Q>  (18) 
0

>  <i_epik_Tot_abs_Q>  (18) 
2

>  <s_lp_Force_Field>  (18) 
OPLS3e

>  <r_lp_Energy>  (18) 
3.95327

>  <b_lp_Chiralities_Consistent>  (18) 
1

>  <s_lp_Variant>  (18) 
4:0-1

>  <s_i_glide_gridfile>  (18) 
pfpi4k_grid

>  <i_i_glide_lignum>  (18) 
6

>  <i_i_glide_rotatable_bonds>  (18) 
1

>  <r_i_docking_score>  (18) 
-3.78075

>  <r_i_glide_ligand_efficiency>  (18) 
-0.315063

>  <r_i_glide_ligand_efficiency_sa>  (18) 
-0.721313

>  <r_i_glide_ligand_efficiency_ln>  (18) 
-1.08489

>  <r_i_glide_gscore>  (18) 
-3.78075

>  <r_i_glide_lipo>  (18) 
0

>  <r_i_glide_hbond>  (18) 
-0.0822594

>  <r_i_glide_metal>  (18) 
-0

>  <r_i_glide_rewards>  (18) 
-2.25

>  <r_i_glide_evdw>  (18) 
-15.7729

>  <r_i_glide_ecoul>  (18) 
-2.99197

>  <r_i_glide_erotb>  (18) 
0

>  <r_i_glide_esite>  (18) 
-0.211051

>  <r_i_glide_emodel>  (18) 
-24.2359

>  <r_i_glide_energy>  (18) 
-18.7649

>  <r_i_glide_einternal>  (18) 
0.0547246

>  <r_i_glide_intrahb_reward>  (18) 
-0

>  <i_i_glide_confnum>  (18) 
1

>  <i_i_glide_posenum>  (18) 
1

>  <r_i_glide_eff_state_penalty>  (18) 
0

>  <ligand_id>  (18) 
4

>  <original_smiles>  (18) 
Cn1cc([N+](=O)[O-])n2ncnc12

>  <smiles>  (18) 
[H]c1nc2n(C([H])([H])[H])c([H])c([N+](=O)[O-])n2n1

$$$$
5:0:0
     RDKit          3D

 74 81  0  0  1  0  0  0  0  0999 V2000
    1.2660  -11.0087    5.0742 C   0  0  0  0  0  0  0  0  0  0  0  0
    1.9538   -9.9578    4.5212 C   0  0  0  0  0  0  0  0  0  0  0  0
    3.4524   -9.7695    4.5218 C   0  0  1  0  0  0  0  0  0  0  0  0
    4.2022  -10.8695    3.9901 O   0  0  0  0  0  0  0  0  0  0  0  0
    3.5681  -11.8405    3.1651 C   0  0  0  0  0  0  0  0  0  0  0  0
    3.5737   -8.5305    3.5833 C   0  0  1  0  0  0  0  0  0  0  0  0
    2.4668   -8.8040    2.5659 C   0  0  2  0  0  0  0  0  0  0  0  0
    2.7087   -7.8931    1.2974 C   0  0  0  0  0  0  0  0  0  0  0  0
    2.3795   -6.5908    1.1490 C   0  0  0  0  0  0  0  0  0  0  0  0
    1.7776   -6.1882    2.2658 C   0  0  0  0  0  0  0  0  0  0  0  0
    0.5590   -5.9931    2.3092 O   0  0  0  0  0  0  0  0  0  0  0  0
    2.9333   -5.9630    3.3324 C   0  0  1  0  0  0  0  0  0  0  0  0
    2.2898   -4.7578    3.8846 C   0  0  0  0  0  0  0  0  0  0  0  0
    1.3066   -4.9277    4.7930 C   0  0  0  0  0  0  0  0  0  0  0  0
    0.7715   -6.3433    5.1920 C   0  0  0  0  0  0  0  0  0  0  0  0
    1.7063   -7.5710    4.8018 C   0  0  2  0  0  0  0  0  0  0  0  0
    3.0851   -7.1860    4.2883 C   0  0  1  0  0  0  0  0  0  0  0  0
    1.3889   -8.7660    3.7625 C   0  0  2  0  0  0  0  0  0  0  0  0
   -0.0825   -8.9683    3.3546 C   0  0  0  0  0  0  0  0  0  0  0  0
    2.7268   -3.5223    3.0222 C   0  0  2  0  0  0  0  0  0  0  0  0
    1.6801   -2.3970    3.2147 C   0  0  0  0  0  0  0  0  0  0  0  0
    2.8446   -3.8726    1.3862 C   0  0  1  0  0  0  0  0  0  0  0  0
    3.5470   -2.7962    0.7258 O   0  0  0  0  0  0  0  0  0  0  0  0
    4.7900   -2.9315    0.0143 C   0  0  1  0  0  0  0  0  0  0  0  0
    5.0188   -1.6422   -0.7172 C   0  0  0  0  0  0  0  0  0  0  0  0
    4.8165   -1.4230   -2.0203 C   0  0  0  0  0  0  0  0  0  0  0  0
    4.3275   -2.4013   -3.0755 C   0  0  0  0  0  0  0  0  0  0  0  0
    6.0214   -3.2509    0.8650 C   0  0  0  0  0  0  0  0  0  0  0  0
    6.0733   -3.7785    2.1276 C   0  0  0  0  0  0  0  0  0  0  0  0
    5.1083   -4.2743    3.2316 C   0  0  2  0  0  0  0  0  0  0  0  0
    4.4095   -5.6390    2.7779 C   0  0  2  0  0  0  0  0  0  0  0  0
    4.4888   -5.7278    1.3439 O   0  0  0  0  0  0  0  0  0  0  0  0
    3.2539   -5.3656    0.7755 C   0  0  1  0  0  0  0  0  0  0  0  0
    4.0923   -3.1238    3.6767 C   0  0  0  0  0  0  0  0  0  0  0  0
    4.5645   -1.6745    3.3292 C   0  0  0  0  0  0  0  0  0  0  0  0
    4.1012   -3.1396    5.2202 C   0  0  0  0  0  0  0  0  0  0  0  0
    1.7985  -11.7804    5.5955 H   0  0  0  0  0  0  0  0  0  0  0  0
    0.2013  -11.0890    5.0200 H   0  0  0  0  0  0  0  0  0  0  0  0
    3.8430   -9.5126    5.5204 H   0  0  0  0  0  0  0  0  0  0  0  0
    4.2956  -12.5850    2.8634 H   0  0  0  0  0  0  0  0  0  0  0  0
    3.1404  -11.4507    2.2661 H   0  0  0  0  0  0  0  0  0  0  0  0
    2.7950  -12.3552    3.7157 H   0  0  0  0  0  0  0  0  0  0  0  0
    4.5748   -8.4650    3.1629 H   0  0  0  0  0  0  0  0  0  0  0  0
    2.4451   -9.7639    2.1189 H   0  0  0  0  0  0  0  0  0  0  0  0
    3.5143   -8.2612    0.6793 H   0  0  0  0  0  0  0  0  0  0  0  0
    0.7267   -4.0819    5.1443 H   0  0  0  0  0  0  0  0  0  0  0  0
    0.6311   -6.3290    6.2783 H   0  0  0  0  0  0  0  0  0  0  0  0
   -0.2261   -6.4812    4.7652 H   0  0  0  0  0  0  0  0  0  0  0  0
    1.8582   -8.0039    5.8000 H   0  0  0  0  0  0  0  0  0  0  0  0
    3.7320   -6.9165    5.1305 H   0  0  0  0  0  0  0  0  0  0  0  0
   -0.4494   -8.1994    2.6789 H   0  0  0  0  0  0  0  0  0  0  0  0
   -0.7442   -8.9916    4.2253 H   0  0  0  0  0  0  0  0  0  0  0  0
   -0.2041   -9.9191    2.8324 H   0  0  0  0  0  0  0  0  0  0  0  0
    1.9093   -1.5184    2.6166 H   0  0  0  0  0  0  0  0  0  0  0  0
    1.5966   -2.0576    4.2472 H   0  0  0  0  0  0  0  0  0  0  0  0
    0.6795   -2.7066    2.9137 H   0  0  0  0  0  0  0  0  0  0  0  0
    1.8228   -3.7322    1.0146 H   0  0  0  0  0  0  0  0  0  0  0  0
    4.7086   -3.7384   -0.6762 H   0  0  0  0  0  0  0  0  0  0  0  0
    5.3529   -0.8180   -0.1096 H   0  0  0  0  0  0  0  0  0  0  0  0
    5.0031   -0.4293   -2.3975 H   0  0  0  0  0  0  0  0  0  0  0  0
    5.0159   -2.3985   -3.9182 H   0  0  0  0  0  0  0  0  0  0  0  0
    3.3453   -2.1034   -3.4447 H   0  0  0  0  0  0  0  0  0  0  0  0
    4.2537   -3.4260   -2.7194 H   0  0  0  0  0  0  0  0  0  0  0  0
    6.9954   -3.0670    0.4251 H   0  0  0  0  0  0  0  0  0  0  0  0
    5.1056   -3.7055    1.9740 H   0  0  0  0  0  0  0  0  0  0  0  0
    5.7519   -4.5254    4.0969 H   0  0  0  0  0  0  0  0  0  0  0  0
    5.1236   -6.3955    3.0783 H   0  0  0  0  0  0  0  0  0  0  0  0
    3.3065   -5.3379   -0.3111 H   0  0  0  0  0  0  0  0  0  0  0  0
    5.5856   -1.4846    3.6425 H   0  0  0  0  0  0  0  0  0  0  0  0
    3.9492   -0.9365    3.8276 H   0  0  0  0  0  0  0  0  0  0  0  0
    4.5149   -1.4133    2.2875 H   0  0  0  0  0  0  0  0  0  0  0  0
    5.0340   -2.7449    5.6314 H   0  0  0  0  0  0  0  0  0  0  0  0
    3.9988   -4.1345    5.6664 H   0  0  0  0  0  0  0  0  0  0  0  0
    3.3110   -2.5272    5.6502 H   0  0  0  0  0  0  0  0  0  0  0  0
  1  2  2  0
  1 37  1  0
  1 38  1  0
  2 18  1  0
  2  3  1  0
  3  4  1  0
  3  6  1  0
  3 39  1  1
  4  5  1  0
  5 40  1  0
  5 41  1  0
  5 42  1  0
  6 17  1  0
  6  7  1  0
  6 43  1  6
  7 18  1  0
  7  8  1  0
  7 44  1  6
  8  9  2  0
  8 45  1  0
  9 33  1  0
  9 10  1  0
 10 11  2  0
 12 10  1  6
 12 17  1  0
 12 31  1  0
 12 13  1  0
 13 14  2  0
 13 20  1  0
 14 15  1  0
 14 46  1  0
 15 16  1  0
 15 47  1  0
 15 48  1  0
 16 17  1  0
 16 18  1  0
 16 49  1  1
 17 50  1  1
 18 19  1  6
 19 51  1  0
 19 52  1  0
 19 53  1  0
 20 34  1  0
 20 21  1  6
 20 22  1  0
 21 54  1  0
 21 55  1  0
 21 56  1  0
 22 33  1  0
 22 23  1  0
 22 57  1  6
 23 24  1  0
 24 25  1  0
 24 28  1  0
 24 58  1  6
 25 26  2  3
 25 59  1  0
 26 27  1  0
 26 60  1  0
 27 61  1  0
 27 62  1  0
 27 63  1  0
 28 29  2  3
 28 64  1  0
 29 30  1  0
 29 65  1  0
 30 31  1  0
 30 34  1  0
 30 66  1  1
 31 32  1  0
 31 67  1  1
 32 33  1  0
 33 68  1  6
 34 35  1  0
 34 36  1  0
 35 69  1  0
 35 70  1  0
 35 71  1  0
 36 72  1  0
 36 73  1  0
 36 74  1  0
M  END
>  <i_m_ct_stereo_status>  (19) 
1

>  <s_m_source_file>  (19) 
/var/tmp/pbs.5076255.sched01/tmphrtf3o8j/0_qqz9eae.sdf

>  <i_m_source_file_index>  (19) 
7

>  <i_lp_mmshare_version>  (19) 
48012

>  <i_f3d_flags>  (19) 
3

>  <s_epik_input>  (19) 
W0NIM11PW0NAQEhdMUMoPVtDSDJdKVtDQEBdMihbQ0gzXSlbQ0BASF0oW0NIMl1bQ0hdMylbQ0BASF00W0NAQEhdMVtDQEBIXTJbQ0hdPUMoQzU9TylbQ0BIXShbQ0BASF02W0NAQF03KEM9M1tDQF00NTgpW0NIM10pT1tDQEBIXThbQ0BASF0oQzcoW0NIM10pW0NIM10pL1tDSF09W0NIXVxbQ0BASF0oTzYpL1tDSF09W0NIXS9bQ0gzXQ==

>  <s_epik_cmdline>  (19) 
J2VwaWtfcHl0aG9uJywgJy1waHQnLCAnMi4wJywgJy1waCcsICc3LjAnLCAnLXRuJywgJzgnLCAnLW1hJywgJzIwMCcsICctaW1hZScsICc8aW5maWxlLm1hZT4nLCAnLW9tYWUnLCAnPG91dGZpbGUubWFlPic=

>  <r_lp_tautomer_probability>  (19) 
1

>  <r_epik_Ionization_Penalty>  (19) 
1.60317e-12

>  <r_epik_Ionization_Penalty_Charging>  (19) 
0

>  <r_epik_Ionization_Penalty_Neutral>  (19) 
1.60317e-12

>  <r_epik_State_Penalty>  (19) 
-0

>  <r_epik_Charging_Adjusted_Penalty>  (19) 
0

>  <i_epik_Tot_Q>  (19) 
0

>  <i_epik_Tot_abs_Q>  (19) 
0

>  <s_lp_Force_Field>  (19) 
OPLS3e

>  <r_lp_Energy>  (19) 
235.335

>  <b_lp_Chiralities_Consistent>  (19) 
0

>  <s_lp_Variant>  (19) 
5:0-1

>  <s_i_glide_gridfile>  (19) 
pfpi4k_grid

>  <i_i_glide_lignum>  (19) 
7

>  <i_i_glide_rotatable_bonds>  (19) 
2

>  <r_i_docking_score>  (19) 
-2.1331

>  <r_i_glide_ligand_efficiency>  (19) 
-0.0592528

>  <r_i_glide_ligand_efficiency_sa>  (19) 
-0.195649

>  <r_i_glide_ligand_efficiency_ln>  (19) 
-0.465385

>  <r_i_glide_gscore>  (19) 
-2.1331

>  <r_i_glide_lipo>  (19) 
-0.334892

>  <r_i_glide_hbond>  (19) 
-0.142437

>  <r_i_glide_metal>  (19) 
-0

>  <r_i_glide_rewards>  (19) 
-0.0910792

>  <r_i_glide_evdw>  (19) 
-22.7457

>  <r_i_glide_ecoul>  (19) 
-3.23387

>  <r_i_glide_erotb>  (19) 
0.0858191

>  <r_i_glide_esite>  (19) 
-0.0281473

>  <r_i_glide_emodel>  (19) 
-23.2388

>  <r_i_glide_energy>  (19) 
-25.9796

>  <r_i_glide_einternal>  (19) 
9.44452

>  <r_i_glide_intrahb_reward>  (19) 
-0

>  <i_i_glide_confnum>  (19) 
1

>  <i_i_glide_posenum>  (19) 
9

>  <r_i_glide_eff_state_penalty>  (19) 
0

>  <ligand_id>  (19) 
5

>  <original_smiles>  (19) 
C=C1C(OC)C2C3C=C4C(=O)C56C(=CCC(C25)C13C)C1(C)C2OC(C=CC)C=CC(C6OC42)C1(C)C

>  <smiles>  (19) 
[H]C([H])=C1C([H])(OC([H])([H])[H])C2([H])C3([H])C([H])=C4C(=O)C56C(=C([H])C([H])([H])C([H])(C52[H])C13C([H])([H])[H])C1(C([H])([H])[H])C2([H])OC([H])(C([H])=C([H])C([H])([H])[H])C([H])=C([H])C([H])(C6([H])OC42[H])C1(C([H])([H])[H])C([H])([H])[H]

$$$$
5:0:1
     RDKit          3D

 74 81  0  0  1  0  0  0  0  0999 V2000
    1.2412  -11.7506    4.0392 C   0  0  0  0  0  0  0  0  0  0  0  0
    1.8011  -10.5531    3.9036 C   0  0  0  0  0  0  0  0  0  0  0  0
    3.2737  -10.1675    4.1300 C   0  0  1  0  0  0  0  0  0  0  0  0
    4.1834  -10.9029    3.3140 O   0  0  0  0  0  0  0  0  0  0  0  0
    4.4946  -12.2200    3.7505 C   0  0  0  0  0  0  0  0  0  0  0  0
    3.2724   -8.6977    3.6229 C   0  0  1  0  0  0  0  0  0  0  0  0
    2.2842   -8.7786    2.4545 C   0  0  2  0  0  0  0  0  0  0  0  0
    2.4502   -7.4873    1.5420 C   0  0  0  0  0  0  0  0  0  0  0  0
    1.9522   -6.2396    1.7975 C   0  0  0  0  0  0  0  0  0  0  0  0
    1.2534   -6.2842    2.9198 C   0  0  0  0  0  0  0  0  0  0  0  0
    0.0167   -6.2673    2.9112 O   0  0  0  0  0  0  0  0  0  0  0  0
    2.3005   -6.2752    4.1063 C   0  0  1  0  0  0  0  0  0  0  0  0
    1.4809   -5.3804    4.9434 C   0  0  0  0  0  0  0  0  0  0  0  0
    0.4863   -5.9436    5.6636 C   0  0  0  0  0  0  0  0  0  0  0  0
    0.1263   -7.4621    5.5496 C   0  0  0  0  0  0  0  0  0  0  0  0
    1.2325   -8.3920    4.8772 C   0  0  2  0  0  0  0  0  0  0  0  0
    2.5662   -7.7060    4.6431 C   0  0  1  0  0  0  0  0  0  0  0  0
    1.1360   -9.2232    3.4957 C   0  0  2  0  0  0  0  0  0  0  0  0
   -0.2784   -9.4419    2.9135 C   0  0  0  0  0  0  0  0  0  0  0  0
    1.7815   -3.8947    4.5508 C   0  0  2  0  0  0  0  0  0  0  0  0
    0.5960   -3.0091    4.9932 C   0  0  0  0  0  0  0  0  0  0  0  0
    2.0298   -3.6978    2.8995 C   0  0  1  0  0  0  0  0  0  0  0  0
    2.6094   -2.3954    2.6686 O   0  0  0  0  0  0  0  0  0  0  0  0
    3.9056   -2.1541    2.0869 C   0  0  1  0  0  0  0  0  0  0  0  0
    3.9897   -0.6821    1.8064 C   0  0  0  0  0  0  0  0  0  0  0  0
    4.7659   -0.0844    0.8961 C   0  0  0  0  0  0  0  0  0  0  0  0
    5.7806   -0.7208   -0.0260 C   0  0  0  0  0  0  0  0  0  0  0  0
    5.1182   -2.5776    2.8874 C   0  0  0  0  0  0  0  0  0  0  0  0
    5.1827   -3.4792    3.9379 C   0  0  0  0  0  0  0  0  0  0  0  0
    4.2236   -4.3919    4.7250 C   0  0  2  0  0  0  0  0  0  0  0  0
    3.7524   -5.6106    3.8094 C   0  0  2  0  0  0  0  0  0  0  0  0
    3.9092   -5.2337    2.4300 O   0  0  0  0  0  0  0  0  0  0  0  0
    2.6664   -4.8659    1.8911 C   0  0  1  0  0  0  0  0  0  0  0  0
    3.0566   -3.5756    5.4203 C   0  0  0  0  0  0  0  0  0  0  0  0
    3.3472   -2.0473    5.5825 C   0  0  0  0  0  0  0  0  0  0  0  0
    2.9894   -4.0846    6.8832 C   0  0  0  0  0  0  0  0  0  0  0  0
    1.8040  -12.6186    4.3637 H   0  0  0  0  0  0  0  0  0  0  0  0
    0.1886  -11.9114    3.8303 H   0  0  0  0  0  0  0  0  0  0  0  0
    3.5722  -10.2084    5.1788 H   0  0  0  0  0  0  0  0  0  0  0  0
    5.2423  -12.6525    3.0808 H   0  0  0  0  0  0  0  0  0  0  0  0
    3.6294  -12.8781    3.7279 H   0  0  0  0  0  0  0  0  0  0  0  0
    4.9121  -12.2140    4.7603 H   0  0  0  0  0  0  0  0  0  0  0  0
    4.2716   -8.3904    3.3172 H   0  0  0  0  0  0  0  0  0  0  0  0
    2.5030   -9.6023    1.7645 H   0  0  0  0  0  0  0  0  0  0  0  0
    3.3236   -7.5219    0.9107 H   0  0  0  0  0  0  0  0  0  0  0  0
   -0.2181   -5.3218    6.2085 H   0  0  0  0  0  0  0  0  0  0  0  0
   -0.0655   -7.8077    6.5702 H   0  0  0  0  0  0  0  0  0  0  0  0
   -0.8271   -7.5621    5.0194 H   0  0  0  0  0  0  0  0  0  0  0  0
    1.3912   -9.1030    5.6960 H   0  0  0  0  0  0  0  0  0  0  0  0
    3.1280   -7.6545    5.5757 H   0  0  0  0  0  0  0  0  0  0  0  0
   -0.7082   -8.5373    2.4927 H   0  0  0  0  0  0  0  0  0  0  0  0
   -0.9680   -9.8019    3.6773 H   0  0  0  0  0  0  0  0  0  0  0  0
   -0.2588  -10.1805    2.1132 H   0  0  0  0  0  0  0  0  0  0  0  0
    0.7374   -1.9671    4.7200 H   0  0  0  0  0  0  0  0  0  0  0  0
    0.4178   -3.0295    6.0671 H   0  0  0  0  0  0  0  0  0  0  0  0
   -0.3324   -3.3146    4.5217 H   0  0  0  0  0  0  0  0  0  0  0  0
    1.0176   -3.5536    2.5139 H   0  0  0  0  0  0  0  0  0  0  0  0
    3.9645   -2.6722    1.1478 H   0  0  0  0  0  0  0  0  0  0  0  0
    3.3317   -0.0716    2.3911 H   0  0  0  0  0  0  0  0  0  0  0  0
    4.6470    0.9734    0.7884 H   0  0  0  0  0  0  0  0  0  0  0  0
    6.7359   -0.2077    0.0861 H   0  0  0  0  0  0  0  0  0  0  0  0
    5.4586   -0.6167   -1.0619 H   0  0  0  0  0  0  0  0  0  0  0  0
    5.9371   -1.7764    0.1858 H   0  0  0  0  0  0  0  0  0  0  0  0
    6.0783   -2.1654    2.6339 H   0  0  0  0  0  0  0  0  0  0  0  0
    4.1895   -3.4958    3.7541 H   0  0  0  0  0  0  0  0  0  0  0  0
    4.8553   -4.8345    5.5103 H   0  0  0  0  0  0  0  0  0  0  0  0
    4.5428   -6.3445    3.9285 H   0  0  0  0  0  0  0  0  0  0  0  0
    2.7650   -4.4786    0.8845 H   0  0  0  0  0  0  0  0  0  0  0  0
    4.3216   -1.8552    6.0306 H   0  0  0  0  0  0  0  0  0  0  0  0
    2.6180   -1.5881    6.2259 H   0  0  0  0  0  0  0  0  0  0  0  0
    3.3147   -1.4748    4.6681 H   0  0  0  0  0  0  0  0  0  0  0  0
    3.8396   -3.7382    7.4688 H   0  0  0  0  0  0  0  0  0  0  0  0
    2.9985   -5.1688    6.9804 H   0  0  0  0  0  0  0  0  0  0  0  0
    2.1128   -3.7286    7.3925 H   0  0  0  0  0  0  0  0  0  0  0  0
  1  2  2  0
  1 37  1  0
  1 38  1  0
  2 18  1  0
  2  3  1  0
  3  4  1  0
  3  6  1  0
  3 39  1  1
  4  5  1  0
  5 40  1  0
  5 41  1  0
  5 42  1  0
  6 17  1  0
  6  7  1  0
  6 43  1  6
  7 18  1  0
  7  8  1  0
  7 44  1  6
  8  9  2  0
  8 45  1  0
  9 33  1  0
  9 10  1  0
 10 11  2  0
 12 10  1  6
 12 17  1  0
 12 31  1  0
 12 13  1  0
 13 14  2  0
 13 20  1  0
 14 15  1  0
 14 46  1  0
 15 16  1  0
 15 47  1  0
 15 48  1  0
 16 17  1  0
 16 18  1  0
 16 49  1  1
 17 50  1  1
 18 19  1  6
 19 51  1  0
 19 52  1  0
 19 53  1  0
 20 34  1  0
 20 21  1  1
 20 22  1  0
 21 54  1  0
 21 55  1  0
 21 56  1  0
 22 33  1  0
 22 23  1  0
 22 57  1  6
 23 24  1  0
 24 25  1  0
 24 28  1  0
 24 58  1  6
 25 26  2  3
 25 59  1  0
 26 27  1  0
 26 60  1  0
 27 61  1  0
 27 62  1  0
 27 63  1  0
 28 29  2  3
 28 64  1  0
 29 30  1  0
 29 65  1  0
 30 31  1  0
 30 34  1  0
 30 66  1  1
 31 32  1  0
 31 67  1  1
 32 33  1  0
 33 68  1  6
 34 35  1  0
 34 36  1  0
 35 69  1  0
 35 70  1  0
 35 71  1  0
 36 72  1  0
 36 73  1  0
 36 74  1  0
M  END
>  <i_m_ct_stereo_status>  (20) 
1

>  <s_m_source_file>  (20) 
/var/tmp/pbs.5076255.sched01/tmphrtf3o8j/0_qqz9eae.sdf

>  <i_m_source_file_index>  (20) 
7

>  <i_lp_mmshare_version>  (20) 
48012

>  <i_f3d_flags>  (20) 
3

>  <s_epik_input>  (20) 
W0NIM11PW0NAQEhdMUMoPVtDSDJdKVtDQEBdMihbQ0gzXSlbQ0BASF0oW0NIMl1bQ0hdMylbQ0BASF00W0NAQEhdMVtDQEBIXTJbQ0hdPUMoQzU9TylbQ0BIXShbQ0BASF02W0NAQF03KEM9M1tDQF00NTgpW0NIM10pT1tDQEBIXThbQ0BASF0oQzcoW0NIM10pW0NIM10pL1tDSF09W0NIXVxbQ0BASF0oTzYpL1tDSF09W0NIXS9bQ0gzXQ==

>  <s_epik_cmdline>  (20) 
J2VwaWtfcHl0aG9uJywgJy1waHQnLCAnMi4wJywgJy1waCcsICc3LjAnLCAnLXRuJywgJzgnLCAnLW1hJywgJzIwMCcsICctaW1hZScsICc8aW5maWxlLm1hZT4nLCAnLW9tYWUnLCAnPG91dGZpbGUubWFlPic=

>  <r_lp_tautomer_probability>  (20) 
1

>  <r_epik_Ionization_Penalty>  (20) 
1.60317e-12

>  <r_epik_Ionization_Penalty_Charging>  (20) 
0

>  <r_epik_Ionization_Penalty_Neutral>  (20) 
1.60317e-12

>  <r_epik_State_Penalty>  (20) 
-0

>  <r_epik_Charging_Adjusted_Penalty>  (20) 
0

>  <i_epik_Tot_Q>  (20) 
0

>  <i_epik_Tot_abs_Q>  (20) 
0

>  <s_lp_Force_Field>  (20) 
OPLS3e

>  <r_lp_Energy>  (20) 
235.335

>  <b_lp_Chiralities_Consistent>  (20) 
0

>  <s_lp_Variant>  (20) 
5:0-1

>  <s_i_glide_gridfile>  (20) 
pfpi4k_grid

>  <i_i_glide_lignum>  (20) 
7

>  <i_i_glide_rotatable_bonds>  (20) 
2

>  <r_i_docking_score>  (20) 
-1.95108

>  <r_i_glide_ligand_efficiency>  (20) 
-0.0541967

>  <r_i_glide_ligand_efficiency_sa>  (20) 
-0.178953

>  <r_i_glide_ligand_efficiency_ln>  (20) 
-0.425673

>  <r_i_glide_gscore>  (20) 
-1.95108

>  <r_i_glide_lipo>  (20) 
-0.309745

>  <r_i_glide_hbond>  (20) 
-0.136384

>  <r_i_glide_metal>  (20) 
-0

>  <r_i_glide_rewards>  (20) 
-0.0910792

>  <r_i_glide_evdw>  (20) 
-21.6535

>  <r_i_glide_ecoul>  (20) 
-2.57593

>  <r_i_glide_erotb>  (20) 
0.0858191

>  <r_i_glide_esite>  (20) 
-0.0306271

>  <r_i_glide_emodel>  (20) 
-25.7823

>  <r_i_glide_energy>  (20) 
-24.2294

>  <r_i_glide_einternal>  (20) 
2.1967

>  <r_i_glide_intrahb_reward>  (20) 
-0

>  <i_i_glide_confnum>  (20) 
1

>  <i_i_glide_posenum>  (20) 
7

>  <r_i_glide_eff_state_penalty>  (20) 
0

>  <ligand_id>  (20) 
5

>  <original_smiles>  (20) 
C=C1C(OC)C2C3C=C4C(=O)C56C(=CCC(C25)C13C)C1(C)C2OC(C=CC)C=CC(C6OC42)C1(C)C

>  <smiles>  (20) 
[H]C([H])=C1C([H])(OC([H])([H])[H])C2([H])C3([H])C([H])=C4C(=O)C56C(=C([H])C([H])([H])C([H])(C52[H])C13C([H])([H])[H])C1(C([H])([H])[H])C2([H])OC([H])(C([H])=C([H])C([H])([H])[H])C([H])=C([H])C([H])(C6([H])OC42[H])C1(C([H])([H])[H])C([H])([H])[H]

$$$$
5:0:2
     RDKit          3D

 74 81  0  0  1  0  0  0  0  0999 V2000
    6.7752   -5.4392    0.5150 C   0  0  0  0  0  0  0  0  0  0  0  0
    6.1170   -4.2885    0.8690 C   0  0  0  0  0  0  0  0  0  0  0  0
    6.6223   -2.8619    0.7270 C   0  0  1  0  0  0  0  0  0  0  0  0
    6.9935   -2.4932   -0.6015 O   0  0  0  0  0  0  0  0  0  0  0  0
    8.3142   -2.8428   -0.9829 C   0  0  0  0  0  0  0  0  0  0  0  0
    5.3327   -2.0785    1.0946 C   0  0  1  0  0  0  0  0  0  0  0  0
    4.2571   -2.9747    0.4732 C   0  0  2  0  0  0  0  0  0  0  0  0
    2.9045   -2.1459    0.3759 C   0  0  0  0  0  0  0  0  0  0  0  0
    2.0193   -1.8948    1.3727 C   0  0  0  0  0  0  0  0  0  0  0  0
    2.4398   -2.4946    2.4755 C   0  0  0  0  0  0  0  0  0  0  0  0
    1.8992   -3.5041    2.9278 O   0  0  0  0  0  0  0  0  0  0  0  0
    3.6084   -1.6121    3.0472 C   0  0  1  0  0  0  0  0  0  0  0  0
    3.1788   -1.7903    4.4410 C   0  0  0  0  0  0  0  0  0  0  0  0
    3.5888   -2.9255    5.0764 C   0  0  0  0  0  0  0  0  0  0  0  0
    4.3772   -4.0356    4.3190 C   0  0  0  0  0  0  0  0  0  0  0  0
    5.0462   -3.6216    2.9318 C   0  0  2  0  0  0  0  0  0  0  0  0
    5.0123   -2.1397    2.6449 C   0  0  1  0  0  0  0  0  0  0  0  0
    4.7132   -4.1713    1.4523 C   0  0  2  0  0  0  0  0  0  0  0  0
    3.9070   -5.4819    1.3647 C   0  0  0  0  0  0  0  0  0  0  0  0
    2.0822   -0.7587    4.8115 C   0  0  2  0  0  0  0  0  0  0  0  0
    1.2668   -1.2766    6.0235 C   0  0  0  0  0  0  0  0  0  0  0  0
    1.0535   -0.4615    3.5160 C   0  0  1  0  0  0  0  0  0  0  0  0
    0.2791    0.7175    3.7676 O   0  0  0  0  0  0  0  0  0  0  0  0
    0.2573    1.9528    3.0357 C   0  0  1  0  0  0  0  0  0  0  0  0
   -0.8437    2.8228    3.5649 C   0  0  0  0  0  0  0  0  0  0  0  0
   -1.5443    2.7040    4.7204 C   0  0  0  0  0  0  0  0  0  0  0  0
   -1.4293    1.6892    5.8362 C   0  0  0  0  0  0  0  0  0  0  0  0
    1.5889    2.7638    3.0457 C   0  0  0  0  0  0  0  0  0  0  0  0
    2.8470    2.3734    3.3723 C   0  0  0  0  0  0  0  0  0  0  0  0
    3.5706    1.0494    3.8636 C   0  0  2  0  0  0  0  0  0  0  0  0
    3.5968   -0.0260    2.6779 C   0  0  2  0  0  0  0  0  0  0  0  0
    2.5524    0.3006    1.7255 O   0  0  0  0  0  0  0  0  0  0  0  0
    1.4598   -0.5567    1.9113 C   0  0  1  0  0  0  0  0  0  0  0  0
    2.9431    0.5060    5.2224 C   0  0  0  0  0  0  0  0  0  0  0  0
    2.1407    1.5836    6.0454 C   0  0  0  0  0  0  0  0  0  0  0  0
    4.1521    0.1955    6.1461 C   0  0  0  0  0  0  0  0  0  0  0  0
    7.7716   -5.4239    0.1228 H   0  0  0  0  0  0  0  0  0  0  0  0
    6.3203   -6.4036    0.6382 H   0  0  0  0  0  0  0  0  0  0  0  0
    7.4168   -2.6232    1.4284 H   0  0  0  0  0  0  0  0  0  0  0  0
    8.5014   -2.4884   -1.9936 H   0  0  0  0  0  0  0  0  0  0  0  0
    8.4760   -3.9135   -1.0052 H   0  0  0  0  0  0  0  0  0  0  0  0
    9.0568   -2.3946   -0.3238 H   0  0  0  0  0  0  0  0  0  0  0  0
    5.3474   -1.0714    0.6759 H   0  0  0  0  0  0  0  0  0  0  0  0
    4.4680   -3.2378   -0.5682 H   0  0  0  0  0  0  0  0  0  0  0  0
    2.9080   -1.4407   -0.4490 H   0  0  0  0  0  0  0  0  0  0  0  0
    3.2168   -3.1759    6.0549 H   0  0  0  0  0  0  0  0  0  0  0  0
    5.1577   -4.3850    5.0095 H   0  0  0  0  0  0  0  0  0  0  0  0
    3.7200   -4.9041    4.1767 H   0  0  0  0  0  0  0  0  0  0  0  0
    6.0875   -3.8654    3.1518 H   0  0  0  0  0  0  0  0  0  0  0  0
    5.7774   -1.6160    3.2217 H   0  0  0  0  0  0  0  0  0  0  0  0
    2.8675   -5.3558    1.6463 H   0  0  0  0  0  0  0  0  0  0  0  0
    4.3298   -6.2445    2.0168 H   0  0  0  0  0  0  0  0  0  0  0  0
    3.9106   -5.8712    0.3477 H   0  0  0  0  0  0  0  0  0  0  0  0
    0.4773   -0.6040    6.3196 H   0  0  0  0  0  0  0  0  0  0  0  0
    1.8771   -1.4183    6.9070 H   0  0  0  0  0  0  0  0  0  0  0  0
    0.7931   -2.2229    5.8035 H   0  0  0  0  0  0  0  0  0  0  0  0
    0.2732   -1.2258    3.6235 H   0  0  0  0  0  0  0  0  0  0  0  0
    0.0625    1.7342    2.0067 H   0  0  0  0  0  0  0  0  0  0  0  0
   -1.0939    3.6270    2.8952 H   0  0  0  0  0  0  0  0  0  0  0  0
   -2.3124    3.4280    4.8816 H   0  0  0  0  0  0  0  0  0  0  0  0
   -2.3881    1.2389    6.0573 H   0  0  0  0  0  0  0  0  0  0  0  0
   -1.0324    2.1524    6.7324 H   0  0  0  0  0  0  0  0  0  0  0  0
   -0.7884    0.8514    5.6308 H   0  0  0  0  0  0  0  0  0  0  0  0
    1.5231    3.7866    2.7170 H   0  0  0  0  0  0  0  0  0  0  0  0
    2.3274    1.5595    3.5419 H   0  0  0  0  0  0  0  0  0  0  0  0
    4.6041    1.3527    4.0485 H   0  0  0  0  0  0  0  0  0  0  0  0
    4.4912    0.2570    2.1093 H   0  0  0  0  0  0  0  0  0  0  0  0
    0.6210   -0.2650    1.2842 H   0  0  0  0  0  0  0  0  0  0  0  0
    2.7012    2.5105    6.1649 H   0  0  0  0  0  0  0  0  0  0  0  0
    1.9098    1.2282    7.0440 H   0  0  0  0  0  0  0  0  0  0  0  0
    1.1978    1.8695    5.6091 H   0  0  0  0  0  0  0  0  0  0  0  0
    4.6316    1.1138    6.4844 H   0  0  0  0  0  0  0  0  0  0  0  0
    4.9326   -0.3731    5.6456 H   0  0  0  0  0  0  0  0  0  0  0  0
    3.8591   -0.3476    7.0297 H   0  0  0  0  0  0  0  0  0  0  0  0
  1  2  2  0
  1 37  1  0
  1 38  1  0
  2 18  1  0
  2  3  1  0
  3  4  1  0
  3  6  1  0
  3 39  1  1
  4  5  1  0
  5 40  1  0
  5 41  1  0
  5 42  1  0
  6 17  1  0
  6  7  1  0
  6 43  1  6
  7 18  1  0
  7  8  1  0
  7 44  1  6
  8  9  2  0
  8 45  1  0
  9 33  1  0
  9 10  1  0
 10 11  2  0
 12 10  1  6
 12 17  1  0
 12 31  1  0
 12 13  1  0
 13 14  2  0
 13 20  1  0
 14 15  1  0
 14 46  1  0
 15 16  1  0
 15 47  1  0
 15 48  1  0
 16 17  1  0
 16 18  1  0
 16 49  1  1
 17 50  1  1
 18 19  1  1
 19 51  1  0
 19 52  1  0
 19 53  1  0
 20 34  1  0
 20 21  1  1
 20 22  1  0
 21 54  1  0
 21 55  1  0
 21 56  1  0
 22 33  1  0
 22 23  1  0
 22 57  1  6
 23 24  1  0
 24 25  1  0
 24 28  1  0
 24 58  1  6
 25 26  2  3
 25 59  1  0
 26 27  1  0
 26 60  1  0
 27 61  1  0
 27 62  1  0
 27 63  1  0
 28 29  2  3
 28 64  1  0
 29 30  1  0
 29 65  1  0
 30 31  1  0
 30 34  1  0
 30 66  1  1
 31 32  1  0
 31 67  1  6
 32 33  1  0
 33 68  1  6
 34 35  1  0
 34 36  1  0
 35 69  1  0
 35 70  1  0
 35 71  1  0
 36 72  1  0
 36 73  1  0
 36 74  1  0
M  END
>  <i_m_ct_stereo_status>  (21) 
1

>  <s_m_source_file>  (21) 
/var/tmp/pbs.5076255.sched01/tmphrtf3o8j/0_qqz9eae.sdf

>  <i_m_source_file_index>  (21) 
7

>  <i_lp_mmshare_version>  (21) 
48012

>  <i_f3d_flags>  (21) 
3

>  <s_epik_input>  (21) 
W0NIM11PW0NAQEhdMUMoPVtDSDJdKVtDQEBdMihbQ0gzXSlbQ0BASF0oW0NIMl1bQ0hdMylbQ0BASF00W0NAQEhdMVtDQEBIXTJbQ0hdPUMoQzU9TylbQ0BIXShbQ0BASF02W0NAQF03KEM9M1tDQF00NTgpW0NIM10pT1tDQEBIXThbQ0BASF0oQzcoW0NIM10pW0NIM10pL1tDSF09W0NIXVxbQ0BASF0oTzYpL1tDSF09W0NIXS9bQ0gzXQ==

>  <s_epik_cmdline>  (21) 
J2VwaWtfcHl0aG9uJywgJy1waHQnLCAnMi4wJywgJy1waCcsICc3LjAnLCAnLXRuJywgJzgnLCAnLW1hJywgJzIwMCcsICctaW1hZScsICc8aW5maWxlLm1hZT4nLCAnLW9tYWUnLCAnPG91dGZpbGUubWFlPic=

>  <r_lp_tautomer_probability>  (21) 
1

>  <r_epik_Ionization_Penalty>  (21) 
1.60317e-12

>  <r_epik_Ionization_Penalty_Charging>  (21) 
0

>  <r_epik_Ionization_Penalty_Neutral>  (21) 
1.60317e-12

>  <r_epik_State_Penalty>  (21) 
-0

>  <r_epik_Charging_Adjusted_Penalty>  (21) 
0

>  <i_epik_Tot_Q>  (21) 
0

>  <i_epik_Tot_abs_Q>  (21) 
0

>  <s_lp_Force_Field>  (21) 
OPLS3e

>  <r_lp_Energy>  (21) 
235.335

>  <b_lp_Chiralities_Consistent>  (21) 
0

>  <s_lp_Variant>  (21) 
5:0-1

>  <s_i_glide_gridfile>  (21) 
pfpi4k_grid

>  <i_i_glide_lignum>  (21) 
7

>  <i_i_glide_rotatable_bonds>  (21) 
2

>  <r_i_docking_score>  (21) 
-1.93331

>  <r_i_glide_ligand_efficiency>  (21) 
-0.053703

>  <r_i_glide_ligand_efficiency_sa>  (21) 
-0.177323

>  <r_i_glide_ligand_efficiency_ln>  (21) 
-0.421795

>  <r_i_glide_gscore>  (21) 
-1.93331

>  <r_i_glide_lipo>  (21) 
-0.522651

>  <r_i_glide_hbond>  (21) 
-0.0524812

>  <r_i_glide_metal>  (21) 
-0

>  <r_i_glide_rewards>  (21) 
-0.0910792

>  <r_i_glide_evdw>  (21) 
-23.2733

>  <r_i_glide_ecoul>  (21) 
-1.21962

>  <r_i_glide_erotb>  (21) 
0.0858191

>  <r_i_glide_esite>  (21) 
-0.00630665

>  <r_i_glide_emodel>  (21) 
-24.8741

>  <r_i_glide_energy>  (21) 
-24.4929

>  <r_i_glide_einternal>  (21) 
2.20415

>  <r_i_glide_intrahb_reward>  (21) 
-0

>  <i_i_glide_confnum>  (21) 
1

>  <i_i_glide_posenum>  (21) 
29

>  <r_i_glide_eff_state_penalty>  (21) 
0

>  <ligand_id>  (21) 
5

>  <original_smiles>  (21) 
C=C1C(OC)C2C3C=C4C(=O)C56C(=CCC(C25)C13C)C1(C)C2OC(C=CC)C=CC(C6OC42)C1(C)C

>  <smiles>  (21) 
[H]C([H])=C1C([H])(OC([H])([H])[H])C2([H])C3([H])C([H])=C4C(=O)C56C(=C([H])C([H])([H])C([H])(C52[H])C13C([H])([H])[H])C1(C([H])([H])[H])C2([H])OC([H])(C([H])=C([H])C([H])([H])[H])C([H])=C([H])C([H])(C6([H])OC42[H])C1(C([H])([H])[H])C([H])([H])[H]

$$$$
7:0:0
     RDKit          3D

 30 32  0  0  1  0  0  0  0  0999 V2000
    6.1625   -0.6982    2.5649 C   0  0  0  0  0  0  0  0  0  0  0  0
    5.0750   -1.7863    2.6039 C   0  0  0  0  0  0  0  0  0  0  0  0
    4.7123   -2.2850    1.2579 N   0  0  0  0  0  0  0  0  0  0  0  0
    4.1041   -1.4470    0.3785 C   0  0  0  0  0  0  0  0  0  0  0  0
    3.8588   -0.2735    0.6535 O   0  0  0  0  0  0  0  0  0  0  0  0
    3.7703   -1.9132   -1.0119 C   0  0  0  0  0  0  0  0  0  0  0  0
    3.9521   -0.9947   -2.0699 C   0  0  0  0  0  0  0  0  0  0  0  0
    3.5220   -1.3123   -3.3656 C   0  0  0  0  0  0  0  0  0  0  0  0
    2.9064   -2.5566   -3.5535 C   0  0  0  0  0  0  0  0  0  0  0  0
    2.7069   -3.4375   -2.5618 N   0  0  0  0  0  0  0  0  0  0  0  0
    3.1155   -3.1463   -1.3037 C   0  0  0  0  0  0  0  0  0  0  0  0
    2.8578   -4.1369   -0.3225 N   0  0  0  0  0  0  0  0  0  0  0  0
    1.8314   -5.0317   -0.3131 N   0  0  0  0  0  0  0  0  0  0  0  0
    2.0301   -5.7922    0.7281 N   0  0  0  0  0  0  0  0  0  0  0  0
    3.1934   -5.4358    1.4022 N   0  0  0  0  0  0  0  0  0  0  0  0
    3.6732   -4.4128    0.7069 C   0  0  0  0  0  0  0  0  0  0  0  0
    4.9708   -3.7175    1.0162 C   0  0  1  0  0  0  0  0  0  0  0  0
    6.0912   -3.9811   -0.0078 C   0  0  0  0  0  0  0  0  0  0  0  0
    6.4186   -0.3411    3.5633 H   0  0  0  0  0  0  0  0  0  0  0  0
    5.8418    0.1751    2.0105 H   0  0  0  0  0  0  0  0  0  0  0  0
    7.0581   -1.0631    2.0692 H   0  0  0  0  0  0  0  0  0  0  0  0
    5.4270   -2.5792    3.2656 H   0  0  0  0  0  0  0  0  0  0  0  0
    4.1792   -1.3910    3.0885 H   0  0  0  0  0  0  0  0  0  0  0  0
    4.3699   -0.0171   -1.8863 H   0  0  0  0  0  0  0  0  0  0  0  0
    3.6213   -0.6054   -4.1745 H   0  0  0  0  0  0  0  0  0  0  0  0
    2.5673   -2.8628   -4.5300 H   0  0  0  0  0  0  0  0  0  0  0  0
    5.3230   -4.1937    1.9287 H   0  0  0  0  0  0  0  0  0  0  0  0
    6.3323   -5.0441   -0.0383 H   0  0  0  0  0  0  0  0  0  0  0  0
    7.0025   -3.4467    0.2659 H   0  0  0  0  0  0  0  0  0  0  0  0
    5.8224   -3.6825   -1.0202 H   0  0  0  0  0  0  0  0  0  0  0  0
  1  2  1  0
  1 19  1  0
  1 20  1  0
  1 21  1  0
  2  3  1  0
  2 22  1  0
  2 23  1  0
  3 17  1  0
  3  4  1  0
  4  5  2  0
  4  6  1  0
  6 11  2  0
  6  7  1  0
  7  8  2  0
  7 24  1  0
  8  9  1  0
  8 25  1  0
  9 10  2  0
  9 26  1  0
 10 11  1  0
 11 12  1  0
 12 16  1  0
 12 13  1  0
 13 14  2  0
 14 15  1  0
 15 16  2  0
 16 17  1  0
 17 18  1  0
 17 27  1  1
 18 28  1  0
 18 29  1  0
 18 30  1  0
M  END
>  <i_m_ct_stereo_status>  (22) 
1

>  <s_m_source_file>  (22) 
/var/tmp/pbs.5076255.sched01/tmphrtf3o8j/0_qqz9eae.sdf

>  <i_m_source_file_index>  (22) 
9

>  <i_lp_mmshare_version>  (22) 
48012

>  <i_f3d_flags>  (22) 
0

>  <s_epik_input>  (22) 
W0NIM11bQ0gyXU4oQzE9TylbQ0BIXShbQ0gzXSljKG5ubjIpbjJjKGMxMyluW2NIXVtjSF1bY0hdMw==

>  <s_epik_cmdline>  (22) 
J2VwaWtfcHl0aG9uJywgJy1waHQnLCAnMi4wJywgJy1waCcsICc3LjAnLCAnLXRuJywgJzgnLCAnLW1hJywgJzIwMCcsICctaW1hZScsICc8aW5maWxlLm1hZT4nLCAnLW9tYWUnLCAnPG91dGZpbGUubWFlPic=

>  <r_lp_tautomer_probability>  (22) 
1

>  <r_epik_Ionization_Penalty>  (22) 
7.6211e-11

>  <r_epik_Ionization_Penalty_Charging>  (22) 
0

>  <r_epik_Ionization_Penalty_Neutral>  (22) 
7.6211e-11

>  <r_epik_State_Penalty>  (22) 
-0

>  <r_epik_Charging_Adjusted_Penalty>  (22) 
0

>  <i_epik_Tot_Q>  (22) 
0

>  <i_epik_Tot_abs_Q>  (22) 
0

>  <s_lp_Force_Field>  (22) 
OPLS3e

>  <r_lp_Energy>  (22) 
34.4498

>  <b_lp_Chiralities_Consistent>  (22) 
1

>  <s_lp_Variant>  (22) 
7:0-1

>  <s_i_glide_gridfile>  (22) 
pfpi4k_grid

>  <i_i_glide_lignum>  (22) 
9

>  <i_i_glide_rotatable_bonds>  (22) 
1

>  <r_i_docking_score>  (22) 
-3.5441

>  <r_i_glide_ligand_efficiency>  (22) 
-0.196894

>  <r_i_glide_ligand_efficiency_sa>  (22) 
-0.516009

>  <r_i_glide_ligand_efficiency_ln>  (22) 
-0.910992

>  <r_i_glide_gscore>  (22) 
-3.5441

>  <r_i_glide_lipo>  (22) 
-0.587092

>  <r_i_glide_hbond>  (22) 
0

>  <r_i_glide_metal>  (22) 
-0

>  <r_i_glide_rewards>  (22) 
-1.83251

>  <r_i_glide_evdw>  (22) 
-21.2172

>  <r_i_glide_ecoul>  (22) 
0.994024

>  <r_i_glide_erotb>  (22) 
0

>  <r_i_glide_esite>  (22) 
-0.212738

>  <r_i_glide_emodel>  (22) 
-24.5493

>  <r_i_glide_energy>  (22) 
-20.2232

>  <r_i_glide_einternal>  (22) 
1.35491

>  <r_i_glide_intrahb_reward>  (22) 
-0

>  <i_i_glide_confnum>  (22) 
1

>  <i_i_glide_posenum>  (22) 
15

>  <r_i_glide_eff_state_penalty>  (22) 
0

>  <ligand_id>  (22) 
7

>  <original_smiles>  (22) 
CCN1C(=O)c2cccnc2-n2nnnc2C1C

>  <smiles>  (22) 
[H]c1nc2c(c([H])c1[H])C(=O)N(C([H])([H])C([H])([H])[H])C([H])(C([H])([H])[H])c1nnnn1-2

$$$$
7:0:1
     RDKit          3D

 30 32  0  0  1  0  0  0  0  0999 V2000
    3.5764   -2.5602   -3.8125 C   0  0  0  0  0  0  0  0  0  0  0  0
    3.4595   -1.7638   -2.5022 C   0  0  0  0  0  0  0  0  0  0  0  0
    3.8525   -2.5690   -1.3285 N   0  0  0  0  0  0  0  0  0  0  0  0
    2.9498   -3.4220   -0.7763 C   0  0  0  0  0  0  0  0  0  0  0  0
    1.8285   -3.5911   -1.2588 O   0  0  0  0  0  0  0  0  0  0  0  0
    3.3124   -4.2610    0.4231 C   0  0  0  0  0  0  0  0  0  0  0  0
    2.7771   -5.5647    0.4809 C   0  0  0  0  0  0  0  0  0  0  0  0
    3.0078   -6.3783    1.5976 C   0  0  0  0  0  0  0  0  0  0  0  0
    3.7718   -5.8458    2.6432 C   0  0  0  0  0  0  0  0  0  0  0  0
    4.2803   -4.5970    2.6230 N   0  0  0  0  0  0  0  0  0  0  0  0
    4.0564   -3.7991    1.5478 C   0  0  0  0  0  0  0  0  0  0  0  0
    4.6010   -2.4928    1.6125 N   0  0  0  0  0  0  0  0  0  0  0  0
    4.7666   -1.7540    2.7362 N   0  0  0  0  0  0  0  0  0  0  0  0
    5.3760   -0.6649    2.3617 N   0  0  0  0  0  0  0  0  0  0  0  0
    5.6446   -0.6770    1.0060 N   0  0  0  0  0  0  0  0  0  0  0  0
    5.1398   -1.8291    0.5838 C   0  0  0  0  0  0  0  0  0  0  0  0
    5.2154   -2.3251   -0.8256 C   0  0  1  0  0  0  0  0  0  0  0  0
    6.1770   -3.5117   -1.0311 C   0  0  0  0  0  0  0  0  0  0  0  0
    3.2701   -1.9462   -4.6601 H   0  0  0  0  0  0  0  0  0  0  0  0
    2.9350   -3.4430   -3.8032 H   0  0  0  0  0  0  0  0  0  0  0  0
    4.6002   -2.8927   -3.9838 H   0  0  0  0  0  0  0  0  0  0  0  0
    4.0384   -0.8426   -2.5788 H   0  0  0  0  0  0  0  0  0  0  0  0
    2.4321   -1.4128   -2.3893 H   0  0  0  0  0  0  0  0  0  0  0  0
    2.1760   -5.9484   -0.3281 H   0  0  0  0  0  0  0  0  0  0  0  0
    2.6094   -7.3797    1.6446 H   0  0  0  0  0  0  0  0  0  0  0  0
    3.9714   -6.4347    3.5260 H   0  0  0  0  0  0  0  0  0  0  0  0
    5.6629   -1.5092   -1.3910 H   0  0  0  0  0  0  0  0  0  0  0  0
    7.1983   -3.2304   -0.7705 H   0  0  0  0  0  0  0  0  0  0  0  0
    6.1826   -3.8322   -2.0744 H   0  0  0  0  0  0  0  0  0  0  0  0
    5.9165   -4.3772   -0.4239 H   0  0  0  0  0  0  0  0  0  0  0  0
  1  2  1  0
  1 19  1  0
  1 20  1  0
  1 21  1  0
  2  3  1  0
  2 22  1  0
  2 23  1  0
  3 17  1  0
  3  4  1  0
  4  5  2  0
  4  6  1  0
  6 11  2  0
  6  7  1  0
  7  8  2  0
  7 24  1  0
  8  9  1  0
  8 25  1  0
  9 10  2  0
  9 26  1  0
 10 11  1  0
 11 12  1  0
 12 16  1  0
 12 13  1  0
 13 14  2  0
 14 15  1  0
 15 16  2  0
 16 17  1  0
 17 18  1  0
 17 27  1  6
 18 28  1  0
 18 29  1  0
 18 30  1  0
M  END
>  <i_m_ct_stereo_status>  (23) 
1

>  <s_m_source_file>  (23) 
/var/tmp/pbs.5076255.sched01/tmphrtf3o8j/0_qqz9eae.sdf

>  <i_m_source_file_index>  (23) 
9

>  <i_lp_mmshare_version>  (23) 
48012

>  <i_f3d_flags>  (23) 
0

>  <s_epik_input>  (23) 
W0NIM11bQ0gyXU4oQzE9TylbQ0BIXShbQ0gzXSljKG5ubjIpbjJjKGMxMyluW2NIXVtjSF1bY0hdMw==

>  <s_epik_cmdline>  (23) 
J2VwaWtfcHl0aG9uJywgJy1waHQnLCAnMi4wJywgJy1waCcsICc3LjAnLCAnLXRuJywgJzgnLCAnLW1hJywgJzIwMCcsICctaW1hZScsICc8aW5maWxlLm1hZT4nLCAnLW9tYWUnLCAnPG91dGZpbGUubWFlPic=

>  <r_lp_tautomer_probability>  (23) 
1

>  <r_epik_Ionization_Penalty>  (23) 
7.6211e-11

>  <r_epik_Ionization_Penalty_Charging>  (23) 
0

>  <r_epik_Ionization_Penalty_Neutral>  (23) 
7.6211e-11

>  <r_epik_State_Penalty>  (23) 
-0

>  <r_epik_Charging_Adjusted_Penalty>  (23) 
0

>  <i_epik_Tot_Q>  (23) 
0

>  <i_epik_Tot_abs_Q>  (23) 
0

>  <s_lp_Force_Field>  (23) 
OPLS3e

>  <r_lp_Energy>  (23) 
34.4498

>  <b_lp_Chiralities_Consistent>  (23) 
1

>  <s_lp_Variant>  (23) 
7:0-1

>  <s_i_glide_gridfile>  (23) 
pfpi4k_grid

>  <i_i_glide_lignum>  (23) 
9

>  <i_i_glide_rotatable_bonds>  (23) 
1

>  <r_i_docking_score>  (23) 
-3.27582

>  <r_i_glide_ligand_efficiency>  (23) 
-0.18199

>  <r_i_glide_ligand_efficiency_sa>  (23) 
-0.476949

>  <r_i_glide_ligand_efficiency_ln>  (23) 
-0.842033

>  <r_i_glide_gscore>  (23) 
-3.27582

>  <r_i_glide_lipo>  (23) 
-0.267136

>  <r_i_glide_hbond>  (23) 
-0.0132164

>  <r_i_glide_metal>  (23) 
-0

>  <r_i_glide_rewards>  (23) 
-1.90224

>  <r_i_glide_evdw>  (23) 
-22.3949

>  <r_i_glide_ecoul>  (23) 
0.36433

>  <r_i_glide_erotb>  (23) 
0

>  <r_i_glide_esite>  (23) 
-0.0281348

>  <r_i_glide_emodel>  (23) 
-26.7748

>  <r_i_glide_energy>  (23) 
-22.0306

>  <r_i_glide_einternal>  (23) 
0.0501255

>  <r_i_glide_intrahb_reward>  (23) 
-0

>  <i_i_glide_confnum>  (23) 
1

>  <i_i_glide_posenum>  (23) 
14

>  <r_i_glide_eff_state_penalty>  (23) 
0

>  <ligand_id>  (23) 
7

>  <original_smiles>  (23) 
CCN1C(=O)c2cccnc2-n2nnnc2C1C

>  <smiles>  (23) 
[H]c1nc2c(c([H])c1[H])C(=O)N(C([H])([H])C([H])([H])[H])C([H])(C([H])([H])[H])c1nnnn1-2

$$$$
7:0:2
     RDKit          3D

 30 32  0  0  1  0  0  0  0  0999 V2000
   -1.9311    2.2762    3.2581 C   0  0  0  0  0  0  0  0  0  0  0  0
   -0.4817    2.6178    3.6408 C   0  0  0  0  0  0  0  0  0  0  0  0
    0.3569    1.4094    3.7723 N   0  0  0  0  0  0  0  0  0  0  0  0
    0.8907    0.8489    2.6581 C   0  0  0  0  0  0  0  0  0  0  0  0
    0.7180    1.3421    1.5479 O   0  0  0  0  0  0  0  0  0  0  0  0
    1.7847   -0.3637    2.7558 C   0  0  0  0  0  0  0  0  0  0  0  0
    2.8685   -0.4435    1.8537 C   0  0  0  0  0  0  0  0  0  0  0  0
    3.6894   -1.5819    1.8413 C   0  0  0  0  0  0  0  0  0  0  0  0
    3.3866   -2.6228    2.7315 C   0  0  0  0  0  0  0  0  0  0  0  0
    2.3503   -2.5749    3.5900 N   0  0  0  0  0  0  0  0  0  0  0  0
    1.5498   -1.4800    3.6102 C   0  0  0  0  0  0  0  0  0  0  0  0
    0.4728   -1.5193    4.5310 N   0  0  0  0  0  0  0  0  0  0  0  0
   -0.1897   -2.6288    4.9265 N   0  0  0  0  0  0  0  0  0  0  0  0
   -1.0536   -2.2348    5.8183 N   0  0  0  0  0  0  0  0  0  0  0  0
   -0.9515   -0.8774    6.0558 N   0  0  0  0  0  0  0  0  0  0  0  0
    0.0148   -0.4781    5.2360 C   0  0  0  0  0  0  0  0  0  0  0  0
    0.5373    0.9203    5.1478 C   0  0  1  0  0  0  0  0  0  0  0  0
    1.9672    1.1018    5.6989 C   0  0  0  0  0  0  0  0  0  0  0  0
   -2.5233    3.1842    3.1452 H   0  0  0  0  0  0  0  0  0  0  0  0
   -2.4086    1.6603    4.0203 H   0  0  0  0  0  0  0  0  0  0  0  0
   -1.9843    1.7422    2.3085 H   0  0  0  0  0  0  0  0  0  0  0  0
   -0.0631    3.2869    2.8863 H   0  0  0  0  0  0  0  0  0  0  0  0
   -0.4764    3.2103    4.5563 H   0  0  0  0  0  0  0  0  0  0  0  0
    3.0729    0.3596    1.1591 H   0  0  0  0  0  0  0  0  0  0  0  0
    4.5183   -1.6614    1.1573 H   0  0  0  0  0  0  0  0  0  0  0  0
    3.9884   -3.5204    2.7516 H   0  0  0  0  0  0  0  0  0  0  0  0
   -0.1012    1.5025    5.8116 H   0  0  0  0  0  0  0  0  0  0  0  0
    2.0021    0.8511    6.7598 H   0  0  0  0  0  0  0  0  0  0  0  0
    2.2975    2.1367    5.5998 H   0  0  0  0  0  0  0  0  0  0  0  0
    2.7027    0.4739    5.1973 H   0  0  0  0  0  0  0  0  0  0  0  0
  1  2  1  0
  1 19  1  0
  1 20  1  0
  1 21  1  0
  2  3  1  0
  2 22  1  0
  2 23  1  0
  3 17  1  0
  3  4  1  0
  4  5  2  0
  4  6  1  0
  6 11  2  0
  6  7  1  0
  7  8  2  0
  7 24  1  0
  8  9  1  0
  8 25  1  0
  9 10  2  0
  9 26  1  0
 10 11  1  0
 11 12  1  0
 12 16  1  0
 12 13  1  0
 13 14  2  0
 14 15  1  0
 15 16  2  0
 16 17  1  0
 17 18  1  0
 17 27  1  1
 18 28  1  0
 18 29  1  0
 18 30  1  0
M  END
>  <i_m_ct_stereo_status>  (24) 
1

>  <s_m_source_file>  (24) 
/var/tmp/pbs.5076255.sched01/tmphrtf3o8j/0_qqz9eae.sdf

>  <i_m_source_file_index>  (24) 
9

>  <i_lp_mmshare_version>  (24) 
48012

>  <i_f3d_flags>  (24) 
0

>  <s_epik_input>  (24) 
W0NIM11bQ0gyXU4oQzE9TylbQ0BIXShbQ0gzXSljKG5ubjIpbjJjKGMxMyluW2NIXVtjSF1bY0hdMw==

>  <s_epik_cmdline>  (24) 
J2VwaWtfcHl0aG9uJywgJy1waHQnLCAnMi4wJywgJy1waCcsICc3LjAnLCAnLXRuJywgJzgnLCAnLW1hJywgJzIwMCcsICctaW1hZScsICc8aW5maWxlLm1hZT4nLCAnLW9tYWUnLCAnPG91dGZpbGUubWFlPic=

>  <r_lp_tautomer_probability>  (24) 
1

>  <r_epik_Ionization_Penalty>  (24) 
7.6211e-11

>  <r_epik_Ionization_Penalty_Charging>  (24) 
0

>  <r_epik_Ionization_Penalty_Neutral>  (24) 
7.6211e-11

>  <r_epik_State_Penalty>  (24) 
-0

>  <r_epik_Charging_Adjusted_Penalty>  (24) 
0

>  <i_epik_Tot_Q>  (24) 
0

>  <i_epik_Tot_abs_Q>  (24) 
0

>  <s_lp_Force_Field>  (24) 
OPLS3e

>  <r_lp_Energy>  (24) 
34.4498

>  <b_lp_Chiralities_Consistent>  (24) 
1

>  <s_lp_Variant>  (24) 
7:0-1

>  <s_i_glide_gridfile>  (24) 
pfpi4k_grid

>  <i_i_glide_lignum>  (24) 
9

>  <i_i_glide_rotatable_bonds>  (24) 
1

>  <r_i_docking_score>  (24) 
-3.10628

>  <r_i_glide_ligand_efficiency>  (24) 
-0.172571

>  <r_i_glide_ligand_efficiency_sa>  (24) 
-0.452264

>  <r_i_glide_ligand_efficiency_ln>  (24) 
-0.798452

>  <r_i_glide_gscore>  (24) 
-3.10628

>  <r_i_glide_lipo>  (24) 
-0.00013182

>  <r_i_glide_hbond>  (24) 
0

>  <r_i_glide_metal>  (24) 
-0

>  <r_i_glide_rewards>  (24) 
-1.74373

>  <r_i_glide_evdw>  (24) 
-18.1129

>  <r_i_glide_ecoul>  (24) 
-1.81063

>  <r_i_glide_erotb>  (24) 
0

>  <r_i_glide_esite>  (24) 
-0.185174

>  <r_i_glide_emodel>  (24) 
-24.4525

>  <r_i_glide_energy>  (24) 
-19.9235

>  <r_i_glide_einternal>  (24) 
0.000432381

>  <r_i_glide_intrahb_reward>  (24) 
-0

>  <i_i_glide_confnum>  (24) 
1

>  <i_i_glide_posenum>  (24) 
25

>  <r_i_glide_eff_state_penalty>  (24) 
0

>  <ligand_id>  (24) 
7

>  <original_smiles>  (24) 
CCN1C(=O)c2cccnc2-n2nnnc2C1C

>  <smiles>  (24) 
[H]c1nc2c(c([H])c1[H])C(=O)N(C([H])([H])C([H])([H])[H])C([H])(C([H])([H])[H])c1nnnn1-2

$$$$
9:0:0
     RDKit          3D

 33 35  0  0  1  0  0  0  0  0999 V2000
    4.1476   -0.0728    0.8886 C   0  0  0  0  0  0  0  0  0  0  0  0
    2.6881   -0.2678    1.0151 N   0  0  0  0  0  0  0  0  0  0  0  0
    2.0319    0.6237    1.9954 C   0  0  2  0  0  0  0  0  0  0  0  0
    2.1865    0.0661    3.4224 C   0  0  0  0  0  0  0  0  0  0  0  0
    1.4704    0.9488    4.4584 C   0  0  0  0  0  0  0  0  0  0  0  0
   -0.0216    1.1059    4.0856 C   0  0  1  0  0  0  0  0  0  0  0  0
   -0.2142    1.6400    2.6560 C   0  0  0  0  0  0  0  0  0  0  0  0
    0.5415    0.7558    1.6568 C   0  0  0  0  0  0  0  0  0  0  0  0
   -0.6660   -0.1412    4.2241 O   0  0  0  0  0  0  0  0  0  0  0  0
   -1.5527   -0.1181    5.2621 C   0  0  0  0  0  0  0  0  0  0  0  0
   -2.1935   -1.0765    5.6769 O   0  0  0  0  0  0  0  0  0  0  0  0
   -1.5988    1.2282    5.7690 C   0  0  0  0  0  0  0  0  0  0  0  0
   -2.1973    2.0615    6.6722 C   0  0  0  0  0  0  0  0  0  0  0  0
   -1.6135    3.3507    6.4343 C   0  0  0  0  0  0  0  0  0  0  0  0
   -0.6912    3.2407    5.4221 C   0  0  0  0  0  0  0  0  0  0  0  0
   -0.7117    1.9174    5.0442 N   0  0  0  0  0  0  0  0  0  0  0  0
    4.5724   -0.8142    0.2103 H   0  0  0  0  0  0  0  0  0  0  0  0
    4.6504   -0.1723    1.8524 H   0  0  0  0  0  0  0  0  0  0  0  0
    4.3646    0.9184    0.4913 H   0  0  0  0  0  0  0  0  0  0  0  0
    2.2486   -0.1345    0.1074 H   0  0  0  0  0  0  0  0  0  0  0  0
    2.4857    1.6153    1.9354 H   0  0  0  0  0  0  0  0  0  0  0  0
    1.8002   -0.9528    3.4676 H   0  0  0  0  0  0  0  0  0  0  0  0
    3.2403    0.0004    3.6913 H   0  0  0  0  0  0  0  0  0  0  0  0
    1.5495    0.5040    5.4512 H   0  0  0  0  0  0  0  0  0  0  0  0
    1.9325    1.9360    4.5056 H   0  0  0  0  0  0  0  0  0  0  0  0
   -1.2799    1.6678    2.4179 H   0  0  0  0  0  0  0  0  0  0  0  0
    0.1643    2.6620    2.6061 H   0  0  0  0  0  0  0  0  0  0  0  0
    0.4388    1.2126    0.6752 H   0  0  0  0  0  0  0  0  0  0  0  0
    0.0779   -0.2277    1.5912 H   0  0  0  0  0  0  0  0  0  0  0  0
   -2.9656    1.8085    7.3908 H   0  0  0  0  0  0  0  0  0  0  0  0
   -1.8441    4.2697    6.9537 H   0  0  0  0  0  0  0  0  0  0  0  0
   -0.0428    3.9616    4.9451 H   0  0  0  0  0  0  0  0  0  0  0  0
    2.4999   -1.2262    1.2694 H   0  0  0  0  0  0  0  0  0  0  0  0
  1  2  1  0
  1 17  1  0
  1 18  1  0
  1 19  1  0
  2  3  1  0
  2 20  1  0
  2 33  1  0
  3  8  1  0
  3  4  1  0
  3 21  1  1
  4  5  1  0
  4 22  1  0
  4 23  1  0
  5  6  1  0
  5 24  1  0
  5 25  1  0
  6 16  1  0
  6  7  1  0
  6  9  1  6
  7  8  1  0
  7 26  1  0
  7 27  1  0
  8 28  1  0
  8 29  1  0
  9 10  1  0
 10 11  2  0
 10 12  1  0
 12 16  1  0
 12 13  2  0
 13 14  1  0
 13 30  1  0
 14 15  2  0
 14 31  1  0
 15 16  1  0
 15 32  1  0
M  CHG  1   2   1
M  END
>  <i_m_ct_stereo_status>  (25) 
1

>  <s_m_source_file>  (25) 
/var/tmp/pbs.5076255.sched01/tmphrtf3o8j/0_qqz9eae.sdf

>  <i_m_source_file_index>  (25) 
11

>  <i_lp_mmshare_version>  (25) 
48012

>  <i_f3d_flags>  (25) 
0

>  <s_epik_input>  (25) 
W0NIM11bTkhdW0NAQEhdKFtDSDJdW0NIMl0xKVtDSDJdW0NIMl1bQ0BAXTEybjNjKEMoTzIpPU8pW2NIXVtjSF1bY0hdMw==

>  <s_epik_cmdline>  (25) 
J2VwaWtfcHl0aG9uJywgJy1waHQnLCAnMi4wJywgJy1waCcsICc3LjAnLCAnLXRuJywgJzgnLCAnLW1hJywgJzIwMCcsICctaW1hZScsICc8aW5maWxlLm1hZT4nLCAnLW9tYWUnLCAnPG91dGZpbGUubWFlPic=

>  <r_epik_Ionization_Penalty>  (25) 
0.000967575

>  <r_epik_Ionization_Penalty_Charging>  (25) 
0.000967575

>  <r_epik_Ionization_Penalty_Neutral>  (25) 
0

>  <r_epik_State_Penalty>  (25) 
0.000629332

>  <r_epik_Charging_Adjusted_Penalty>  (25) 
0.00159691

>  <i_epik_Tot_Q>  (25) 
1

>  <i_epik_Tot_abs_Q>  (25) 
1

>  <s_epik_Chemistry_Notes>  (25) 
This compound has an ester and may undergo hydrolysis at high or low pH.

>  <s_lp_Force_Field>  (25) 
OPLS3e

>  <r_lp_Energy>  (25) 
18.4963

>  <b_lp_Chiralities_Consistent>  (25) 
1

>  <s_lp_Variant>  (25) 
9:0-1

>  <s_i_glide_gridfile>  (25) 
pfpi4k_grid

>  <i_i_glide_lignum>  (25) 
11

>  <i_i_glide_rotatable_bonds>  (25) 
1

>  <r_i_docking_score>  (25) 
-4.11718

>  <r_i_glide_ligand_efficiency>  (25) 
-0.257324

>  <r_i_glide_ligand_efficiency_sa>  (25) 
-0.648415

>  <r_i_glide_ligand_efficiency_ln>  (25) 
-1.09134

>  <r_i_glide_gscore>  (25) 
-4.11718

>  <r_i_glide_lipo>  (25) 
-0.135461

>  <r_i_glide_hbond>  (25) 
-0.178812

>  <r_i_glide_metal>  (25) 
-0

>  <r_i_glide_rewards>  (25) 
-1.90039

>  <r_i_glide_evdw>  (25) 
-16.2269

>  <r_i_glide_ecoul>  (25) 
-6.35812

>  <r_i_glide_erotb>  (25) 
0

>  <r_i_glide_esite>  (25) 
-0.13745

>  <r_i_glide_emodel>  (25) 
-30.285

>  <r_i_glide_energy>  (25) 
-22.585

>  <r_i_glide_einternal>  (25) 
0.140562

>  <r_i_glide_intrahb_reward>  (25) 
-0

>  <i_i_glide_confnum>  (25) 
2

>  <i_i_glide_posenum>  (25) 
33

>  <r_i_glide_eff_state_penalty>  (25) 
0

>  <ligand_id>  (25) 
9

>  <original_smiles>  (25) 
CNC1CCC2(CC1)OC(=O)c1cccn12

>  <smiles>  (25) 
[H]c1c([H])c2n(c1[H])C1(OC2=O)C([H])([H])C([H])([H])C([H])([N+]([H])([H])C([H])([H])[H])C([H])([H])C1([H])[H]

$$$$
9:0:1
     RDKit          3D

 33 35  0  0  1  0  0  0  0  0999 V2000
    4.4323   -1.1027    4.9560 C   0  0  0  0  0  0  0  0  0  0  0  0
    3.1690   -0.7678    4.2465 N   0  0  0  0  0  0  0  0  0  0  0  0
    3.1328   -1.0805    2.7960 C   0  0  2  0  0  0  0  0  0  0  0  0
    3.4461   -2.5670    2.5221 C   0  0  0  0  0  0  0  0  0  0  0  0
    3.4140   -2.9013    1.0270 C   0  0  0  0  0  0  0  0  0  0  0  0
    4.3845   -1.9703    0.2591 C   0  0  1  0  0  0  0  0  0  0  0  0
    4.0748   -0.4771    0.5050 C   0  0  0  0  0  0  0  0  0  0  0  0
    4.0872   -0.1630    2.0057 C   0  0  0  0  0  0  0  0  0  0  0  0
    5.7219   -2.2658    0.6353 O   0  0  0  0  0  0  0  0  0  0  0  0
    6.4100   -2.8365   -0.4148 C   0  0  0  0  0  0  0  0  0  0  0  0
    7.5579   -3.2692   -0.3974 O   0  0  0  0  0  0  0  0  0  0  0  0
    5.5432   -2.8001   -1.5603 C   0  0  0  0  0  0  0  0  0  0  0  0
    5.4596   -3.0813   -2.8888 C   0  0  0  0  0  0  0  0  0  0  0  0
    4.1385   -2.6742   -3.2801 C   0  0  0  0  0  0  0  0  0  0  0  0
    3.4869   -2.1807   -2.1762 C   0  0  0  0  0  0  0  0  0  0  0  0
    4.3869   -2.2759   -1.1365 N   0  0  0  0  0  0  0  0  0  0  0  0
    4.3963   -0.7515    5.9879 H   0  0  0  0  0  0  0  0  0  0  0  0
    5.3006   -0.6439    4.4819 H   0  0  0  0  0  0  0  0  0  0  0  0
    4.5934   -2.1810    4.9879 H   0  0  0  0  0  0  0  0  0  0  0  0
    2.4145   -1.2700    4.6961 H   0  0  0  0  0  0  0  0  0  0  0  0
    2.1129   -0.8789    2.4550 H   0  0  0  0  0  0  0  0  0  0  0  0
    4.4360   -2.8328    2.8900 H   0  0  0  0  0  0  0  0  0  0  0  0
    2.7363   -3.1985    3.0576 H   0  0  0  0  0  0  0  0  0  0  0  0
    3.7163   -3.9379    0.8766 H   0  0  0  0  0  0  0  0  0  0  0  0
    2.4065   -2.7878    0.6253 H   0  0  0  0  0  0  0  0  0  0  0  0
    4.8200    0.1309   -0.0097 H   0  0  0  0  0  0  0  0  0  0  0  0
    3.0950   -0.2555    0.0803 H   0  0  0  0  0  0  0  0  0  0  0  0
    3.7990    0.8789    2.1510 H   0  0  0  0  0  0  0  0  0  0  0  0
    5.1147   -0.2477    2.3575 H   0  0  0  0  0  0  0  0  0  0  0  0
    6.2424   -3.5073   -3.5070 H   0  0  0  0  0  0  0  0  0  0  0  0
    3.6981   -2.7371   -4.2656 H   0  0  0  0  0  0  0  0  0  0  0  0
    2.4967   -1.7769   -2.0371 H   0  0  0  0  0  0  0  0  0  0  0  0
    2.9925    0.2224    4.3562 H   0  0  0  0  0  0  0  0  0  0  0  0
  1  2  1  0
  1 17  1  0
  1 18  1  0
  1 19  1  0
  2  3  1  0
  2 20  1  0
  2 33  1  0
  3  8  1  0
  3  4  1  0
  3 21  1  6
  4  5  1  0
  4 22  1  0
  4 23  1  0
  5  6  1  0
  5 24  1  0
  5 25  1  0
  6 16  1  0
  6  7  1  0
  6  9  1  1
  7  8  1  0
  7 26  1  0
  7 27  1  0
  8 28  1  0
  8 29  1  0
  9 10  1  0
 10 11  2  0
 10 12  1  0
 12 16  1  0
 12 13  2  0
 13 14  1  0
 13 30  1  0
 14 15  2  0
 14 31  1  0
 15 16  1  0
 15 32  1  0
M  CHG  1   2   1
M  END
>  <i_m_ct_stereo_status>  (26) 
1

>  <s_m_source_file>  (26) 
/var/tmp/pbs.5076255.sched01/tmphrtf3o8j/0_qqz9eae.sdf

>  <i_m_source_file_index>  (26) 
11

>  <i_lp_mmshare_version>  (26) 
48012

>  <i_f3d_flags>  (26) 
0

>  <s_epik_input>  (26) 
W0NIM11bTkhdW0NAQEhdKFtDSDJdW0NIMl0xKVtDSDJdW0NIMl1bQ0BAXTEybjNjKEMoTzIpPU8pW2NIXVtjSF1bY0hdMw==

>  <s_epik_cmdline>  (26) 
J2VwaWtfcHl0aG9uJywgJy1waHQnLCAnMi4wJywgJy1waCcsICc3LjAnLCAnLXRuJywgJzgnLCAnLW1hJywgJzIwMCcsICctaW1hZScsICc8aW5maWxlLm1hZT4nLCAnLW9tYWUnLCAnPG91dGZpbGUubWFlPic=

>  <r_epik_Ionization_Penalty>  (26) 
0.000967575

>  <r_epik_Ionization_Penalty_Charging>  (26) 
0.000967575

>  <r_epik_Ionization_Penalty_Neutral>  (26) 
0

>  <r_epik_State_Penalty>  (26) 
0.000629332

>  <r_epik_Charging_Adjusted_Penalty>  (26) 
0.00159691

>  <i_epik_Tot_Q>  (26) 
1

>  <i_epik_Tot_abs_Q>  (26) 
1

>  <s_epik_Chemistry_Notes>  (26) 
This compound has an ester and may undergo hydrolysis at high or low pH.

>  <s_lp_Force_Field>  (26) 
OPLS3e

>  <r_lp_Energy>  (26) 
18.4963

>  <b_lp_Chiralities_Consistent>  (26) 
1

>  <s_lp_Variant>  (26) 
9:0-1

>  <s_i_glide_gridfile>  (26) 
pfpi4k_grid

>  <i_i_glide_lignum>  (26) 
11

>  <i_i_glide_rotatable_bonds>  (26) 
1

>  <r_i_docking_score>  (26) 
-3.8567

>  <r_i_glide_ligand_efficiency>  (26) 
-0.241044

>  <r_i_glide_ligand_efficiency_sa>  (26) 
-0.607392

>  <r_i_glide_ligand_efficiency_ln>  (26) 
-1.0223

>  <r_i_glide_gscore>  (26) 
-3.8567

>  <r_i_glide_lipo>  (26) 
-0.502038

>  <r_i_glide_hbond>  (26) 
0

>  <r_i_glide_metal>  (26) 
-0

>  <r_i_glide_rewards>  (26) 
-1.92447

>  <r_i_glide_evdw>  (26) 
-19.0165

>  <r_i_glide_ecoul>  (26) 
-2.97096

>  <r_i_glide_erotb>  (26) 
0

>  <r_i_glide_esite>  (26) 
-0.0337229

>  <r_i_glide_emodel>  (26) 
-27.9442

>  <r_i_glide_energy>  (26) 
-21.9875

>  <r_i_glide_einternal>  (26) 
2.56946

>  <r_i_glide_intrahb_reward>  (26) 
-0

>  <i_i_glide_confnum>  (26) 
2

>  <i_i_glide_posenum>  (26) 
10

>  <r_i_glide_eff_state_penalty>  (26) 
0

>  <ligand_id>  (26) 
9

>  <original_smiles>  (26) 
CNC1CCC2(CC1)OC(=O)c1cccn12

>  <smiles>  (26) 
[H]c1c([H])c2n(c1[H])C1(OC2=O)C([H])([H])C([H])([H])C([H])([N+]([H])([H])C([H])([H])[H])C([H])([H])C1([H])[H]

$$$$
9:0:2
     RDKit          3D

 33 35  0  0  1  0  0  0  0  0999 V2000
    2.8740    0.3405   -4.7186 C   0  0  0  0  0  0  0  0  0  0  0  0
    3.1667   -1.0531   -4.3267 N   0  0  0  0  0  0  0  0  0  0  0  0
    3.1149   -1.3359   -2.8802 C   0  0  2  0  0  0  0  0  0  0  0  0
    4.3500   -0.7562   -2.1711 C   0  0  0  0  0  0  0  0  0  0  0  0
    4.3288   -1.0569   -0.6631 C   0  0  0  0  0  0  0  0  0  0  0  0
    4.2386   -2.5808   -0.4335 C   0  0  1  0  0  0  0  0  0  0  0  0
    3.0303   -3.2078   -1.1584 C   0  0  0  0  0  0  0  0  0  0  0  0
    3.0508   -2.8570   -2.6552 C   0  0  0  0  0  0  0  0  0  0  0  0
    5.4429   -3.1897   -0.8654 O   0  0  0  0  0  0  0  0  0  0  0  0
    6.1463   -3.6949    0.2032 C   0  0  0  0  0  0  0  0  0  0  0  0
    7.2672   -4.1985    0.1741 O   0  0  0  0  0  0  0  0  0  0  0  0
    5.3280   -3.5270    1.3722 C   0  0  0  0  0  0  0  0  0  0  0  0
    5.2480   -3.7760    2.7110 C   0  0  0  0  0  0  0  0  0  0  0  0
    3.9779   -3.2455    3.1155 C   0  0  0  0  0  0  0  0  0  0  0  0
    3.3546   -2.6984    2.0188 C   0  0  0  0  0  0  0  0  0  0  0  0
    4.2228   -2.8914    0.9646 N   0  0  0  0  0  0  0  0  0  0  0  0
    3.0180    0.4679   -5.7932 H   0  0  0  0  0  0  0  0  0  0  0  0
    3.5325    1.0472   -4.2149 H   0  0  0  0  0  0  0  0  0  0  0  0
    1.8405    0.5928   -4.4786 H   0  0  0  0  0  0  0  0  0  0  0  0
    2.4904   -1.6398   -4.8075 H   0  0  0  0  0  0  0  0  0  0  0  0
    2.2211   -0.8737   -2.4686 H   0  0  0  0  0  0  0  0  0  0  0  0
    5.2653   -1.1453   -2.6196 H   0  0  0  0  0  0  0  0  0  0  0  0
    4.3827    0.3205   -2.3181 H   0  0  0  0  0  0  0  0  0  0  0  0
    5.2293   -0.6692   -0.1854 H   0  0  0  0  0  0  0  0  0  0  0  0
    3.4741   -0.5791   -0.1814 H   0  0  0  0  0  0  0  0  0  0  0  0
    3.0450   -4.2882   -1.0131 H   0  0  0  0  0  0  0  0  0  0  0  0
    2.1205   -2.8272   -0.6972 H   0  0  0  0  0  0  0  0  0  0  0  0
    2.1490   -3.2604   -3.1191 H   0  0  0  0  0  0  0  0  0  0  0  0
    3.8905   -3.3600   -3.1402 H   0  0  0  0  0  0  0  0  0  0  0  0
    5.9855   -4.2798    3.3218 H   0  0  0  0  0  0  0  0  0  0  0  0
    3.5583   -3.2652    4.1121 H   0  0  0  0  0  0  0  0  0  0  0  0
    2.4000   -2.2116    1.8938 H   0  0  0  0  0  0  0  0  0  0  0  0
    4.0931   -1.2888   -4.6516 H   0  0  0  0  0  0  0  0  0  0  0  0
  1  2  1  0
  1 17  1  0
  1 18  1  0
  1 19  1  0
  2  3  1  0
  2 20  1  0
  2 33  1  0
  3  8  1  0
  3  4  1  0
  3 21  1  1
  4  5  1  0
  4 22  1  0
  4 23  1  0
  5  6  1  0
  5 24  1  0
  5 25  1  0
  6 16  1  0
  6  7  1  0
  6  9  1  6
  7  8  1  0
  7 26  1  0
  7 27  1  0
  8 28  1  0
  8 29  1  0
  9 10  1  0
 10 11  2  0
 10 12  1  0
 12 16  1  0
 12 13  2  0
 13 14  1  0
 13 30  1  0
 14 15  2  0
 14 31  1  0
 15 16  1  0
 15 32  1  0
M  CHG  1   2   1
M  END
>  <i_m_ct_stereo_status>  (27) 
1

>  <s_m_source_file>  (27) 
/var/tmp/pbs.5076255.sched01/tmphrtf3o8j/0_qqz9eae.sdf

>  <i_m_source_file_index>  (27) 
11

>  <i_lp_mmshare_version>  (27) 
48012

>  <i_f3d_flags>  (27) 
0

>  <s_epik_input>  (27) 
W0NIM11bTkhdW0NAQEhdKFtDSDJdW0NIMl0xKVtDSDJdW0NIMl1bQ0BAXTEybjNjKEMoTzIpPU8pW2NIXVtjSF1bY0hdMw==

>  <s_epik_cmdline>  (27) 
J2VwaWtfcHl0aG9uJywgJy1waHQnLCAnMi4wJywgJy1waCcsICc3LjAnLCAnLXRuJywgJzgnLCAnLW1hJywgJzIwMCcsICctaW1hZScsICc8aW5maWxlLm1hZT4nLCAnLW9tYWUnLCAnPG91dGZpbGUubWFlPic=

>  <r_epik_Ionization_Penalty>  (27) 
0.000967575

>  <r_epik_Ionization_Penalty_Charging>  (27) 
0.000967575

>  <r_epik_Ionization_Penalty_Neutral>  (27) 
0

>  <r_epik_State_Penalty>  (27) 
0.000629332

>  <r_epik_Charging_Adjusted_Penalty>  (27) 
0.00159691

>  <i_epik_Tot_Q>  (27) 
1

>  <i_epik_Tot_abs_Q>  (27) 
1

>  <s_epik_Chemistry_Notes>  (27) 
This compound has an ester and may undergo hydrolysis at high or low pH.

>  <s_lp_Force_Field>  (27) 
OPLS3e

>  <r_lp_Energy>  (27) 
18.4963

>  <b_lp_Chiralities_Consistent>  (27) 
1

>  <s_lp_Variant>  (27) 
9:0-1

>  <s_i_glide_gridfile>  (27) 
pfpi4k_grid

>  <i_i_glide_lignum>  (27) 
11

>  <i_i_glide_rotatable_bonds>  (27) 
1

>  <r_i_docking_score>  (27) 
-3.58188

>  <r_i_glide_ligand_efficiency>  (27) 
-0.223868

>  <r_i_glide_ligand_efficiency_sa>  (27) 
-0.564112

>  <r_i_glide_ligand_efficiency_ln>  (27) 
-0.94945

>  <r_i_glide_gscore>  (27) 
-3.58188

>  <r_i_glide_lipo>  (27) 
-0.12763

>  <r_i_glide_hbond>  (27) 
0

>  <r_i_glide_metal>  (27) 
-0

>  <r_i_glide_rewards>  (27) 
-2.01503

>  <r_i_glide_evdw>  (27) 
-18.0764

>  <r_i_glide_ecoul>  (27) 
-3.49779

>  <r_i_glide_erotb>  (27) 
0

>  <r_i_glide_esite>  (27) 
-0.0107368

>  <r_i_glide_emodel>  (27) 
-28.3022

>  <r_i_glide_energy>  (27) 
-21.5742

>  <r_i_glide_einternal>  (27) 
0.0473573

>  <r_i_glide_intrahb_reward>  (27) 
-0

>  <i_i_glide_confnum>  (27) 
2

>  <i_i_glide_posenum>  (27) 
2

>  <r_i_glide_eff_state_penalty>  (27) 
0

>  <ligand_id>  (27) 
9

>  <original_smiles>  (27) 
CNC1CCC2(CC1)OC(=O)c1cccn12

>  <smiles>  (27) 
[H]c1c([H])c2n(c1[H])C1(OC2=O)C([H])([H])C([H])([H])C([H])([N+]([H])([H])C([H])([H])[H])C([H])([H])C1([H])[H]

$$$$
10:1:0
     RDKit          3D

 57 63  0  0  1  0  0  0  0  0999 V2000
    0.4170   -2.3898    6.2880 C   0  0  0  0  0  0  0  0  0  0  0  0
    1.3057   -1.7762    5.1763 C   0  0  1  0  0  0  0  0  0  0  0  0
    2.9687   -2.0456    5.5970 C   0  0  0  0  0  0  0  0  0  0  0  0
    4.0613   -0.7487    5.9858 C   0  0  2  0  0  0  0  0  0  0  0  0
    5.2781   -1.4027    6.3162 O   0  0  0  0  0  0  0  0  0  0  0  0
    3.6192    0.2162    7.0486 O   0  0  0  0  0  0  0  0  0  0  0  0
    3.6881    1.4358    6.1673 C   0  0  1  0  0  0  0  0  0  0  0  0
    4.3105    0.5478    5.1250 C   0  0  2  0  0  0  0  0  0  0  0  0
    3.2774    1.0129    4.1190 C   0  0  1  0  0  0  0  0  0  0  0  0
    2.4996   -0.1168    3.7614 C   0  0  2  0  0  0  0  0  0  0  0  0
    3.5376   -0.9888    3.2739 O   0  0  0  0  0  0  0  0  0  0  0  0
    1.6317   -0.0918    2.5062 C   0  0  1  0  0  0  0  0  0  0  0  0
    2.3478   -0.0986    1.2827 O   0  0  0  0  0  0  0  0  0  0  0  0
    0.8862   -1.2342    2.6517 O   0  0  0  0  0  0  0  0  0  0  0  0
    0.2882   -1.2568    3.9427 C   0  0  2  0  0  0  0  0  0  0  0  0
   -0.6472    0.1568    3.9927 C   0  0  1  0  0  0  0  0  0  0  0  0
   -1.8255   -0.2881    4.6643 O   0  0  0  0  0  0  0  0  0  0  0  0
   -0.1652    1.7488    4.4329 C   0  0  2  0  0  0  0  0  0  0  0  0
   -1.3918    2.3386    5.2503 C   0  0  0  0  0  0  0  0  0  0  0  0
   -2.5886    2.5661    4.5222 O   0  0  0  0  0  0  0  0  0  0  0  0
    0.1903    2.8413    3.2968 C   0  0  1  0  0  0  0  0  0  0  0  0
   -0.5792    4.0384    3.2781 O   0  0  0  0  0  0  0  0  0  0  0  0
    1.6910    3.3186    3.1663 C   0  0  1  0  0  0  0  0  0  0  0  0
    1.8148    4.5700    2.5060 O   0  0  0  0  0  0  0  0  0  0  0  0
    2.5545    3.3582    4.4697 C   0  0  0  0  0  0  0  0  0  0  0  0
    2.5781    1.9698    5.1004 C   0  0  2  0  0  0  0  0  0  0  0  0
    1.0323    1.8221    5.4812 C   0  0  2  0  0  0  0  0  0  0  0  0
    0.8721    0.5701    6.1663 C   0  0  0  0  0  0  0  0  0  0  0  0
    1.5493   -0.4144    5.1483 C   0  0  1  0  0  0  0  0  0  0  0  0
    0.8067   -2.2029    7.2932 H   0  0  0  0  0  0  0  0  0  0  0  0
    0.3547   -3.4714    6.1511 H   0  0  0  0  0  0  0  0  0  0  0  0
   -0.6047   -2.0139    6.2478 H   0  0  0  0  0  0  0  0  0  0  0  0
    2.9403   -2.6929    6.4781 H   0  0  0  0  0  0  0  0  0  0  0  0
    3.3996   -2.7210    4.8695 H   0  0  0  0  0  0  0  0  0  0  0  0
    5.7566   -0.8171    6.8722 H   0  0  0  0  0  0  0  0  0  0  0  0
    4.4035    2.1775    6.5124 H   0  0  0  0  0  0  0  0  0  0  0  0
    5.3403    0.8026    4.9184 H   0  0  0  0  0  0  0  0  0  0  0  0
    3.8164    1.5045    3.3086 H   0  0  0  0  0  0  0  0  0  0  0  0
    3.7595   -0.6522    2.4156 H   0  0  0  0  0  0  0  0  0  0  0  0
    1.0258    0.7704    2.3868 H   0  0  0  0  0  0  0  0  0  0  0  0
    1.7339   -0.2719    0.5830 H   0  0  0  0  0  0  0  0  0  0  0  0
   -0.4053   -2.0832    3.8203 H   0  0  0  0  0  0  0  0  0  0  0  0
   -1.0457    0.2665    2.9870 H   0  0  0  0  0  0  0  0  0  0  0  0
   -2.5877    0.0182    4.1922 H   0  0  0  0  0  0  0  0  0  0  0  0
   -1.6544    1.7241    6.1138 H   0  0  0  0  0  0  0  0  0  0  0  0
   -1.1420    3.3035    5.6855 H   0  0  0  0  0  0  0  0  0  0  0  0
   -2.7828    1.8229    3.9769 H   0  0  0  0  0  0  0  0  0  0  0  0
   -0.1410    2.4331    2.3449 H   0  0  0  0  0  0  0  0  0  0  0  0
   -0.5040    4.3731    2.3839 H   0  0  0  0  0  0  0  0  0  0  0  0
    2.1600    2.6417    2.4584 H   0  0  0  0  0  0  0  0  0  0  0  0
    1.2126    4.5470    1.7406 H   0  0  0  0  0  0  0  0  0  0  0  0
    3.5644    3.6720    4.2059 H   0  0  0  0  0  0  0  0  0  0  0  0
    2.1802    4.1107    5.1671 H   0  0  0  0  0  0  0  0  0  0  0  0
    0.8205    2.6072    6.2093 H   0  0  0  0  0  0  0  0  0  0  0  0
    1.2585    0.7513    7.1936 H   0  0  0  0  0  0  0  0  0  0  0  0
   -0.1469    0.2818    6.4112 H   0  0  0  0  0  0  0  0  0  0  0  0
    1.8808   -0.4672    6.1248 H   0  0  0  0  0  0  0  0  0  0  0  0
  2  1  1  1
  1 30  1  0
  1 31  1  0
  1 32  1  0
  2 15  1  0
  2 29  1  0
  2  3  1  0
  3  4  1  0
  3 33  1  0
  3 34  1  0
  4  8  1  0
  4  5  1  1
  4  6  1  0
  5 35  1  0
  6  7  1  0
  7 26  1  0
  7  8  1  0
  7 36  1  1
  8  9  1  0
  8 37  1  6
  9 26  1  0
  9 10  1  0
  9 38  1  6
 10 29  1  0
 10 11  1  6
 10 12  1  0
 11 39  1  0
 12 13  1  0
 12 14  1  0
 12 40  1  1
 13 41  1  0
 14 15  1  0
 15 16  1  0
 15 42  1  6
 16 17  1  0
 16 18  1  0
 16 43  1  6
 17 44  1  0
 18 27  1  0
 18 19  1  1
 18 21  1  0
 19 20  1  0
 19 45  1  0
 19 46  1  0
 20 47  1  0
 21 22  1  0
 21 23  1  0
 21 48  1  6
 22 49  1  0
 23 24  1  0
 23 25  1  0
 23 50  1  6
 24 51  1  0
 26 25  1  6
 25 52  1  0
 25 53  1  0
 26 27  1  0
 27 28  1  0
 27 54  1  1
 28 29  1  0
 28 55  1  0
 28 56  1  0
 29 57  1  1
M  END
>  <i_m_ct_stereo_status>  (28) 
1

>  <s_m_source_file>  (28) 
/var/tmp/pbs.5076255.sched01/tmphrtf3o8j/0_qqz9eae.sdf

>  <i_m_source_file_index>  (28) 
13

>  <i_lp_mmshare_version>  (28) 
48012

>  <i_f3d_flags>  (28) 
0

>  <s_epik_input>  (28) 
W0NAQF0xMjNbQ0BASF00W0NASF01W0NAXShPNCkoW09IXSlbQ0gyXUM2KFtDSDNdKVtDQEBIXTdPW0NASF0oW09IXSlbQ0BdKFtDQEBIXTE1KShbT0hdKVtDQEhdNltDSDJdW0NIXTNbQ0BAXShbQ0BASF03W09IXSkoW0NIMl1bT0hdKVtDQEBIXShbT0hdKVtDQEBIXShbT0hdKVtDSDJdMg==

>  <s_epik_cmdline>  (28) 
J2VwaWtfcHl0aG9uJywgJy1waHQnLCAnMi4wJywgJy1waCcsICc3LjAnLCAnLXRuJywgJzgnLCAnLW1hJywgJzIwMCcsICctaW1hZScsICc8aW5maWxlLm1hZT4nLCAnLW9tYWUnLCAnPG91dGZpbGUubWFlPic=

>  <r_lp_tautomer_probability>  (28) 
1

>  <r_epik_Ionization_Penalty>  (28) 
1.07505e-06

>  <r_epik_Ionization_Penalty_Charging>  (28) 
0

>  <r_epik_Ionization_Penalty_Neutral>  (28) 
1.07505e-06

>  <r_epik_State_Penalty>  (28) 
-0

>  <r_epik_Charging_Adjusted_Penalty>  (28) 
0

>  <i_epik_Tot_Q>  (28) 
0

>  <i_epik_Tot_abs_Q>  (28) 
0

>  <s_epik_Chemistry_Notes>  (28) 
This compound contains an acetal/aminal-like group ( X-CH(R)-Y where X, Y are N, S, or O) that may be acid/base labile, releasing an aldehyde.

>  <s_lp_Force_Field>  (28) 
OPLS3e

>  <r_lp_Energy>  (28) 
405.989

>  <b_lp_Chiralities_Consistent>  (28) 
1

>  <s_lp_Variant>  (28) 
10:0-2

>  <s_i_glide_gridfile>  (28) 
pfpi4k_grid

>  <i_i_glide_lignum>  (28) 
13

>  <i_i_glide_rotatable_bonds>  (28) 
8

>  <r_i_docking_score>  (28) 
-3.91458

>  <r_i_glide_ligand_efficiency>  (28) 
-0.134986

>  <r_i_glide_ligand_efficiency_sa>  (28) 
-0.414719

>  <r_i_glide_ligand_efficiency_ln>  (28) 
-0.89634

>  <r_i_glide_gscore>  (28) 
-3.91458

>  <r_i_glide_lipo>  (28) 
-0.0139549

>  <r_i_glide_hbond>  (28) 
0

>  <r_i_glide_metal>  (28) 
-0

>  <r_i_glide_rewards>  (28) 
-0.597062

>  <r_i_glide_evdw>  (28) 
-12.96

>  <r_i_glide_ecoul>  (28) 
-18.2797

>  <r_i_glide_erotb>  (28) 
0.115926

>  <r_i_glide_esite>  (28) 
-0.0295372

>  <r_i_glide_emodel>  (28) 
-39.5028

>  <r_i_glide_energy>  (28) 
-31.2397

>  <r_i_glide_einternal>  (28) 
2.70868

>  <r_i_glide_intrahb_reward>  (28) 
-0

>  <i_i_glide_confnum>  (28) 
1

>  <i_i_glide_posenum>  (28) 
23

>  <r_i_glide_eff_state_penalty>  (28) 
0

>  <ligand_id>  (28) 
10

>  <original_smiles>  (28) 
CC12CC3(O)OC4C3C3C5(O)C(O)OC1C(O)C1(CO)C(O)C(O)CC43C1CC25

>  <smiles>  (28) 
[H]OC([H])([H])C12C([H])(O[H])C([H])(O[H])C([H])([H])C34C5([H])OC6(O[H])C([H])([H])C7(C([H])([H])[H])C([H])(OC([H])(O[H])C(O[H])(C7([H])C([H])([H])C13[H])C4([H])C56[H])C2([H])O[H]

$$$$
10:1:1
     RDKit          3D

 57 63  0  0  1  0  0  0  0  0999 V2000
    0.5038   -2.4426    6.2816 C   0  0  0  0  0  0  0  0  0  0  0  0
    1.4144   -1.8722    5.1637 C   0  0  1  0  0  0  0  0  0  0  0  0
    3.0582   -2.2104    5.5861 C   0  0  0  0  0  0  0  0  0  0  0  0
    4.2096   -0.9610    5.9867 C   0  0  2  0  0  0  0  0  0  0  0  0
    5.3706   -1.6856    6.3492 O   0  0  0  0  0  0  0  0  0  0  0  0
    3.8101    0.0233    7.0461 O   0  0  0  0  0  0  0  0  0  0  0  0
    3.9397    1.2366    6.1713 C   0  0  1  0  0  0  0  0  0  0  0  0
    4.5252    0.3253    5.1309 C   0  0  2  0  0  0  0  0  0  0  0  0
    3.5159    0.8383    4.1192 C   0  0  1  0  0  0  0  0  0  0  0  0
    2.6849   -0.2612    3.7622 C   0  0  2  0  0  0  0  0  0  0  0  0
    3.6781   -1.1782    3.2650 O   0  0  0  0  0  0  0  0  0  0  0  0
    1.8232   -0.2023    2.4911 C   0  0  1  0  0  0  0  0  0  0  0  0
    2.5539   -0.2271    1.2785 O   0  0  0  0  0  0  0  0  0  0  0  0
    1.0140   -1.3021    2.6338 O   0  0  0  0  0  0  0  0  0  0  0  0
    0.4262   -1.3176    3.9227 C   0  0  2  0  0  0  0  0  0  0  0  0
   -0.4574    0.1272    3.9834 C   0  0  1  0  0  0  0  0  0  0  0  0
   -1.6697   -0.2740    4.6150 O   0  0  0  0  0  0  0  0  0  0  0  0
    0.0957    1.6914    4.4361 C   0  0  2  0  0  0  0  0  0  0  0  0
   -1.1148    2.3332    5.2407 C   0  0  0  0  0  0  0  0  0  0  0  0
   -2.3025    2.4612    4.4753 O   0  0  0  0  0  0  0  0  0  0  0  0
    0.4859    2.7722    3.3009 C   0  0  1  0  0  0  0  0  0  0  0  0
   -0.2840    3.9729    3.3210 O   0  0  0  0  0  0  0  0  0  0  0  0
    2.0056    3.2061    3.1696 C   0  0  1  0  0  0  0  0  0  0  0  0
    2.1762    4.4644    2.5362 O   0  0  0  0  0  0  0  0  0  0  0  0
    2.8785    3.2075    4.4688 C   0  0  0  0  0  0  0  0  0  0  0  0
    2.8515    1.8177    5.0992 C   0  0  2  0  0  0  0  0  0  0  0  0
    1.2963    1.7333    5.4820 C   0  0  2  0  0  0  0  0  0  0  0  0
    1.0828    0.4902    6.1682 C   0  0  0  0  0  0  0  0  0  0  0  0
    1.7211   -0.5162    5.1407 C   0  0  1  0  0  0  0  0  0  0  0  0
    0.9017   -2.2691    7.2847 H   0  0  0  0  0  0  0  0  0  0  0  0
    0.4001   -3.5208    6.1449 H   0  0  0  0  0  0  0  0  0  0  0  0
   -0.5020   -2.0210    6.2404 H   0  0  0  0  0  0  0  0  0  0  0  0
    3.0062   -2.8535    6.4708 H   0  0  0  0  0  0  0  0  0  0  0  0
    3.4763   -2.9121    4.8574 H   0  0  0  0  0  0  0  0  0  0  0  0
    5.1941   -2.0244    7.2174 H   0  0  0  0  0  0  0  0  0  0  0  0
    4.6806    1.9578    6.5141 H   0  0  0  0  0  0  0  0  0  0  0  0
    5.5758    0.5344    4.9179 H   0  0  0  0  0  0  0  0  0  0  0  0
    4.0618    1.3077    3.2973 H   0  0  0  0  0  0  0  0  0  0  0  0
    3.8908   -0.8697    2.3930 H   0  0  0  0  0  0  0  0  0  0  0  0
    1.2478    0.6867    2.3828 H   0  0  0  0  0  0  0  0  0  0  0  0
    1.9189   -0.3200    0.5668 H   0  0  0  0  0  0  0  0  0  0  0  0
   -0.3073   -2.1159    3.8084 H   0  0  0  0  0  0  0  0  0  0  0  0
   -0.8388    0.2704    2.9709 H   0  0  0  0  0  0  0  0  0  0  0  0
   -2.3668    0.2659    4.2567 H   0  0  0  0  0  0  0  0  0  0  0  0
   -1.3708    1.7749    6.1440 H   0  0  0  0  0  0  0  0  0  0  0  0
   -0.8529    3.3281    5.6220 H   0  0  0  0  0  0  0  0  0  0  0  0
   -2.0666    2.9460    3.6946 H   0  0  0  0  0  0  0  0  0  0  0  0
    0.1463    2.3885    2.3408 H   0  0  0  0  0  0  0  0  0  0  0  0
   -0.1935    4.3174    2.4079 H   0  0  0  0  0  0  0  0  0  0  0  0
    2.4561    2.5231    2.4510 H   0  0  0  0  0  0  0  0  0  0  0  0
    1.5829    4.5054    1.7826 H   0  0  0  0  0  0  0  0  0  0  0  0
    3.8993    3.4816    4.1989 H   0  0  0  0  0  0  0  0  0  0  0  0
    2.5363    3.9780    5.1598 H   0  0  0  0  0  0  0  0  0  0  0  0
    1.1050    2.5359    6.1987 H   0  0  0  0  0  0  0  0  0  0  0  0
    1.4719    0.6715    7.1947 H   0  0  0  0  0  0  0  0  0  0  0  0
    0.0511    0.2450    6.4042 H   0  0  0  0  0  0  0  0  0  0  0  0
    2.0519   -0.5759    6.1200 H   0  0  0  0  0  0  0  0  0  0  0  0
  2  1  1  1
  1 30  1  0
  1 31  1  0
  1 32  1  0
  2 15  1  0
  2 29  1  0
  2  3  1  0
  3  4  1  0
  3 33  1  0
  3 34  1  0
  4  8  1  0
  4  5  1  1
  4  6  1  0
  5 35  1  0
  6  7  1  0
  7 26  1  0
  7  8  1  0
  7 36  1  1
  8  9  1  0
  8 37  1  6
  9 26  1  0
  9 10  1  0
  9 38  1  6
 10 29  1  0
 10 11  1  6
 10 12  1  0
 11 39  1  0
 12 13  1  0
 12 14  1  0
 12 40  1  1
 13 41  1  0
 14 15  1  0
 15 16  1  0
 15 42  1  6
 16 17  1  0
 16 18  1  0
 16 43  1  6
 17 44  1  0
 18 27  1  0
 18 19  1  1
 18 21  1  0
 19 20  1  0
 19 45  1  0
 19 46  1  0
 20 47  1  0
 21 22  1  0
 21 23  1  0
 21 48  1  6
 22 49  1  0
 23 24  1  0
 23 25  1  0
 23 50  1  6
 24 51  1  0
 26 25  1  6
 25 52  1  0
 25 53  1  0
 26 27  1  0
 27 28  1  0
 27 54  1  1
 28 29  1  0
 28 55  1  0
 28 56  1  0
 29 57  1  1
M  END
>  <i_m_ct_stereo_status>  (29) 
1

>  <s_m_source_file>  (29) 
/var/tmp/pbs.5076255.sched01/tmphrtf3o8j/0_qqz9eae.sdf

>  <i_m_source_file_index>  (29) 
13

>  <i_lp_mmshare_version>  (29) 
48012

>  <i_f3d_flags>  (29) 
0

>  <s_epik_input>  (29) 
W0NAQF0xMjNbQ0BASF00W0NASF01W0NAXShPNCkoW09IXSlbQ0gyXUM2KFtDSDNdKVtDQEBIXTdPW0NASF0oW09IXSlbQ0BdKFtDQEBIXTE1KShbT0hdKVtDQEhdNltDSDJdW0NIXTNbQ0BAXShbQ0BASF03W09IXSkoW0NIMl1bT0hdKVtDQEBIXShbT0hdKVtDQEBIXShbT0hdKVtDSDJdMg==

>  <s_epik_cmdline>  (29) 
J2VwaWtfcHl0aG9uJywgJy1waHQnLCAnMi4wJywgJy1waCcsICc3LjAnLCAnLXRuJywgJzgnLCAnLW1hJywgJzIwMCcsICctaW1hZScsICc8aW5maWxlLm1hZT4nLCAnLW9tYWUnLCAnPG91dGZpbGUubWFlPic=

>  <r_lp_tautomer_probability>  (29) 
1

>  <r_epik_Ionization_Penalty>  (29) 
1.07505e-06

>  <r_epik_Ionization_Penalty_Charging>  (29) 
0

>  <r_epik_Ionization_Penalty_Neutral>  (29) 
1.07505e-06

>  <r_epik_State_Penalty>  (29) 
-0

>  <r_epik_Charging_Adjusted_Penalty>  (29) 
0

>  <i_epik_Tot_Q>  (29) 
0

>  <i_epik_Tot_abs_Q>  (29) 
0

>  <s_epik_Chemistry_Notes>  (29) 
This compound contains an acetal/aminal-like group ( X-CH(R)-Y where X, Y are N, S, or O) that may be acid/base labile, releasing an aldehyde.

>  <s_lp_Force_Field>  (29) 
OPLS3e

>  <r_lp_Energy>  (29) 
405.989

>  <b_lp_Chiralities_Consistent>  (29) 
1

>  <s_lp_Variant>  (29) 
10:0-2

>  <s_i_glide_gridfile>  (29) 
pfpi4k_grid

>  <i_i_glide_lignum>  (29) 
13

>  <i_i_glide_rotatable_bonds>  (29) 
8

>  <r_i_docking_score>  (29) 
-3.81567

>  <r_i_glide_ligand_efficiency>  (29) 
-0.131575

>  <r_i_glide_ligand_efficiency_sa>  (29) 
-0.40424

>  <r_i_glide_ligand_efficiency_ln>  (29) 
-0.873692

>  <r_i_glide_gscore>  (29) 
-3.81567

>  <r_i_glide_lipo>  (29) 
-0.0250557

>  <r_i_glide_hbond>  (29) 
0

>  <r_i_glide_metal>  (29) 
-0

>  <r_i_glide_rewards>  (29) 
-1.09874

>  <r_i_glide_evdw>  (29) 
-16.5947

>  <r_i_glide_ecoul>  (29) 
-13.0058

>  <r_i_glide_erotb>  (29) 
0.115926

>  <r_i_glide_esite>  (29) 
-0.0271972

>  <r_i_glide_emodel>  (29) 
-42.812

>  <r_i_glide_energy>  (29) 
-29.6005

>  <r_i_glide_einternal>  (29) 
2.99474

>  <r_i_glide_intrahb_reward>  (29) 
-0.5

>  <i_i_glide_confnum>  (29) 
3

>  <i_i_glide_posenum>  (29) 
37

>  <r_i_glide_eff_state_penalty>  (29) 
0

>  <ligand_id>  (29) 
10

>  <original_smiles>  (29) 
CC12CC3(O)OC4C3C3C5(O)C(O)OC1C(O)C1(CO)C(O)C(O)CC43C1CC25

>  <smiles>  (29) 
[H]OC([H])([H])C12C([H])(O[H])C([H])(O[H])C([H])([H])C34C5([H])OC6(O[H])C([H])([H])C7(C([H])([H])[H])C([H])(OC([H])(O[H])C(O[H])(C7([H])C([H])([H])C13[H])C4([H])C56[H])C2([H])O[H]

$$$$
10:1:2
     RDKit          3D

 57 63  0  0  1  0  0  0  0  0999 V2000
    0.3342   -2.1354    6.4924 C   0  0  0  0  0  0  0  0  0  0  0  0
    1.2270   -1.6566    5.3277 C   0  0  1  0  0  0  0  0  0  0  0  0
    2.8653   -2.0647    5.6971 C   0  0  0  0  0  0  0  0  0  0  0  0
    4.0895   -0.8667    6.0000 C   0  0  2  0  0  0  0  0  0  0  0  0
    5.2526   -1.6089    6.3273 O   0  0  0  0  0  0  0  0  0  0  0  0
    3.7755    0.1791    7.0281 O   0  0  0  0  0  0  0  0  0  0  0  0
    3.9306    1.3513    6.0917 C   0  0  1  0  0  0  0  0  0  0  0  0
    4.4188    0.3743    5.0758 C   0  0  2  0  0  0  0  0  0  0  0  0
    3.3987    0.9024    4.0886 C   0  0  1  0  0  0  0  0  0  0  0  0
    2.5110   -0.1668    3.7960 C   0  0  2  0  0  0  0  0  0  0  0  0
    3.4452   -1.1462    3.3084 O   0  0  0  0  0  0  0  0  0  0  0  0
    1.5991   -0.1135    2.5571 C   0  0  1  0  0  0  0  0  0  0  0  0
    2.2797   -0.2547    1.3172 O   0  0  0  0  0  0  0  0  0  0  0  0
    0.7442   -1.1678    2.7915 O   0  0  0  0  0  0  0  0  0  0  0  0
    0.2129   -1.0885    4.1087 C   0  0  2  0  0  0  0  0  0  0  0  0
   -0.5873    0.4040    4.1342 C   0  0  1  0  0  0  0  0  0  0  0  0
   -1.7662    0.0878    4.8734 O   0  0  0  0  0  0  0  0  0  0  0  0
    0.0456    1.9588    4.4940 C   0  0  2  0  0  0  0  0  0  0  0  0
   -1.0918    2.6881    5.3313 C   0  0  0  0  0  0  0  0  0  0  0  0
   -2.3327    2.9198    4.6771 O   0  0  0  0  0  0  0  0  0  0  0  0
    0.4588    2.9713    3.3065 C   0  0  1  0  0  0  0  0  0  0  0  0
   -0.2131    4.2211    3.2878 O   0  0  0  0  0  0  0  0  0  0  0  0
    1.9918    3.2972    3.1033 C   0  0  1  0  0  0  0  0  0  0  0  0
    2.2414    4.5170    2.4575 O   0  0  0  0  0  0  0  0  0  0  0  0
    2.9032    3.3067    4.3685 C   0  0  0  0  0  0  0  0  0  0  0  0
    2.8242    1.9528    5.0487 C   0  0  2  0  0  0  0  0  0  0  0  0
    1.2881    1.9635    5.4910 C   0  0  2  0  0  0  0  0  0  0  0  0
    1.0542    0.7567    6.2291 C   0  0  0  0  0  0  0  0  0  0  0  0
    1.5911   -0.3239    5.2232 C   0  0  1  0  0  0  0  0  0  0  0  0
    0.7788   -1.9481    7.4717 H   0  0  0  0  0  0  0  0  0  0  0  0
    0.1738   -3.2096    6.3997 H   0  0  0  0  0  0  0  0  0  0  0  0
   -0.6461   -1.6639    6.4668 H   0  0  0  0  0  0  0  0  0  0  0  0
    2.8122   -2.6637    6.6094 H   0  0  0  0  0  0  0  0  0  0  0  0
    3.2008   -2.7978    4.9760 H   0  0  0  0  0  0  0  0  0  0  0  0
    5.4475   -2.1894    5.6055 H   0  0  0  0  0  0  0  0  0  0  0  0
    4.7397    2.0271    6.3612 H   0  0  0  0  0  0  0  0  0  0  0  0
    5.4612    0.5395    4.8292 H   0  0  0  0  0  0  0  0  0  0  0  0
    3.9436    1.3076    3.2405 H   0  0  0  0  0  0  0  0  0  0  0  0
    3.5981   -0.8896    2.4027 H   0  0  0  0  0  0  0  0  0  0  0  0
    1.0843    0.8081    2.4258 H   0  0  0  0  0  0  0  0  0  0  0  0
    1.6286   -0.3831    0.6260 H   0  0  0  0  0  0  0  0  0  0  0  0
   -0.5614   -1.8465    4.0550 H   0  0  0  0  0  0  0  0  0  0  0  0
   -1.0059    0.5121    3.1364 H   0  0  0  0  0  0  0  0  0  0  0  0
   -2.5121    0.3827    4.3830 H   0  0  0  0  0  0  0  0  0  0  0  0
   -1.3256    2.1517    6.2504 H   0  0  0  0  0  0  0  0  0  0  0  0
   -0.7553    3.6621    5.6790 H   0  0  0  0  0  0  0  0  0  0  0  0
   -2.4980    2.2206    4.0670 H   0  0  0  0  0  0  0  0  0  0  0  0
    0.0508    2.5535    2.3925 H   0  0  0  0  0  0  0  0  0  0  0  0
   -0.1795    4.5064    2.3523 H   0  0  0  0  0  0  0  0  0  0  0  0
    2.3717    2.5652    2.3932 H   0  0  0  0  0  0  0  0  0  0  0  0
    1.6178    4.5518    1.7113 H   0  0  0  0  0  0  0  0  0  0  0  0
    3.9233    3.5198    4.0553 H   0  0  0  0  0  0  0  0  0  0  0  0
    2.6295    4.1153    5.0454 H   0  0  0  0  0  0  0  0  0  0  0  0
    1.1786    2.7970    6.1875 H   0  0  0  0  0  0  0  0  0  0  0  0
    1.5003    0.9405    7.2315 H   0  0  0  0  0  0  0  0  0  0  0  0
    0.0264    0.5778    6.5223 H   0  0  0  0  0  0  0  0  0  0  0  0
    1.9501   -0.3702    6.1887 H   0  0  0  0  0  0  0  0  0  0  0  0
  2  1  1  1
  1 30  1  0
  1 31  1  0
  1 32  1  0
  2 15  1  0
  2 29  1  0
  2  3  1  0
  3  4  1  0
  3 33  1  0
  3 34  1  0
  4  8  1  0
  4  5  1  1
  4  6  1  0
  5 35  1  0
  6  7  1  0
  7 26  1  0
  7  8  1  0
  7 36  1  1
  8  9  1  0
  8 37  1  6
  9 26  1  0
  9 10  1  0
  9 38  1  6
 10 29  1  0
 10 11  1  6
 10 12  1  0
 11 39  1  0
 12 13  1  0
 12 14  1  0
 12 40  1  6
 13 41  1  0
 14 15  1  0
 15 16  1  0
 15 42  1  6
 16 17  1  0
 16 18  1  0
 16 43  1  6
 17 44  1  0
 18 27  1  0
 18 19  1  1
 18 21  1  0
 19 20  1  0
 19 45  1  0
 19 46  1  0
 20 47  1  0
 21 22  1  0
 21 23  1  0
 21 48  1  6
 22 49  1  0
 23 24  1  0
 23 25  1  0
 23 50  1  6
 24 51  1  0
 26 25  1  6
 25 52  1  0
 25 53  1  0
 26 27  1  0
 27 28  1  0
 27 54  1  1
 28 29  1  0
 28 55  1  0
 28 56  1  0
 29 57  1  1
M  END
>  <i_m_ct_stereo_status>  (30) 
1

>  <s_m_source_file>  (30) 
/var/tmp/pbs.5076255.sched01/tmphrtf3o8j/0_qqz9eae.sdf

>  <i_m_source_file_index>  (30) 
13

>  <i_lp_mmshare_version>  (30) 
48012

>  <i_f3d_flags>  (30) 
0

>  <s_epik_input>  (30) 
W0NAQF0xMjNbQ0BASF00W0NASF01W0NAXShPNCkoW09IXSlbQ0gyXUM2KFtDSDNdKVtDQEBIXTdPW0NASF0oW09IXSlbQ0BdKFtDQEBIXTE1KShbT0hdKVtDQEhdNltDSDJdW0NIXTNbQ0BAXShbQ0BASF03W09IXSkoW0NIMl1bT0hdKVtDQEBIXShbT0hdKVtDQEBIXShbT0hdKVtDSDJdMg==

>  <s_epik_cmdline>  (30) 
J2VwaWtfcHl0aG9uJywgJy1waHQnLCAnMi4wJywgJy1waCcsICc3LjAnLCAnLXRuJywgJzgnLCAnLW1hJywgJzIwMCcsICctaW1hZScsICc8aW5maWxlLm1hZT4nLCAnLW9tYWUnLCAnPG91dGZpbGUubWFlPic=

>  <r_lp_tautomer_probability>  (30) 
1

>  <r_epik_Ionization_Penalty>  (30) 
1.07505e-06

>  <r_epik_Ionization_Penalty_Charging>  (30) 
0

>  <r_epik_Ionization_Penalty_Neutral>  (30) 
1.07505e-06

>  <r_epik_State_Penalty>  (30) 
-0

>  <r_epik_Charging_Adjusted_Penalty>  (30) 
0

>  <i_epik_Tot_Q>  (30) 
0

>  <i_epik_Tot_abs_Q>  (30) 
0

>  <s_epik_Chemistry_Notes>  (30) 
This compound contains an acetal/aminal-like group ( X-CH(R)-Y where X, Y are N, S, or O) that may be acid/base labile, releasing an aldehyde.

>  <s_lp_Force_Field>  (30) 
OPLS3e

>  <r_lp_Energy>  (30) 
405.989

>  <b_lp_Chiralities_Consistent>  (30) 
1

>  <s_lp_Variant>  (30) 
10:0-2

>  <s_i_glide_gridfile>  (30) 
pfpi4k_grid

>  <i_i_glide_lignum>  (30) 
13

>  <i_i_glide_rotatable_bonds>  (30) 
8

>  <r_i_docking_score>  (30) 
-3.73028

>  <r_i_glide_ligand_efficiency>  (30) 
-0.12863

>  <r_i_glide_ligand_efficiency_sa>  (30) 
-0.395193

>  <r_i_glide_ligand_efficiency_ln>  (30) 
-0.854138

>  <r_i_glide_gscore>  (30) 
-3.73028

>  <r_i_glide_lipo>  (30) 
-0.0204406

>  <r_i_glide_hbond>  (30) 
0

>  <r_i_glide_metal>  (30) 
-0

>  <r_i_glide_rewards>  (30) 
-0.597062

>  <r_i_glide_evdw>  (30) 
-15.6528

>  <r_i_glide_ecoul>  (30) 
-16.1139

>  <r_i_glide_erotb>  (30) 
0.115926

>  <r_i_glide_esite>  (30) 
-0.0289766

>  <r_i_glide_emodel>  (30) 
-38.9097

>  <r_i_glide_energy>  (30) 
-31.7667

>  <r_i_glide_einternal>  (30) 
3.59349

>  <r_i_glide_intrahb_reward>  (30) 
-0

>  <i_i_glide_confnum>  (30) 
4

>  <i_i_glide_posenum>  (30) 
1

>  <r_i_glide_eff_state_penalty>  (30) 
0

>  <ligand_id>  (30) 
10

>  <original_smiles>  (30) 
CC12CC3(O)OC4C3C3C5(O)C(O)OC1C(O)C1(CO)C(O)C(O)CC43C1CC25

>  <smiles>  (30) 
[H]OC([H])([H])C12C([H])(O[H])C([H])(O[H])C([H])([H])C34C5([H])OC6(O[H])C([H])([H])C7(C([H])([H])[H])C([H])(OC([H])(O[H])C(O[H])(C7([H])C([H])([H])C13[H])C4([H])C56[H])C2([H])O[H]

$$$$
12:0:0
     RDKit          3D

 31 33  0  0  1  0  0  0  0  0999 V2000
    6.2574   -3.1376   -2.4408 C   0  0  0  0  0  0  0  0  0  0  0  0
    4.9321   -3.6275   -1.8332 C   0  0  2  0  0  0  0  0  0  0  0  0
    3.6704   -2.7828   -2.1259 C   0  0  2  0  0  0  0  0  0  0  0  0
    3.2289   -2.7608   -3.6008 C   0  0  0  0  0  0  0  0  0  0  0  0
    3.8745   -1.4095   -1.7344 O   0  0  0  0  0  0  0  0  0  0  0  0
    4.5742   -1.1088   -0.5102 C   0  0  0  0  0  0  0  0  0  0  0  0
    4.8013   -2.3192    0.4076 C   0  0  1  0  0  0  0  0  0  0  0  0
    5.7646   -2.0022    1.5460 C   0  0  0  0  0  0  0  0  0  0  0  0
    3.5111   -2.6667    0.9724 O   0  0  0  0  0  0  0  0  0  0  0  0
    3.4216   -3.8054    0.0810 C   0  0  1  0  0  0  0  0  0  0  0  0
    2.8771   -5.0335    0.8009 C   0  0  0  0  0  0  0  0  0  0  0  0
    2.6627   -3.4472   -1.1695 C   0  0  0  0  0  0  0  0  0  0  0  0
    1.5103   -3.7396   -1.5074 O   0  0  0  0  0  0  0  0  0  0  0  0
    4.8932   -3.6744   -0.3107 C   0  0  1  0  0  0  0  0  0  0  0  0
    5.7920   -4.6395    0.1948 O   0  0  0  0  0  0  0  0  0  0  0  0
    6.5460   -2.1425   -2.1120 H   0  0  0  0  0  0  0  0  0  0  0  0
    6.2007   -3.1395   -3.5216 H   0  0  0  0  0  0  0  0  0  0  0  0
    7.0667   -3.8098   -2.1583 H   0  0  0  0  0  0  0  0  0  0  0  0
    4.7574   -4.6334   -2.2274 H   0  0  0  0  0  0  0  0  0  0  0  0
    3.0713   -3.7657   -3.9967 H   0  0  0  0  0  0  0  0  0  0  0  0
    3.9861   -2.2638   -4.2078 H   0  0  0  0  0  0  0  0  0  0  0  0
    2.3011   -2.1977   -3.7266 H   0  0  0  0  0  0  0  0  0  0  0  0
    5.5439   -0.7139   -0.8098 H   0  0  0  0  0  0  0  0  0  0  0  0
    4.0846   -0.2884    0.0167 H   0  0  0  0  0  0  0  0  0  0  0  0
    6.7736   -1.8376    1.1646 H   0  0  0  0  0  0  0  0  0  0  0  0
    5.8101   -2.8225    2.2629 H   0  0  0  0  0  0  0  0  0  0  0  0
    5.4564   -1.1061    2.0838 H   0  0  0  0  0  0  0  0  0  0  0  0
    2.9456   -5.9124    0.1585 H   0  0  0  0  0  0  0  0  0  0  0  0
    1.8306   -4.9088    1.0791 H   0  0  0  0  0  0  0  0  0  0  0  0
    3.4371   -5.2459    1.7127 H   0  0  0  0  0  0  0  0  0  0  0  0
    5.5038   -5.4707   -0.1490 H   0  0  0  0  0  0  0  0  0  0  0  0
  1  2  1  0
  1 16  1  0
  1 17  1  0
  1 18  1  0
  2 14  1  0
  2  3  1  0
  2 19  1  6
  3 12  1  0
  3  4  1  6
  3  5  1  0
  4 20  1  0
  4 21  1  0
  4 22  1  0
  5  6  1  0
  6  7  1  0
  6 23  1  0
  6 24  1  0
  7 14  1  0
  7  8  1  1
  7  9  1  0
  8 25  1  0
  8 26  1  0
  8 27  1  0
  9 10  1  0
 10 11  1  1
 10 12  1  0
 10 14  1  0
 11 28  1  0
 11 29  1  0
 11 30  1  0
 12 13  2  0
 14 15  1  1
 15 31  1  0
M  END
>  <i_m_ct_stereo_status>  (31) 
1

>  <s_m_source_file>  (31) 
/var/tmp/pbs.5076255.sched01/tmphrtf3o8j/0_qqz9eae.sdf

>  <i_m_source_file_index>  (31) 
15

>  <i_lp_mmshare_version>  (31) 
48012

>  <i_f3d_flags>  (31) 
0

>  <s_epik_input>  (31) 
W0NIM11bQ0BAXTEyW0NAQEhdKFtDSDNdKVtDQEBdMyhbT0hdKVtDQF0oW0NIMl1PMSkoW0NIM10pT1tDQEBdMyhbQ0gzXSlDMj1P

>  <s_epik_cmdline>  (31) 
J2VwaWtfcHl0aG9uJywgJy1waHQnLCAnMi4wJywgJy1waCcsICc3LjAnLCAnLXRuJywgJzgnLCAnLW1hJywgJzIwMCcsICctaW1hZScsICc8aW5maWxlLm1hZT4nLCAnLW9tYWUnLCAnPG91dGZpbGUubWFlPic=

>  <r_lp_tautomer_probability>  (31) 
1

>  <r_epik_Ionization_Penalty>  (31) 
1.23722e-06

>  <r_epik_Ionization_Penalty_Charging>  (31) 
0

>  <r_epik_Ionization_Penalty_Neutral>  (31) 
1.23722e-06

>  <r_epik_State_Penalty>  (31) 
-0

>  <r_epik_Charging_Adjusted_Penalty>  (31) 
0

>  <i_epik_Tot_Q>  (31) 
0

>  <i_epik_Tot_abs_Q>  (31) 
0

>  <s_lp_Force_Field>  (31) 
OPLS3e

>  <r_lp_Energy>  (31) 
19.847

>  <b_lp_Chiralities_Consistent>  (31) 
1

>  <s_lp_Variant>  (31) 
12:0-1

>  <s_i_glide_gridfile>  (31) 
pfpi4k_grid

>  <i_i_glide_lignum>  (31) 
15

>  <i_i_glide_rotatable_bonds>  (31) 
1

>  <r_i_docking_score>  (31) 
-3.44209

>  <r_i_glide_ligand_efficiency>  (31) 
-0.229473

>  <r_i_glide_ligand_efficiency_sa>  (31) 
-0.565929

>  <r_i_glide_ligand_efficiency_ln>  (31) 
-0.928275

>  <r_i_glide_gscore>  (31) 
-3.44209

>  <r_i_glide_lipo>  (31) 
-0.586409

>  <r_i_glide_hbond>  (31) 
-0.0159467

>  <r_i_glide_metal>  (31) 
-0

>  <r_i_glide_rewards>  (31) 
-2.01057

>  <r_i_glide_evdw>  (31) 
-17.8435

>  <r_i_glide_ecoul>  (31) 
0.420041

>  <r_i_glide_erotb>  (31) 
0

>  <r_i_glide_esite>  (31) 
0

>  <r_i_glide_emodel>  (31) 
-20.3423

>  <r_i_glide_energy>  (31) 
-17.4235

>  <r_i_glide_einternal>  (31) 
0.825241

>  <r_i_glide_intrahb_reward>  (31) 
-0

>  <i_i_glide_confnum>  (31) 
1

>  <i_i_glide_posenum>  (31) 
27

>  <r_i_glide_eff_state_penalty>  (31) 
0

>  <ligand_id>  (31) 
12

>  <original_smiles>  (31) 
CC1C2(C)OCC3(C)OC(C)(C2=O)C13O

>  <smiles>  (31) 
[H]OC12C3(C([H])([H])[H])OC1(C([H])([H])[H])C([H])([H])OC(C([H])([H])[H])(C3=O)C2([H])C([H])([H])[H]

$$$$
12:0:1
     RDKit          3D

 31 33  0  0  1  0  0  0  0  0999 V2000
    6.4779   -2.9684   -2.3222 C   0  0  0  0  0  0  0  0  0  0  0  0
    5.2102   -3.4806   -1.6171 C   0  0  2  0  0  0  0  0  0  0  0  0
    3.8909   -2.7306   -1.9215 C   0  0  2  0  0  0  0  0  0  0  0  0
    3.3869   -2.8532   -3.3693 C   0  0  0  0  0  0  0  0  0  0  0  0
    4.0179   -1.3200   -1.6443 O   0  0  0  0  0  0  0  0  0  0  0  0
    4.7579   -0.8809   -0.4880 C   0  0  0  0  0  0  0  0  0  0  0  0
    5.0965   -1.9942    0.5136 C   0  0  1  0  0  0  0  0  0  0  0  0
    6.0835   -1.5224    1.5783 C   0  0  0  0  0  0  0  0  0  0  0  0
    3.8541   -2.3719    1.1648 O   0  0  0  0  0  0  0  0  0  0  0  0
    3.7962   -3.5847    0.3706 C   0  0  1  0  0  0  0  0  0  0  0  0
    3.3556   -4.7725    1.2193 C   0  0  0  0  0  0  0  0  0  0  0  0
    2.9648   -3.3788   -0.8674 C   0  0  0  0  0  0  0  0  0  0  0  0
    1.8185   -3.7626   -1.1125 O   0  0  0  0  0  0  0  0  0  0  0  0
    5.2337   -3.3997   -0.0946 C   0  0  1  0  0  0  0  0  0  0  0  0
    6.2022   -4.2664    0.4528 O   0  0  0  0  0  0  0  0  0  0  0  0
    6.7102   -1.9317   -2.0924 H   0  0  0  0  0  0  0  0  0  0  0  0
    6.3636   -3.0630   -3.4015 H   0  0  0  0  0  0  0  0  0  0  0  0
    7.3452   -3.5590   -2.0258 H   0  0  0  0  0  0  0  0  0  0  0  0
    5.0790   -4.5285   -1.9132 H   0  0  0  0  0  0  0  0  0  0  0  0
    3.2704   -3.8918   -3.6799 H   0  0  0  0  0  0  0  0  0  0  0  0
    4.0872   -2.3661   -4.0481 H   0  0  0  0  0  0  0  0  0  0  0  0
    2.4231   -2.3540   -3.4891 H   0  0  0  0  0  0  0  0  0  0  0  0
    5.6876   -0.4562   -0.8663 H   0  0  0  0  0  0  0  0  0  0  0  0
    4.2384   -0.0520   -0.0052 H   0  0  0  0  0  0  0  0  0  0  0  0
    7.0667   -1.3360    1.1398 H   0  0  0  0  0  0  0  0  0  0  0  0
    6.2007   -2.2688    2.3643 H   0  0  0  0  0  0  0  0  0  0  0  0
    5.7448   -0.5983    2.0485 H   0  0  0  0  0  0  0  0  0  0  0  0
    3.4489   -5.6990    0.6534 H   0  0  0  0  0  0  0  0  0  0  0  0
    2.3159   -4.6747    1.5294 H   0  0  0  0  0  0  0  0  0  0  0  0
    3.9595   -4.8734    2.1202 H   0  0  0  0  0  0  0  0  0  0  0  0
    6.0441   -4.2710    1.3861 H   0  0  0  0  0  0  0  0  0  0  0  0
  1  2  1  0
  1 16  1  0
  1 17  1  0
  1 18  1  0
  2 14  1  0
  2  3  1  0
  2 19  1  1
  3 12  1  0
  3  4  1  6
  3  5  1  0
  4 20  1  0
  4 21  1  0
  4 22  1  0
  5  6  1  0
  6  7  1  0
  6 23  1  0
  6 24  1  0
  7 14  1  0
  7  8  1  1
  7  9  1  0
  8 25  1  0
  8 26  1  0
  8 27  1  0
  9 10  1  0
 10 11  1  1
 10 12  1  0
 10 14  1  0
 11 28  1  0
 11 29  1  0
 11 30  1  0
 12 13  2  0
 14 15  1  1
 15 31  1  0
M  END
>  <i_m_ct_stereo_status>  (32) 
1

>  <s_m_source_file>  (32) 
/var/tmp/pbs.5076255.sched01/tmphrtf3o8j/0_qqz9eae.sdf

>  <i_m_source_file_index>  (32) 
15

>  <i_lp_mmshare_version>  (32) 
48012

>  <i_f3d_flags>  (32) 
0

>  <s_epik_input>  (32) 
W0NIM11bQ0BAXTEyW0NAQEhdKFtDSDNdKVtDQEBdMyhbT0hdKVtDQF0oW0NIMl1PMSkoW0NIM10pT1tDQEBdMyhbQ0gzXSlDMj1P

>  <s_epik_cmdline>  (32) 
J2VwaWtfcHl0aG9uJywgJy1waHQnLCAnMi4wJywgJy1waCcsICc3LjAnLCAnLXRuJywgJzgnLCAnLW1hJywgJzIwMCcsICctaW1hZScsICc8aW5maWxlLm1hZT4nLCAnLW9tYWUnLCAnPG91dGZpbGUubWFlPic=

>  <r_lp_tautomer_probability>  (32) 
1

>  <r_epik_Ionization_Penalty>  (32) 
1.23722e-06

>  <r_epik_Ionization_Penalty_Charging>  (32) 
0

>  <r_epik_Ionization_Penalty_Neutral>  (32) 
1.23722e-06

>  <r_epik_State_Penalty>  (32) 
-0

>  <r_epik_Charging_Adjusted_Penalty>  (32) 
0

>  <i_epik_Tot_Q>  (32) 
0

>  <i_epik_Tot_abs_Q>  (32) 
0

>  <s_lp_Force_Field>  (32) 
OPLS3e

>  <r_lp_Energy>  (32) 
19.847

>  <b_lp_Chiralities_Consistent>  (32) 
1

>  <s_lp_Variant>  (32) 
12:0-1

>  <s_i_glide_gridfile>  (32) 
pfpi4k_grid

>  <i_i_glide_lignum>  (32) 
15

>  <i_i_glide_rotatable_bonds>  (32) 
1

>  <r_i_docking_score>  (32) 
-3.39735

>  <r_i_glide_ligand_efficiency>  (32) 
-0.22649

>  <r_i_glide_ligand_efficiency_sa>  (32) 
-0.558572

>  <r_i_glide_ligand_efficiency_ln>  (32) 
-0.916209

>  <r_i_glide_gscore>  (32) 
-3.39735

>  <r_i_glide_lipo>  (32) 
-0.529399

>  <r_i_glide_hbond>  (32) 
-0.0134811

>  <r_i_glide_metal>  (32) 
-0

>  <r_i_glide_rewards>  (32) 
-2.03698

>  <r_i_glide_evdw>  (32) 
-17.686

>  <r_i_glide_ecoul>  (32) 
0.445382

>  <r_i_glide_erotb>  (32) 
0

>  <r_i_glide_esite>  (32) 
0

>  <r_i_glide_emodel>  (32) 
-20.5369

>  <r_i_glide_energy>  (32) 
-17.2406

>  <r_i_glide_einternal>  (32) 
0.00980502

>  <r_i_glide_intrahb_reward>  (32) 
-0

>  <i_i_glide_confnum>  (32) 
2

>  <i_i_glide_posenum>  (32) 
23

>  <r_i_glide_eff_state_penalty>  (32) 
0

>  <ligand_id>  (32) 
12

>  <original_smiles>  (32) 
CC1C2(C)OCC3(C)OC(C)(C2=O)C13O

>  <smiles>  (32) 
[H]OC12C3(C([H])([H])[H])OC1(C([H])([H])[H])C([H])([H])OC(C([H])([H])[H])(C3=O)C2([H])C([H])([H])[H]

$$$$
12:0:2
     RDKit          3D

 31 33  0  0  1  0  0  0  0  0999 V2000
    4.5779   -0.2316    0.5667 C   0  0  0  0  0  0  0  0  0  0  0  0
    5.2470   -1.0668   -0.5326 C   0  0  2  0  0  0  0  0  0  0  0  0
    4.3244   -1.9738   -1.3931 C   0  0  2  0  0  0  0  0  0  0  0  0
    3.3889   -1.2181   -2.3418 C   0  0  0  0  0  0  0  0  0  0  0  0
    3.5312   -2.8605   -0.5756 O   0  0  0  0  0  0  0  0  0  0  0  0
    4.1317   -3.4578    0.5911 C   0  0  0  0  0  0  0  0  0  0  0  0
    5.6698   -3.3177    0.6805 C   0  0  1  0  0  0  0  0  0  0  0  0
    6.1854   -3.7617    2.0410 C   0  0  0  0  0  0  0  0  0  0  0  0
    6.2334   -4.1958   -0.3186 O   0  0  0  0  0  0  0  0  0  0  0  0
    6.5152   -3.0532   -1.1641 C   0  0  1  0  0  0  0  0  0  0  0  0
    7.8994   -3.1489   -1.7937 C   0  0  0  0  0  0  0  0  0  0  0  0
    5.3826   -2.8281   -2.1280 C   0  0  0  0  0  0  0  0  0  0  0  0
    5.2623   -3.1594   -3.3163 O   0  0  0  0  0  0  0  0  0  0  0  0
    6.2538   -2.0834   -0.0328 C   0  0  1  0  0  0  0  0  0  0  0  0
    7.3941   -1.4154    0.5028 O   0  0  0  0  0  0  0  0  0  0  0  0
    4.0255   -0.8154    1.3047 H   0  0  0  0  0  0  0  0  0  0  0  0
    3.8812    0.4713    0.1172 H   0  0  0  0  0  0  0  0  0  0  0  0
    5.3341    0.3537    1.0910 H   0  0  0  0  0  0  0  0  0  0  0  0
    5.7522   -0.3685   -1.2080 H   0  0  0  0  0  0  0  0  0  0  0  0
    3.9158   -0.5170   -2.9967 H   0  0  0  0  0  0  0  0  0  0  0  0
    2.6640   -0.6562   -1.7616 H   0  0  0  0  0  0  0  0  0  0  0  0
    2.8242   -1.9208   -2.9606 H   0  0  0  0  0  0  0  0  0  0  0  0
    3.6814   -2.9478    1.4462 H   0  0  0  0  0  0  0  0  0  0  0  0
    3.8249   -4.5017    0.6736 H   0  0  0  0  0  0  0  0  0  0  0  0
    5.8777   -3.0526    2.8203 H   0  0  0  0  0  0  0  0  0  0  0  0
    7.2740   -3.8362    2.0127 H   0  0  0  0  0  0  0  0  0  0  0  0
    5.7955   -4.7521    2.2857 H   0  0  0  0  0  0  0  0  0  0  0  0
    8.1813   -2.2191   -2.2806 H   0  0  0  0  0  0  0  0  0  0  0  0
    7.9124   -3.8798   -2.5806 H   0  0  0  0  0  0  0  0  0  0  0  0
    8.6705   -3.4040   -1.0596 H   0  0  0  0  0  0  0  0  0  0  0  0
    7.0990   -0.9429    1.2557 H   0  0  0  0  0  0  0  0  0  0  0  0
  1  2  1  0
  1 16  1  0
  1 17  1  0
  1 18  1  0
  2 14  1  0
  2  3  1  0
  2 19  1  6
  3 12  1  0
  3  4  1  6
  3  5  1  0
  4 20  1  0
  4 21  1  0
  4 22  1  0
  5  6  1  0
  6  7  1  0
  6 23  1  0
  6 24  1  0
  7 14  1  0
  7  8  1  1
  7  9  1  0
  8 25  1  0
  8 26  1  0
  8 27  1  0
  9 10  1  0
 10 11  1  6
 10 12  1  0
 10 14  1  0
 11 28  1  0
 11 29  1  0
 11 30  1  0
 12 13  2  0
 14 15  1  1
 15 31  1  0
M  END
>  <i_m_ct_stereo_status>  (33) 
1

>  <s_m_source_file>  (33) 
/var/tmp/pbs.5076255.sched01/tmphrtf3o8j/0_qqz9eae.sdf

>  <i_m_source_file_index>  (33) 
15

>  <i_lp_mmshare_version>  (33) 
48012

>  <i_f3d_flags>  (33) 
0

>  <s_epik_input>  (33) 
W0NIM11bQ0BAXTEyW0NAQEhdKFtDSDNdKVtDQEBdMyhbT0hdKVtDQF0oW0NIMl1PMSkoW0NIM10pT1tDQEBdMyhbQ0gzXSlDMj1P

>  <s_epik_cmdline>  (33) 
J2VwaWtfcHl0aG9uJywgJy1waHQnLCAnMi4wJywgJy1waCcsICc3LjAnLCAnLXRuJywgJzgnLCAnLW1hJywgJzIwMCcsICctaW1hZScsICc8aW5maWxlLm1hZT4nLCAnLW9tYWUnLCAnPG91dGZpbGUubWFlPic=

>  <r_lp_tautomer_probability>  (33) 
1

>  <r_epik_Ionization_Penalty>  (33) 
1.23722e-06

>  <r_epik_Ionization_Penalty_Charging>  (33) 
0

>  <r_epik_Ionization_Penalty_Neutral>  (33) 
1.23722e-06

>  <r_epik_State_Penalty>  (33) 
-0

>  <r_epik_Charging_Adjusted_Penalty>  (33) 
0

>  <i_epik_Tot_Q>  (33) 
0

>  <i_epik_Tot_abs_Q>  (33) 
0

>  <s_lp_Force_Field>  (33) 
OPLS3e

>  <r_lp_Energy>  (33) 
19.847

>  <b_lp_Chiralities_Consistent>  (33) 
1

>  <s_lp_Variant>  (33) 
12:0-1

>  <s_i_glide_gridfile>  (33) 
pfpi4k_grid

>  <i_i_glide_lignum>  (33) 
15

>  <i_i_glide_rotatable_bonds>  (33) 
1

>  <r_i_docking_score>  (33) 
-3.37823

>  <r_i_glide_ligand_efficiency>  (33) 
-0.225216

>  <r_i_glide_ligand_efficiency_sa>  (33) 
-0.555429

>  <r_i_glide_ligand_efficiency_ln>  (33) 
-0.911054

>  <r_i_glide_gscore>  (33) 
-3.37823

>  <r_i_glide_lipo>  (33) 
-0.301393

>  <r_i_glide_hbond>  (33) 
0

>  <r_i_glide_metal>  (33) 
-0

>  <r_i_glide_rewards>  (33) 
-2.08702

>  <r_i_glide_evdw>  (33) 
-15.2884

>  <r_i_glide_ecoul>  (33) 
-1.50265

>  <r_i_glide_erotb>  (33) 
0

>  <r_i_glide_esite>  (33) 
0

>  <r_i_glide_emodel>  (33) 
-19.7153

>  <r_i_glide_energy>  (33) 
-16.791

>  <r_i_glide_einternal>  (33) 
0.7768

>  <r_i_glide_intrahb_reward>  (33) 
-0

>  <i_i_glide_confnum>  (33) 
1

>  <i_i_glide_posenum>  (33) 
20

>  <r_i_glide_eff_state_penalty>  (33) 
0

>  <ligand_id>  (33) 
12

>  <original_smiles>  (33) 
CC1C2(C)OCC3(C)OC(C)(C2=O)C13O

>  <smiles>  (33) 
[H]OC12C3(C([H])([H])[H])OC1(C([H])([H])[H])C([H])([H])OC(C([H])([H])[H])(C3=O)C2([H])C([H])([H])[H]

$$$$
13:0:0
     RDKit          3D

 40 43  0  0  1  0  0  0  0  0999 V2000
    4.0980   -3.4532   -2.9003 O   0  0  0  0  0  0  0  0  0  0  0  0
    3.5522   -2.6582   -1.8666 C   0  0  0  0  0  0  0  0  0  0  0  0
    3.3926   -3.4977   -0.5840 C   0  0  2  0  0  0  0  0  0  0  0  0
    2.2138   -4.2619   -0.7236 O   0  0  0  0  0  0  0  0  0  0  0  0
    3.2532   -2.6405    0.6863 C   0  0  2  0  0  0  0  0  0  0  0  0
    4.5327   -2.0428    1.3459 C   0  0  1  0  0  0  0  0  0  0  0  0
    4.1715   -0.9128    2.3038 C   0  0  0  0  0  0  0  0  0  0  0  0
    3.1367   -1.1420    3.1258 C   0  0  0  0  0  0  0  0  0  0  0  0
    2.4655   -2.3658    3.0522 N   0  0  0  0  0  0  0  0  0  0  0  0
    1.0402   -2.4726    3.3445 C   0  0  0  0  0  0  0  0  0  0  0  0
    0.7064   -2.4616    4.8266 C   0  0  0  0  0  0  0  0  0  0  0  0
    0.8748   -1.2726    5.5892 C   0  0  0  0  0  0  0  0  0  0  0  0
    0.6416   -1.2586    6.9790 C   0  0  0  0  0  0  0  0  0  0  0  0
    0.2053   -2.4469    7.5743 C   0  0  0  0  0  0  0  0  0  0  0  0
   -0.0012   -3.5980    6.8375 C   0  0  0  0  0  0  0  0  0  0  0  0
    0.2400   -3.6420    5.4553 C   0  0  0  0  0  0  0  0  0  0  0  0
   -0.4302   -4.5863    7.6627 O   0  0  0  0  0  0  0  0  0  0  0  0
   -0.3536   -4.0568    8.9611 C   0  0  0  0  0  0  0  0  0  0  0  0
   -0.1000   -2.6790    8.8746 O   0  0  0  0  0  0  0  0  0  0  0  0
    3.0271   -3.3252    2.0665 C   0  0  2  0  0  0  0  0  0  0  0  0
    4.5719   -3.3704    2.1349 C   0  0  0  0  0  0  0  0  0  0  0  0
    3.6421   -4.2869   -2.9229 H   0  0  0  0  0  0  0  0  0  0  0  0
    4.2488   -1.8368   -1.7003 H   0  0  0  0  0  0  0  0  0  0  0  0
    2.6057   -2.2078   -2.1723 H   0  0  0  0  0  0  0  0  0  0  0  0
    4.2428   -4.1825   -0.5010 H   0  0  0  0  0  0  0  0  0  0  0  0
    2.3415   -4.8796   -1.4318 H   0  0  0  0  0  0  0  0  0  0  0  0
    2.5010   -1.8639    0.5301 H   0  0  0  0  0  0  0  0  0  0  0  0
    5.3834   -1.8446    0.6860 H   0  0  0  0  0  0  0  0  0  0  0  0
    4.7438    0.0013    2.3181 H   0  0  0  0  0  0  0  0  0  0  0  0
    2.8076   -0.4304    3.8684 H   0  0  0  0  0  0  0  0  0  0  0  0
    0.5293   -1.6375    2.8670 H   0  0  0  0  0  0  0  0  0  0  0  0
    0.6365   -3.3792    2.8908 H   0  0  0  0  0  0  0  0  0  0  0  0
    1.1952   -0.3552    5.1276 H   0  0  0  0  0  0  0  0  0  0  0  0
    0.8125   -0.3626    7.5594 H   0  0  0  0  0  0  0  0  0  0  0  0
    0.0913   -4.5586    4.9005 H   0  0  0  0  0  0  0  0  0  0  0  0
   -1.2694   -4.2538    9.5228 H   0  0  0  0  0  0  0  0  0  0  0  0
    0.4921   -4.5207    9.4699 H   0  0  0  0  0  0  0  0  0  0  0  0
    2.5449   -4.3075    2.0194 H   0  0  0  0  0  0  0  0  0  0  0  0
    5.0122   -4.1986    1.5787 H   0  0  0  0  0  0  0  0  0  0  0  0
    4.9796   -3.3017    3.1477 H   0  0  0  0  0  0  0  0  0  0  0  0
  1  2  1  0
  1 22  1  0
  2  3  1  0
  2 23  1  0
  2 24  1  0
  3  4  1  0
  3  5  1  0
  3 25  1  1
  4 26  1  0
  5 20  1  0
  5  6  1  0
  5 27  1  6
  6 21  1  0
  6  7  1  0
  6 28  1  6
  7  8  2  0
  7 29  1  0
  8  9  1  0
  8 30  1  0
  9 10  1  0
  9 20  1  0
 10 11  1  0
 10 31  1  0
 10 32  1  0
 11 16  2  0
 11 12  1  0
 12 13  2  0
 12 33  1  0
 13 14  1  0
 13 34  1  0
 14 19  1  0
 14 15  2  0
 15 16  1  0
 15 17  1  0
 16 35  1  0
 17 18  1  0
 18 19  1  0
 18 36  1  0
 18 37  1  0
 20 21  1  0
 20 38  1  6
 21 39  1  0
 21 40  1  0
M  END
>  <i_m_ct_stereo_status>  (34) 
1

>  <s_m_source_file>  (34) 
/var/tmp/pbs.5076255.sched01/tmphrtf3o8j/0_qqz9eae.sdf

>  <i_m_source_file_index>  (34) 
16

>  <i_lp_mmshare_version>  (34) 
48012

>  <i_f3d_flags>  (34) 
0

>  <s_epik_input>  (34) 
W09IXVtDSDJdW0NASF0oW09IXSlbQ0BIXShbQ0BASF0xMilbQ0BASF0oW0NIMl0yKU4oW0NIXT1bQ0hdMSlbQ0gyXWMoW2NIXVtjSF0zKVtjSF1jKGMzNClPW0NIMl1PNA==

>  <s_epik_cmdline>  (34) 
J2VwaWtfcHl0aG9uJywgJy1waHQnLCAnMi4wJywgJy1waCcsICc3LjAnLCAnLXRuJywgJzgnLCAnLW1hJywgJzIwMCcsICctaW1hZScsICc8aW5maWxlLm1hZT4nLCAnLW9tYWUnLCAnPG91dGZpbGUubWFlPic=

>  <r_lp_tautomer_probability>  (34) 
1

>  <r_epik_Ionization_Penalty>  (34) 
0.00221071

>  <r_epik_Ionization_Penalty_Charging>  (34) 
1.27518e-06

>  <r_epik_Ionization_Penalty_Neutral>  (34) 
0.00220943

>  <r_epik_State_Penalty>  (34) 
0.00415943

>  <r_epik_Charging_Adjusted_Penalty>  (34) 
0.00416071

>  <i_epik_Tot_Q>  (34) 
0

>  <i_epik_Tot_abs_Q>  (34) 
0

>  <s_epik_Chemistry_Notes>  (34) 
This compound has an imine and may undergo hydrolysis. This compound contains an acetal/aminal-like group ( X-CH(R)-Y where X, Y are N, S, or O) that may be acid/base labile, releasing an aldehyde.

>  <s_lp_Force_Field>  (34) 
OPLS3e

>  <r_lp_Energy>  (34) 
60.6918

>  <b_lp_Chiralities_Consistent>  (34) 
1

>  <s_lp_Variant>  (34) 
13:0-1

>  <s_i_glide_gridfile>  (34) 
pfpi4k_grid

>  <i_i_glide_lignum>  (34) 
16

>  <i_i_glide_rotatable_bonds>  (34) 
6

>  <r_i_docking_score>  (34) 
-3.32546

>  <r_i_glide_ligand_efficiency>  (34) 
-0.158355

>  <r_i_glide_ligand_efficiency_sa>  (34) 
-0.43689

>  <r_i_glide_ligand_efficiency_ln>  (34) 
-0.822212

>  <r_i_glide_gscore>  (34) 
-3.32546

>  <r_i_glide_lipo>  (34) 
-0.19164

>  <r_i_glide_hbond>  (34) 
-0.152

>  <r_i_glide_metal>  (34) 
-0

>  <r_i_glide_rewards>  (34) 
-1.43641

>  <r_i_glide_evdw>  (34) 
-16.0099

>  <r_i_glide_ecoul>  (34) 
-10.5637

>  <r_i_glide_erotb>  (34) 
0.87001

>  <r_i_glide_esite>  (34) 
-0.0303603

>  <r_i_glide_emodel>  (34) 
-30.0638

>  <r_i_glide_energy>  (34) 
-26.5736

>  <r_i_glide_einternal>  (34) 
5.49342

>  <r_i_glide_intrahb_reward>  (34) 
-0

>  <i_i_glide_confnum>  (34) 
2

>  <i_i_glide_posenum>  (34) 
10

>  <r_i_glide_eff_state_penalty>  (34) 
0

>  <ligand_id>  (34) 
13

>  <original_smiles>  (34) 
OCC(O)C1C2C=CN(Cc3ccc4c(c3)OCO4)C1C2

>  <smiles>  (34) 
[H]OC([H])([H])C([H])(O[H])C1([H])C2([H])C([H])=C([H])N(C([H])([H])c3c([H])c([H])c4c(c3[H])OC([H])([H])O4)C1([H])C2([H])[H]

$$$$
13:0:1
     RDKit          3D

 40 43  0  0  1  0  0  0  0  0999 V2000
    1.1226  -11.8577    3.2805 O   0  0  0  0  0  0  0  0  0  0  0  0
    2.2901  -11.0853    3.1205 C   0  0  0  0  0  0  0  0  0  0  0  0
    1.9868   -9.7152    2.4730 C   0  0  2  0  0  0  0  0  0  0  0  0
    3.2258   -9.0857    2.2200 O   0  0  0  0  0  0  0  0  0  0  0  0
    1.1446   -8.7730    3.3586 C   0  0  2  0  0  0  0  0  0  0  0  0
   -0.3908   -9.0105    3.4662 C   0  0  1  0  0  0  0  0  0  0  0  0
   -0.9724   -8.2919    4.6669 C   0  0  0  0  0  0  0  0  0  0  0  0
   -0.5766   -7.0217    4.8611 C   0  0  0  0  0  0  0  0  0  0  0  0
    0.3429   -6.4607    3.9645 N   0  0  0  0  0  0  0  0  0  0  0  0
    1.3350   -5.4868    4.4064 C   0  0  0  0  0  0  0  0  0  0  0  0
    0.7387   -4.1951    4.9341 C   0  0  0  0  0  0  0  0  0  0  0  0
    0.1602   -4.1601    6.2290 C   0  0  0  0  0  0  0  0  0  0  0  0
   -0.4986   -3.0081    6.7026 C   0  0  0  0  0  0  0  0  0  0  0  0
   -0.5306   -1.8838    5.8629 C   0  0  0  0  0  0  0  0  0  0  0  0
    0.0709   -1.8922    4.6184 C   0  0  0  0  0  0  0  0  0  0  0  0
    0.7180   -3.0358    4.1199 C   0  0  0  0  0  0  0  0  0  0  0  0
   -0.1188   -0.6908    4.0176 O   0  0  0  0  0  0  0  0  0  0  0  0
   -0.9478    0.0405    4.8812 C   0  0  0  0  0  0  0  0  0  0  0  0
   -1.1240   -0.6811    6.0763 O   0  0  0  0  0  0  0  0  0  0  0  0
    0.7413   -7.3550    2.8480 C   0  0  2  0  0  0  0  0  0  0  0  0
   -0.4898   -8.0712    2.2471 C   0  0  0  0  0  0  0  0  0  0  0  0
    1.3815  -12.7729    3.3693 H   0  0  0  0  0  0  0  0  0  0  0  0
    2.7762  -10.9682    4.0884 H   0  0  0  0  0  0  0  0  0  0  0  0
    2.9734  -11.6515    2.4869 H   0  0  0  0  0  0  0  0  0  0  0  0
    1.5131   -9.8850    1.5029 H   0  0  0  0  0  0  0  0  0  0  0  0
    3.7446   -9.6705    1.6807 H   0  0  0  0  0  0  0  0  0  0  0  0
    1.5883   -8.6978    4.3533 H   0  0  0  0  0  0  0  0  0  0  0  0
   -0.7546  -10.0319    3.3177 H   0  0  0  0  0  0  0  0  0  0  0  0
   -1.6802   -8.8111    5.2893 H   0  0  0  0  0  0  0  0  0  0  0  0
   -0.9581   -6.4054    5.6536 H   0  0  0  0  0  0  0  0  0  0  0  0
    1.9445   -5.9348    5.1913 H   0  0  0  0  0  0  0  0  0  0  0  0
    2.0130   -5.2533    3.5838 H   0  0  0  0  0  0  0  0  0  0  0  0
    0.1817   -5.0339    6.8616 H   0  0  0  0  0  0  0  0  0  0  0  0
   -0.9789   -3.0166    7.6700 H   0  0  0  0  0  0  0  0  0  0  0  0
    1.1431   -3.0347    3.1270 H   0  0  0  0  0  0  0  0  0  0  0  0
   -0.5286    1.0313    5.0726 H   0  0  0  0  0  0  0  0  0  0  0  0
   -1.9245    0.1462    4.4073 H   0  0  0  0  0  0  0  0  0  0  0  0
    1.4284   -6.9371    2.1040 H   0  0  0  0  0  0  0  0  0  0  0  0
   -0.2982   -8.5694    1.2984 H   0  0  0  0  0  0  0  0  0  0  0  0
   -1.4019   -7.4729    2.2103 H   0  0  0  0  0  0  0  0  0  0  0  0
  1  2  1  0
  1 22  1  0
  2  3  1  0
  2 23  1  0
  2 24  1  0
  3  4  1  0
  3  5  1  0
  3 25  1  6
  4 26  1  0
  5 20  1  0
  5  6  1  0
  5 27  1  1
  6 21  1  0
  6  7  1  0
  6 28  1  6
  7  8  2  0
  7 29  1  0
  8  9  1  0
  8 30  1  0
  9 10  1  0
  9 20  1  0
 10 11  1  0
 10 31  1  0
 10 32  1  0
 11 16  2  0
 11 12  1  0
 12 13  2  0
 12 33  1  0
 13 14  1  0
 13 34  1  0
 14 19  1  0
 14 15  2  0
 15 16  1  0
 15 17  1  0
 16 35  1  0
 17 18  1  0
 18 19  1  0
 18 36  1  0
 18 37  1  0
 20 21  1  0
 20 38  1  6
 21 39  1  0
 21 40  1  0
M  END
>  <i_m_ct_stereo_status>  (35) 
1

>  <s_m_source_file>  (35) 
/var/tmp/pbs.5076255.sched01/tmphrtf3o8j/0_qqz9eae.sdf

>  <i_m_source_file_index>  (35) 
16

>  <i_lp_mmshare_version>  (35) 
48012

>  <i_f3d_flags>  (35) 
0

>  <s_epik_input>  (35) 
W09IXVtDSDJdW0NASF0oW09IXSlbQ0BIXShbQ0BASF0xMilbQ0BASF0oW0NIMl0yKU4oW0NIXT1bQ0hdMSlbQ0gyXWMoW2NIXVtjSF0zKVtjSF1jKGMzNClPW0NIMl1PNA==

>  <s_epik_cmdline>  (35) 
J2VwaWtfcHl0aG9uJywgJy1waHQnLCAnMi4wJywgJy1waCcsICc3LjAnLCAnLXRuJywgJzgnLCAnLW1hJywgJzIwMCcsICctaW1hZScsICc8aW5maWxlLm1hZT4nLCAnLW9tYWUnLCAnPG91dGZpbGUubWFlPic=

>  <r_lp_tautomer_probability>  (35) 
1

>  <r_epik_Ionization_Penalty>  (35) 
0.00221071

>  <r_epik_Ionization_Penalty_Charging>  (35) 
1.27518e-06

>  <r_epik_Ionization_Penalty_Neutral>  (35) 
0.00220943

>  <r_epik_State_Penalty>  (35) 
0.00415943

>  <r_epik_Charging_Adjusted_Penalty>  (35) 
0.00416071

>  <i_epik_Tot_Q>  (35) 
0

>  <i_epik_Tot_abs_Q>  (35) 
0

>  <s_epik_Chemistry_Notes>  (35) 
This compound has an imine and may undergo hydrolysis. This compound contains an acetal/aminal-like group ( X-CH(R)-Y where X, Y are N, S, or O) that may be acid/base labile, releasing an aldehyde.

>  <s_lp_Force_Field>  (35) 
OPLS3e

>  <r_lp_Energy>  (35) 
60.6918

>  <b_lp_Chiralities_Consistent>  (35) 
1

>  <s_lp_Variant>  (35) 
13:0-1

>  <s_i_glide_gridfile>  (35) 
pfpi4k_grid

>  <i_i_glide_lignum>  (35) 
16

>  <i_i_glide_rotatable_bonds>  (35) 
6

>  <r_i_docking_score>  (35) 
-2.95483

>  <r_i_glide_ligand_efficiency>  (35) 
-0.140706

>  <r_i_glide_ligand_efficiency_sa>  (35) 
-0.388197

>  <r_i_glide_ligand_efficiency_ln>  (35) 
-0.730575

>  <r_i_glide_gscore>  (35) 
-2.95483

>  <r_i_glide_lipo>  (35) 
-0.155391

>  <r_i_glide_hbond>  (35) 
-0.359354

>  <r_i_glide_metal>  (35) 
-0

>  <r_i_glide_rewards>  (35) 
-1.43641

>  <r_i_glide_evdw>  (35) 
-18.9501

>  <r_i_glide_ecoul>  (35) 
-5.75183

>  <r_i_glide_erotb>  (35) 
0.87001

>  <r_i_glide_esite>  (35) 
-0.0633985

>  <r_i_glide_emodel>  (35) 
-29.5571

>  <r_i_glide_energy>  (35) 
-24.7019

>  <r_i_glide_einternal>  (35) 
1.29807

>  <r_i_glide_intrahb_reward>  (35) 
-0

>  <i_i_glide_confnum>  (35) 
1

>  <i_i_glide_posenum>  (35) 
9

>  <r_i_glide_eff_state_penalty>  (35) 
0

>  <ligand_id>  (35) 
13

>  <original_smiles>  (35) 
OCC(O)C1C2C=CN(Cc3ccc4c(c3)OCO4)C1C2

>  <smiles>  (35) 
[H]OC([H])([H])C([H])(O[H])C1([H])C2([H])C([H])=C([H])N(C([H])([H])c3c([H])c([H])c4c(c3[H])OC([H])([H])O4)C1([H])C2([H])[H]

$$$$
13:0:2
     RDKit          3D

 40 43  0  0  1  0  0  0  0  0999 V2000
    1.0172  -11.8525    3.2799 O   0  0  0  0  0  0  0  0  0  0  0  0
    2.2207  -11.1514    3.0729 C   0  0  0  0  0  0  0  0  0  0  0  0
    1.9978   -9.8147    2.3349 C   0  0  2  0  0  0  0  0  0  0  0  0
    3.2772   -9.3164    2.0014 O   0  0  0  0  0  0  0  0  0  0  0  0
    1.2562   -8.7501    3.1762 C   0  0  2  0  0  0  0  0  0  0  0  0
   -0.3035   -8.7047    3.1651 C   0  0  1  0  0  0  0  0  0  0  0  0
   -0.8477   -7.8967    4.3406 C   0  0  0  0  0  0  0  0  0  0  0  0
   -0.2334   -6.7254    4.5937 C   0  0  0  0  0  0  0  0  0  0  0  0
    0.8336   -6.3493    3.7823 N   0  0  0  0  0  0  0  0  0  0  0  0
    1.9412   -5.5705    4.3071 C   0  0  0  0  0  0  0  0  0  0  0  0
    1.8294   -4.0940    3.9914 C   0  0  0  0  0  0  0  0  0  0  0  0
    0.9198   -3.2808    4.7145 C   0  0  0  0  0  0  0  0  0  0  0  0
    0.7873   -1.9025    4.4182 C   0  0  0  0  0  0  0  0  0  0  0  0
    1.5732   -1.3802    3.3770 C   0  0  0  0  0  0  0  0  0  0  0  0
    2.4631   -2.1682    2.6720 C   0  0  0  0  0  0  0  0  0  0  0  0
    2.6212   -3.5357    2.9571 C   0  0  0  0  0  0  0  0  0  0  0  0
    3.0745   -1.4219    1.7147 O   0  0  0  0  0  0  0  0  0  0  0  0
    2.4462   -0.1665    1.7666 C   0  0  0  0  0  0  0  0  0  0  0  0
    1.5953   -0.1157    2.8815 O   0  0  0  0  0  0  0  0  0  0  0  0
    1.1488   -7.2788    2.6752 C   0  0  2  0  0  0  0  0  0  0  0  0
   -0.1302   -7.7544    1.9628 C   0  0  0  0  0  0  0  0  0  0  0  0
    1.2310  -12.7690    3.4226 H   0  0  0  0  0  0  0  0  0  0  0  0
    2.7178  -10.9968    4.0304 H   0  0  0  0  0  0  0  0  0  0  0  0
    2.8723  -11.7942    2.4821 H   0  0  0  0  0  0  0  0  0  0  0  0
    1.4698  -10.0075    1.4020 H   0  0  0  0  0  0  0  0  0  0  0  0
    3.7288   -9.9851    1.5001 H   0  0  0  0  0  0  0  0  0  0  0  0
    1.6285   -8.7594    4.2003 H   0  0  0  0  0  0  0  0  0  0  0  0
   -0.8109   -9.6514    2.9662 H   0  0  0  0  0  0  0  0  0  0  0  0
   -1.6811   -8.2906    4.9007 H   0  0  0  0  0  0  0  0  0  0  0  0
   -0.5011   -6.0358    5.3786 H   0  0  0  0  0  0  0  0  0  0  0  0
    1.9734   -5.6856    5.3890 H   0  0  0  0  0  0  0  0  0  0  0  0
    2.8904   -5.9553    3.9339 H   0  0  0  0  0  0  0  0  0  0  0  0
    0.3165   -3.7154    5.4983 H   0  0  0  0  0  0  0  0  0  0  0  0
    0.0933   -1.2712    4.9558 H   0  0  0  0  0  0  0  0  0  0  0  0
    3.3150   -4.1373    2.3874 H   0  0  0  0  0  0  0  0  0  0  0  0
    3.1735    0.6453    1.7781 H   0  0  0  0  0  0  0  0  0  0  0  0
    1.8206   -0.0637    0.8808 H   0  0  0  0  0  0  0  0  0  0  0  0
    1.9531   -6.9690    2.0063 H   0  0  0  0  0  0  0  0  0  0  0  0
    0.0840   -8.2495    1.0202 H   0  0  0  0  0  0  0  0  0  0  0  0
   -0.9109   -7.0035    1.8477 H   0  0  0  0  0  0  0  0  0  0  0  0
  1  2  1  0
  1 22  1  0
  2  3  1  0
  2 23  1  0
  2 24  1  0
  3  4  1  0
  3  5  1  0
  3 25  1  6
  4 26  1  0
  5 20  1  0
  5  6  1  0
  5 27  1  1
  6 21  1  0
  6  7  1  0
  6 28  1  6
  7  8  2  0
  7 29  1  0
  8  9  1  0
  8 30  1  0
  9 10  1  0
  9 20  1  0
 10 11  1  0
 10 31  1  0
 10 32  1  0
 11 16  2  0
 11 12  1  0
 12 13  2  0
 12 33  1  0
 13 14  1  0
 13 34  1  0
 14 19  1  0
 14 15  2  0
 15 16  1  0
 15 17  1  0
 16 35  1  0
 17 18  1  0
 18 19  1  0
 18 36  1  0
 18 37  1  0
 20 21  1  0
 20 38  1  6
 21 39  1  0
 21 40  1  0
M  END
>  <i_m_ct_stereo_status>  (36) 
1

>  <s_m_source_file>  (36) 
/var/tmp/pbs.5076255.sched01/tmphrtf3o8j/0_qqz9eae.sdf

>  <i_m_source_file_index>  (36) 
16

>  <i_lp_mmshare_version>  (36) 
48012

>  <i_f3d_flags>  (36) 
0

>  <s_epik_input>  (36) 
W09IXVtDSDJdW0NASF0oW09IXSlbQ0BIXShbQ0BASF0xMilbQ0BASF0oW0NIMl0yKU4oW0NIXT1bQ0hdMSlbQ0gyXWMoW2NIXVtjSF0zKVtjSF1jKGMzNClPW0NIMl1PNA==

>  <s_epik_cmdline>  (36) 
J2VwaWtfcHl0aG9uJywgJy1waHQnLCAnMi4wJywgJy1waCcsICc3LjAnLCAnLXRuJywgJzgnLCAnLW1hJywgJzIwMCcsICctaW1hZScsICc8aW5maWxlLm1hZT4nLCAnLW9tYWUnLCAnPG91dGZpbGUubWFlPic=

>  <r_lp_tautomer_probability>  (36) 
1

>  <r_epik_Ionization_Penalty>  (36) 
0.00221071

>  <r_epik_Ionization_Penalty_Charging>  (36) 
1.27518e-06

>  <r_epik_Ionization_Penalty_Neutral>  (36) 
0.00220943

>  <r_epik_State_Penalty>  (36) 
0.00415943

>  <r_epik_Charging_Adjusted_Penalty>  (36) 
0.00416071

>  <i_epik_Tot_Q>  (36) 
0

>  <i_epik_Tot_abs_Q>  (36) 
0

>  <s_epik_Chemistry_Notes>  (36) 
This compound has an imine and may undergo hydrolysis. This compound contains an acetal/aminal-like group ( X-CH(R)-Y where X, Y are N, S, or O) that may be acid/base labile, releasing an aldehyde.

>  <s_lp_Force_Field>  (36) 
OPLS3e

>  <r_lp_Energy>  (36) 
60.6918

>  <b_lp_Chiralities_Consistent>  (36) 
1

>  <s_lp_Variant>  (36) 
13:0-1

>  <s_i_glide_gridfile>  (36) 
pfpi4k_grid

>  <i_i_glide_lignum>  (36) 
16

>  <i_i_glide_rotatable_bonds>  (36) 
6

>  <r_i_docking_score>  (36) 
-2.78082

>  <r_i_glide_ligand_efficiency>  (36) 
-0.13242

>  <r_i_glide_ligand_efficiency_sa>  (36) 
-0.365337

>  <r_i_glide_ligand_efficiency_ln>  (36) 
-0.687552

>  <r_i_glide_gscore>  (36) 
-2.78082

>  <r_i_glide_lipo>  (36) 
-0.160914

>  <r_i_glide_hbond>  (36) 
-0.32

>  <r_i_glide_metal>  (36) 
-0

>  <r_i_glide_rewards>  (36) 
-1.43641

>  <r_i_glide_evdw>  (36) 
-19.2536

>  <r_i_glide_ecoul>  (36) 
-4.64866

>  <r_i_glide_erotb>  (36) 
0.87001

>  <r_i_glide_esite>  (36) 
-0.0735246

>  <r_i_glide_emodel>  (36) 
-28.1322

>  <r_i_glide_energy>  (36) 
-23.9023

>  <r_i_glide_einternal>  (36) 
2.09388

>  <r_i_glide_intrahb_reward>  (36) 
-0

>  <i_i_glide_confnum>  (36) 
2

>  <i_i_glide_posenum>  (36) 
11

>  <r_i_glide_eff_state_penalty>  (36) 
0

>  <ligand_id>  (36) 
13

>  <original_smiles>  (36) 
OCC(O)C1C2C=CN(Cc3ccc4c(c3)OCO4)C1C2

>  <smiles>  (36) 
[H]OC([H])([H])C([H])(O[H])C1([H])C2([H])C([H])=C([H])N(C([H])([H])c3c([H])c([H])c4c(c3[H])OC([H])([H])O4)C1([H])C2([H])[H]

$$$$
15:0:0
     RDKit          3D

 69 73  0  0  1  0  0  0  0  0999 V2000
    1.9153   -9.3613    9.8446 C   0  0  0  0  0  0  0  0  0  0  0  0
    0.9457   -8.6062    8.9417 C   0  0  0  0  0  0  0  0  0  0  0  0
   -0.1686   -8.2623    9.3394 O   0  0  0  0  0  0  0  0  0  0  0  0
    1.4521   -8.3907    7.7068 O   0  0  0  0  0  0  0  0  0  0  0  0
    0.6732   -7.7974    6.6654 C   0  0  2  0  0  0  0  0  0  0  0  0
    0.1275   -8.9997    5.8238 C   0  0  1  0  0  0  0  0  0  0  0  0
   -0.9837   -8.6636    5.0281 O   0  0  0  0  0  0  0  0  0  0  0  0
    1.1304   -9.9463    5.0872 C   0  0  0  0  0  0  0  0  0  0  0  0
    2.3304   -9.4077    4.2438 C   0  0  2  0  0  0  0  0  0  0  0  0
    3.1953   -8.4687    5.0421 C   0  0  0  0  0  0  0  0  0  0  0  0
    2.4802   -7.1440    4.8277 C   0  0  2  0  0  0  0  0  0  0  0  0
    1.9289   -7.2237    3.5122 O   0  0  0  0  0  0  0  0  0  0  0  0
    2.0331   -8.5442    2.9994 C   0  0  0  0  0  0  0  0  0  0  0  0
    3.2200   -8.5429    2.0090 C   0  0  0  0  0  0  0  0  0  0  0  0
    0.7723   -8.9371    2.2105 C   0  0  0  0  0  0  0  0  0  0  0  0
    3.2146   -5.8353    5.0970 C   0  0  2  0  0  0  0  0  0  0  0  0
    4.7108   -5.5854    5.1173 C   0  0  0  0  0  0  0  0  0  0  0  0
    4.9267   -4.1797    5.7315 C   0  0  0  0  0  0  0  0  0  0  0  0
    4.1016   -3.8520    7.0308 C   0  0  1  0  0  0  0  0  0  0  0  0
    4.2342   -2.3604    7.3870 C   0  0  0  0  0  0  0  0  0  0  0  0
    2.6072   -4.3617    7.0487 C   0  0  1  0  0  0  0  0  0  0  0  0
    1.8415   -3.4161    6.2994 O   0  0  0  0  0  0  0  0  0  0  0  0
    0.6215   -2.9820    6.7047 C   0  0  0  0  0  0  0  0  0  0  0  0
    0.0123   -3.3953    7.6889 O   0  0  0  0  0  0  0  0  0  0  0  0
    0.0705   -1.9608    5.7626 C   0  0  0  0  0  0  0  0  0  0  0  0
    0.9223   -1.2105    4.9371 C   0  0  0  0  0  0  0  0  0  0  0  0
    0.3662   -0.2050    4.1152 C   0  0  0  0  0  0  0  0  0  0  0  0
   -0.9505    0.0744    4.0928 N   0  0  0  0  0  0  0  0  0  0  0  0
   -1.7731   -0.6572    4.8653 C   0  0  0  0  0  0  0  0  0  0  0  0
   -1.3148   -1.7021    5.7072 C   0  0  0  0  0  0  0  0  0  0  0  0
    2.5799   -5.8076    6.4800 C   0  0  2  0  0  0  0  0  0  0  0  0
    3.3149   -6.4788    7.4809 O   0  0  0  0  0  0  0  0  0  0  0  0
    1.3972   -6.6635    5.8541 C   0  0  2  0  0  0  0  0  0  0  0  0
    0.2440   -5.8343    5.2437 C   0  0  0  0  0  0  0  0  0  0  0  0
    2.8712   -8.8409    9.9069 H   0  0  0  0  0  0  0  0  0  0  0  0
    2.0954  -10.3634    9.4569 H   0  0  0  0  0  0  0  0  0  0  0  0
    1.5128   -9.4585   10.8548 H   0  0  0  0  0  0  0  0  0  0  0  0
   -0.1854   -7.3272    7.1460 H   0  0  0  0  0  0  0  0  0  0  0  0
   -0.3441   -9.6570    6.5598 H   0  0  0  0  0  0  0  0  0  0  0  0
   -1.4708   -9.4891    4.8874 H   0  0  0  0  0  0  0  0  0  0  0  0
    1.5807  -10.5800    5.8586 H   0  0  0  0  0  0  0  0  0  0  0  0
    0.5610  -10.6532    4.4784 H   0  0  0  0  0  0  0  0  0  0  0  0
    2.9237  -10.2748    3.9472 H   0  0  0  0  0  0  0  0  0  0  0  0
    3.2912   -8.7749    6.0843 H   0  0  0  0  0  0  0  0  0  0  0  0
    4.2046   -8.4253    4.6363 H   0  0  0  0  0  0  0  0  0  0  0  0
    3.4262   -9.5517    1.6422 H   0  0  0  0  0  0  0  0  0  0  0  0
    4.1400   -8.1643    2.4508 H   0  0  0  0  0  0  0  0  0  0  0  0
    3.0130   -7.9193    1.1386 H   0  0  0  0  0  0  0  0  0  0  0  0
    0.8100   -9.9958    1.9411 H   0  0  0  0  0  0  0  0  0  0  0  0
    0.6904   -8.3588    1.2932 H   0  0  0  0  0  0  0  0  0  0  0  0
   -0.1470   -8.7793    2.7628 H   0  0  0  0  0  0  0  0  0  0  0  0
    2.7614   -5.0792    4.4685 H   0  0  0  0  0  0  0  0  0  0  0  0
    5.2346   -6.3422    5.7096 H   0  0  0  0  0  0  0  0  0  0  0  0
    5.1432   -5.6393    4.1171 H   0  0  0  0  0  0  0  0  0  0  0  0
    5.9858   -4.0602    5.9441 H   0  0  0  0  0  0  0  0  0  0  0  0
    4.6901   -3.4340    4.9674 H   0  0  0  0  0  0  0  0  0  0  0  0
    4.6140   -4.3751    7.8360 H   0  0  0  0  0  0  0  0  0  0  0  0
    3.8336   -1.7196    6.5963 H   0  0  0  0  0  0  0  0  0  0  0  0
    5.2856   -2.0913    7.5159 H   0  0  0  0  0  0  0  0  0  0  0  0
    3.7145   -2.1200    8.3142 H   0  0  0  0  0  0  0  0  0  0  0  0
    2.2605   -4.3704    8.0846 H   0  0  0  0  0  0  0  0  0  0  0  0
    1.9922   -1.3646    4.9241 H   0  0  0  0  0  0  0  0  0  0  0  0
    1.0035    0.3978    3.4916 H   0  0  0  0  0  0  0  0  0  0  0  0
   -2.8218   -0.4248    4.8038 H   0  0  0  0  0  0  0  0  0  0  0  0
   -2.0206   -2.2824    6.2783 H   0  0  0  0  0  0  0  0  0  0  0  0
    3.4252   -7.3677    7.1778 H   0  0  0  0  0  0  0  0  0  0  0  0
    0.6012   -5.0089    4.6328 H   0  0  0  0  0  0  0  0  0  0  0  0
   -0.3866   -5.4397    6.0311 H   0  0  0  0  0  0  0  0  0  0  0  0
   -0.4173   -6.3997    4.5877 H   0  0  0  0  0  0  0  0  0  0  0  0
  1  2  1  0
  1 35  1  0
  1 36  1  0
  1 37  1  0
  2  3  2  0
  2  4  1  0
  4  5  1  0
  5 33  1  0
  5  6  1  0
  5 38  1  1
  6  7  1  0
  6  8  1  0
  6 39  1  1
  7 40  1  0
  8  9  1  0
  8 41  1  0
  8 42  1  0
  9 13  1  0
  9 10  1  0
  9 43  1  6
 10 11  1  0
 10 44  1  0
 10 45  1  0
 11 33  1  0
 11 12  1  6
 11 16  1  0
 12 13  1  0
 13 14  1  0
 13 15  1  0
 14 46  1  0
 14 47  1  0
 14 48  1  0
 15 49  1  0
 15 50  1  0
 15 51  1  0
 16 31  1  0
 16 17  1  0
 16 52  1  6
 17 18  1  0
 17 53  1  0
 17 54  1  0
 18 19  1  0
 18 55  1  0
 18 56  1  0
 19 20  1  0
 19 21  1  0
 19 57  1  1
 20 58  1  0
 20 59  1  0
 20 60  1  0
 21 22  1  0
 21 31  1  0
 21 61  1  1
 22 23  1  0
 23 24  2  0
 23 25  1  0
 25 30  1  0
 25 26  2  0
 26 27  1  0
 26 62  1  0
 27 28  2  0
 27 63  1  0
 28 29  1  0
 29 30  2  0
 29 64  1  0
 30 65  1  0
 31 32  1  1
 31 33  1  0
 32 66  1  0
 33 34  1  6
 34 67  1  0
 34 68  1  0
 34 69  1  0
M  END
>  <i_m_ct_stereo_status>  (37) 
1

>  <s_m_source_file>  (37) 
/var/tmp/pbs.5076255.sched01/tmphrtf3o8j/0_qqz9eae.sdf

>  <i_m_source_file_index>  (37) 
19

>  <i_lp_mmshare_version>  (37) 
48012

>  <i_f3d_flags>  (37) 
0

>  <s_epik_input>  (37) 
TzFDKFtDSDNdKShbQ0gzXSlbQ0BASF0oW0NIMl0yKVtDSDJdW0NASF0oW09IXSlbQ0BASF0oT0MoPU8pW0NIM10pW0NAQF0zKFtDSDNdKVtDQF0oW0NAQEhdNFtDQEBdMTIzKShbT0hdKVtDQEBIXShbQ0BIXShbQ0gzXSlbQ0gyXVtDSDJdNClPQyg9TyljNVtjSF1bY0hdbltjSF1bY0hdNQ==

>  <s_epik_cmdline>  (37) 
J2VwaWtfcHl0aG9uJywgJy1waHQnLCAnMi4wJywgJy1waCcsICc3LjAnLCAnLXRuJywgJzgnLCAnLW1hJywgJzIwMCcsICctaW1hZScsICc8aW5maWxlLm1hZT4nLCAnLW9tYWUnLCAnPG91dGZpbGUubWFlPic=

>  <r_lp_tautomer_probability>  (37) 
1

>  <r_epik_Ionization_Penalty>  (37) 
7.80226e-05

>  <r_epik_Ionization_Penalty_Charging>  (37) 
0

>  <r_epik_Ionization_Penalty_Neutral>  (37) 
7.80226e-05

>  <r_epik_State_Penalty>  (37) 
-0

>  <r_epik_Charging_Adjusted_Penalty>  (37) 
0

>  <i_epik_Tot_Q>  (37) 
0

>  <i_epik_Tot_abs_Q>  (37) 
0

>  <s_epik_Chemistry_Notes>  (37) 
This compound has an ester and may undergo hydrolysis at high or low pH.

>  <s_lp_Force_Field>  (37) 
OPLS3e

>  <r_lp_Energy>  (37) 
65.1324

>  <b_lp_Chiralities_Consistent>  (37) 
1

>  <s_lp_Variant>  (37) 
15:0-1

>  <s_i_glide_gridfile>  (37) 
pfpi4k_grid

>  <i_i_glide_lignum>  (37) 
19

>  <i_i_glide_rotatable_bonds>  (37) 
7

>  <r_i_docking_score>  (37) 
-2.35163

>  <r_i_glide_ligand_efficiency>  (37) 
-0.0691657

>  <r_i_glide_ligand_efficiency_sa>  (37) 
-0.22407

>  <r_i_glide_ligand_efficiency_ln>  (37) 
-0.519542

>  <r_i_glide_gscore>  (37) 
-2.35163

>  <r_i_glide_lipo>  (37) 
-0.00139016

>  <r_i_glide_hbond>  (37) 
-0.388934

>  <r_i_glide_metal>  (37) 
-0

>  <r_i_glide_rewards>  (37) 
-0.180282

>  <r_i_glide_evdw>  (37) 
-20.9784

>  <r_i_glide_ecoul>  (37) 
-6.97017

>  <r_i_glide_erotb>  (37) 
0.360807

>  <r_i_glide_esite>  (37) 
-0.04739

>  <r_i_glide_emodel>  (37) 
-30.8809

>  <r_i_glide_energy>  (37) 
-27.9485

>  <r_i_glide_einternal>  (37) 
2.91903

>  <r_i_glide_intrahb_reward>  (37) 
-0

>  <i_i_glide_confnum>  (37) 
3

>  <i_i_glide_posenum>  (37) 
38

>  <r_i_glide_eff_state_penalty>  (37) 
0

>  <ligand_id>  (37) 
15

>  <original_smiles>  (37) 
CC(=O)OC1C(O)CC2CC3(OC2(C)C)C2CCC(C)C(OC(=O)c4ccncc4)C2(O)C13C

>  <smiles>  (37) 
[H]OC1([H])C([H])([H])C2([H])C([H])([H])C3(OC2(C([H])([H])[H])C([H])([H])[H])C2([H])C([H])([H])C([H])([H])C([H])(C([H])([H])[H])C([H])(OC(=O)c4c([H])c([H])nc([H])c4[H])C2(O[H])C3(C([H])([H])[H])C1([H])OC(=O)C([H])([H])[H]

$$$$
15:0:1
     RDKit          3D

 69 73  0  0  1  0  0  0  0  0999 V2000
   -1.0625   -8.3446    4.8232 C   0  0  0  0  0  0  0  0  0  0  0  0
    0.1887   -8.4530    5.6928 C   0  0  0  0  0  0  0  0  0  0  0  0
    0.1458   -9.0182    6.7810 O   0  0  0  0  0  0  0  0  0  0  0  0
    1.3244   -7.8600    5.2284 O   0  0  0  0  0  0  0  0  0  0  0  0
    1.4272   -7.1786    3.9875 C   0  0  2  0  0  0  0  0  0  0  0  0
    1.7369   -8.2735    2.9044 C   0  0  1  0  0  0  0  0  0  0  0  0
    1.3336   -7.8510    1.6207 O   0  0  0  0  0  0  0  0  0  0  0  0
    3.0589   -9.0905    2.9442 C   0  0  0  0  0  0  0  0  0  0  0  0
    4.4318   -8.4075    3.1823 C   0  0  2  0  0  0  0  0  0  0  0  0
    4.4299   -7.5723    4.4364 C   0  0  0  0  0  0  0  0  0  0  0  0
    3.8981   -6.2405    3.9232 C   0  0  2  0  0  0  0  0  0  0  0  0
    4.3456   -6.1524    2.5721 O   0  0  0  0  0  0  0  0  0  0  0  0
    4.9151   -7.3845    2.1374 C   0  0  0  0  0  0  0  0  0  0  0  0
    6.4503   -7.2189    2.1973 C   0  0  0  0  0  0  0  0  0  0  0  0
    4.5390   -7.7040    0.6771 C   0  0  0  0  0  0  0  0  0  0  0  0
    4.1262   -4.9684    4.7277 C   0  0  2  0  0  0  0  0  0  0  0  0
    5.1937   -4.6859    5.7637 C   0  0  0  0  0  0  0  0  0  0  0  0
    4.7922   -3.3788    6.4836 C   0  0  0  0  0  0  0  0  0  0  0  0
    3.2870   -3.2596    6.9275 C   0  0  1  0  0  0  0  0  0  0  0  0
    2.9912   -1.8274    7.4154 C   0  0  0  0  0  0  0  0  0  0  0  0
    2.2245   -3.8001    5.8938 C   0  0  1  0  0  0  0  0  0  0  0  0
    2.0813   -2.8093    4.8829 O   0  0  0  0  0  0  0  0  0  0  0  0
    0.9850   -2.0276    4.7609 C   0  0  0  0  0  0  0  0  0  0  0  0
   -0.0258   -2.1250    5.4612 O   0  0  0  0  0  0  0  0  0  0  0  0
    1.1650   -1.0012    3.6863 C   0  0  0  0  0  0  0  0  0  0  0  0
    2.2973   -0.9841    2.8490 C   0  0  0  0  0  0  0  0  0  0  0  0
    2.4184    0.0148    1.8698 C   0  0  0  0  0  0  0  0  0  0  0  0
    1.5103    0.9960    1.6963 N   0  0  0  0  0  0  0  0  0  0  0  0
    0.4120    0.9798    2.4830 C   0  0  0  0  0  0  0  0  0  0  0  0
    0.1963    0.0189    3.4970 C   0  0  0  0  0  0  0  0  0  0  0  0
    2.7431   -5.1526    5.3351 C   0  0  2  0  0  0  0  0  0  0  0  0
    2.6954   -5.9376    6.5009 O   0  0  0  0  0  0  0  0  0  0  0  0
    2.3697   -5.9233    4.0042 C   0  0  2  0  0  0  0  0  0  0  0  0
    1.7953   -5.0019    2.8984 C   0  0  0  0  0  0  0  0  0  0  0  0
   -0.9266   -8.7821    3.8368 H   0  0  0  0  0  0  0  0  0  0  0  0
   -1.3765   -7.3140    4.7131 H   0  0  0  0  0  0  0  0  0  0  0  0
   -1.9081   -8.8862    5.2716 H   0  0  0  0  0  0  0  0  0  0  0  0
    0.4449   -6.7785    3.7590 H   0  0  0  0  0  0  0  0  0  0  0  0
    1.0147   -9.0810    3.0599 H   0  0  0  0  0  0  0  0  0  0  0  0
    1.1166   -8.6277    1.1005 H   0  0  0  0  0  0  0  0  0  0  0  0
    2.9400   -9.8001    3.7647 H   0  0  0  0  0  0  0  0  0  0  0  0
    3.1073   -9.7254    2.0570 H   0  0  0  0  0  0  0  0  0  0  0  0
    5.1623   -9.2156    3.2863 H   0  0  0  0  0  0  0  0  0  0  0  0
    3.8449   -8.0146    5.2353 H   0  0  0  0  0  0  0  0  0  0  0  0
    5.4364   -7.4506    4.8193 H   0  0  0  0  0  0  0  0  0  0  0  0
    6.9517   -8.1661    1.9784 H   0  0  0  0  0  0  0  0  0  0  0  0
    6.7978   -6.8841    3.1763 H   0  0  0  0  0  0  0  0  0  0  0  0
    6.7969   -6.4859    1.4683 H   0  0  0  0  0  0  0  0  0  0  0  0
    4.8511   -8.7155    0.4053 H   0  0  0  0  0  0  0  0  0  0  0  0
    5.0122   -7.0133   -0.0110 H   0  0  0  0  0  0  0  0  0  0  0  0
    3.4741   -7.6269    0.5080 H   0  0  0  0  0  0  0  0  0  0  0  0
    4.1136   -4.1459    4.0256 H   0  0  0  0  0  0  0  0  0  0  0  0
    5.2718   -5.5063    6.4764 H   0  0  0  0  0  0  0  0  0  0  0  0
    6.1725   -4.5949    5.3015 H   0  0  0  0  0  0  0  0  0  0  0  0
    5.4285   -3.2671    7.3546 H   0  0  0  0  0  0  0  0  0  0  0  0
    5.0299   -2.5408    5.8227 H   0  0  0  0  0  0  0  0  0  0  0  0
    3.1980   -3.8736    7.8224 H   0  0  0  0  0  0  0  0  0  0  0  0
    3.1439   -1.0919    6.6176 H   0  0  0  0  0  0  0  0  0  0  0  0
    3.6604   -1.5512    8.2376 H   0  0  0  0  0  0  0  0  0  0  0  0
    1.9653   -1.7274    7.7743 H   0  0  0  0  0  0  0  0  0  0  0  0
    1.2721   -3.9580    6.4084 H   0  0  0  0  0  0  0  0  0  0  0  0
    3.0848   -1.7233    2.9303 H   0  0  0  0  0  0  0  0  0  0  0  0
    3.2717    0.0499    1.2181 H   0  0  0  0  0  0  0  0  0  0  0  0
   -0.3004    1.7760    2.3069 H   0  0  0  0  0  0  0  0  0  0  0  0
   -0.7003    0.0750    4.1071 H   0  0  0  0  0  0  0  0  0  0  0  0
    3.0366   -6.7879    6.2715 H   0  0  0  0  0  0  0  0  0  0  0  0
    2.4025   -4.1193    2.7195 H   0  0  0  0  0  0  0  0  0  0  0  0
    0.8012   -4.6562    3.1668 H   0  0  0  0  0  0  0  0  0  0  0  0
    1.7234   -5.4886    1.9298 H   0  0  0  0  0  0  0  0  0  0  0  0
  1  2  1  0
  1 35  1  0
  1 36  1  0
  1 37  1  0
  2  3  2  0
  2  4  1  0
  4  5  1  0
  5 33  1  0
  5  6  1  0
  5 38  1  6
  6  7  1  0
  6  8  1  0
  6 39  1  1
  7 40  1  0
  8  9  1  0
  8 41  1  0
  8 42  1  0
  9 13  1  0
  9 10  1  0
  9 43  1  1
 10 11  1  0
 10 44  1  0
 10 45  1  0
 11 33  1  0
 11 12  1  6
 11 16  1  0
 12 13  1  0
 13 14  1  0
 13 15  1  0
 14 46  1  0
 14 47  1  0
 14 48  1  0
 15 49  1  0
 15 50  1  0
 15 51  1  0
 16 31  1  0
 16 17  1  0
 16 52  1  6
 17 18  1  0
 17 53  1  0
 17 54  1  0
 18 19  1  0
 18 55  1  0
 18 56  1  0
 19 20  1  0
 19 21  1  0
 19 57  1  1
 20 58  1  0
 20 59  1  0
 20 60  1  0
 21 22  1  0
 21 31  1  0
 21 61  1  1
 22 23  1  0
 23 24  2  0
 23 25  1  0
 25 30  1  0
 25 26  2  0
 26 27  1  0
 26 62  1  0
 27 28  2  0
 27 63  1  0
 28 29  1  0
 29 30  2  0
 29 64  1  0
 30 65  1  0
 31 32  1  1
 31 33  1  0
 32 66  1  0
 33 34  1  6
 34 67  1  0
 34 68  1  0
 34 69  1  0
M  END
>  <i_m_ct_stereo_status>  (38) 
1

>  <s_m_source_file>  (38) 
/var/tmp/pbs.5076255.sched01/tmphrtf3o8j/0_qqz9eae.sdf

>  <i_m_source_file_index>  (38) 
19

>  <i_lp_mmshare_version>  (38) 
48012

>  <i_f3d_flags>  (38) 
0

>  <s_epik_input>  (38) 
TzFDKFtDSDNdKShbQ0gzXSlbQ0BASF0oW0NIMl0yKVtDSDJdW0NASF0oW09IXSlbQ0BASF0oT0MoPU8pW0NIM10pW0NAQF0zKFtDSDNdKVtDQF0oW0NAQEhdNFtDQEBdMTIzKShbT0hdKVtDQEBIXShbQ0BIXShbQ0gzXSlbQ0gyXVtDSDJdNClPQyg9TyljNVtjSF1bY0hdbltjSF1bY0hdNQ==

>  <s_epik_cmdline>  (38) 
J2VwaWtfcHl0aG9uJywgJy1waHQnLCAnMi4wJywgJy1waCcsICc3LjAnLCAnLXRuJywgJzgnLCAnLW1hJywgJzIwMCcsICctaW1hZScsICc8aW5maWxlLm1hZT4nLCAnLW9tYWUnLCAnPG91dGZpbGUubWFlPic=

>  <r_lp_tautomer_probability>  (38) 
1

>  <r_epik_Ionization_Penalty>  (38) 
7.80226e-05

>  <r_epik_Ionization_Penalty_Charging>  (38) 
0

>  <r_epik_Ionization_Penalty_Neutral>  (38) 
7.80226e-05

>  <r_epik_State_Penalty>  (38) 
-0

>  <r_epik_Charging_Adjusted_Penalty>  (38) 
0

>  <i_epik_Tot_Q>  (38) 
0

>  <i_epik_Tot_abs_Q>  (38) 
0

>  <s_epik_Chemistry_Notes>  (38) 
This compound has an ester and may undergo hydrolysis at high or low pH.

>  <s_lp_Force_Field>  (38) 
OPLS3e

>  <r_lp_Energy>  (38) 
65.1324

>  <b_lp_Chiralities_Consistent>  (38) 
1

>  <s_lp_Variant>  (38) 
15:0-1

>  <s_i_glide_gridfile>  (38) 
pfpi4k_grid

>  <i_i_glide_lignum>  (38) 
19

>  <i_i_glide_rotatable_bonds>  (38) 
7

>  <r_i_docking_score>  (38) 
-1.83405

>  <r_i_glide_ligand_efficiency>  (38) 
-0.0539427

>  <r_i_glide_ligand_efficiency_sa>  (38) 
-0.174753

>  <r_i_glide_ligand_efficiency_ln>  (38) 
-0.405194

>  <r_i_glide_gscore>  (38) 
-1.83405

>  <r_i_glide_lipo>  (38) 
-0.118249

>  <r_i_glide_hbond>  (38) 
-0.229694

>  <r_i_glide_metal>  (38) 
-0

>  <r_i_glide_rewards>  (38) 
-0.183009

>  <r_i_glide_evdw>  (38) 
-23.5568

>  <r_i_glide_ecoul>  (38) 
-2.97745

>  <r_i_glide_erotb>  (38) 
0.360807

>  <r_i_glide_esite>  (38) 
-0.0394494

>  <r_i_glide_emodel>  (38) 
-26.6116

>  <r_i_glide_energy>  (38) 
-26.5343

>  <r_i_glide_einternal>  (38) 
6.46296

>  <r_i_glide_intrahb_reward>  (38) 
-0

>  <i_i_glide_confnum>  (38) 
3

>  <i_i_glide_posenum>  (38) 
3

>  <r_i_glide_eff_state_penalty>  (38) 
0

>  <ligand_id>  (38) 
15

>  <original_smiles>  (38) 
CC(=O)OC1C(O)CC2CC3(OC2(C)C)C2CCC(C)C(OC(=O)c4ccncc4)C2(O)C13C

>  <smiles>  (38) 
[H]OC1([H])C([H])([H])C2([H])C([H])([H])C3(OC2(C([H])([H])[H])C([H])([H])[H])C2([H])C([H])([H])C([H])([H])C([H])(C([H])([H])[H])C([H])(OC(=O)c4c([H])c([H])nc([H])c4[H])C2(O[H])C3(C([H])([H])[H])C1([H])OC(=O)C([H])([H])[H]

$$$$
15:0:2
     RDKit          3D

 69 73  0  0  1  0  0  0  0  0999 V2000
    2.5113   -6.6978    8.1122 C   0  0  0  0  0  0  0  0  0  0  0  0
    1.5456   -6.1291    7.0725 C   0  0  0  0  0  0  0  0  0  0  0  0
    0.3286   -6.1466    7.2517 O   0  0  0  0  0  0  0  0  0  0  0  0
    2.1865   -5.6349    5.9911 O   0  0  0  0  0  0  0  0  0  0  0  0
    1.4818   -5.0837    4.8744 C   0  0  2  0  0  0  0  0  0  0  0  0
    1.5872   -6.1828    3.7594 C   0  0  1  0  0  0  0  0  0  0  0  0
    0.6126   -6.0448    2.7449 O   0  0  0  0  0  0  0  0  0  0  0  0
    2.9846   -6.5932    3.1846 C   0  0  0  0  0  0  0  0  0  0  0  0
    4.0658   -5.5478    2.7764 C   0  0  2  0  0  0  0  0  0  0  0  0
    4.3596   -4.5920    3.9007 C   0  0  0  0  0  0  0  0  0  0  0  0
    3.2928   -3.5366    3.6992 C   0  0  2  0  0  0  0  0  0  0  0  0
    3.0774   -3.4913    2.2797 O   0  0  0  0  0  0  0  0  0  0  0  0
    3.7472   -4.5668    1.6250 C   0  0  0  0  0  0  0  0  0  0  0  0
    5.0406   -3.9851    1.0042 C   0  0  0  0  0  0  0  0  0  0  0  0
    2.8968   -5.1463    0.4782 C   0  0  0  0  0  0  0  0  0  0  0  0
    3.4710   -2.1596    4.3341 C   0  0  2  0  0  0  0  0  0  0  0  0
    4.7457   -1.4853    4.7832 C   0  0  0  0  0  0  0  0  0  0  0  0
    4.3357   -0.2519    5.6267 C   0  0  0  0  0  0  0  0  0  0  0  0
    3.2045   -0.4789    6.6930 C   0  0  1  0  0  0  0  0  0  0  0  0
    2.7402    0.8686    7.2806 C   0  0  0  0  0  0  0  0  0  0  0  0
    2.0101   -1.4045    6.2315 C   0  0  1  0  0  0  0  0  0  0  0  0
    1.1627   -0.6206    5.3886 O   0  0  0  0  0  0  0  0  0  0  0  0
   -0.0413   -0.1498    5.7889 C   0  0  0  0  0  0  0  0  0  0  0  0
   -0.5769   -0.4223    6.8687 O   0  0  0  0  0  0  0  0  0  0  0  0
   -0.6373    0.7698    4.7807 C   0  0  0  0  0  0  0  0  0  0  0  0
   -0.1738    0.8185    3.4484 C   0  0  0  0  0  0  0  0  0  0  0  0
   -0.7640    1.7230    2.5450 C   0  0  0  0  0  0  0  0  0  0  0  0
   -1.7596    2.5636    2.8925 N   0  0  0  0  0  0  0  0  0  0  0  0
   -2.2000    2.5270    4.1621 C   0  0  0  0  0  0  0  0  0  0  0  0
   -1.6865    1.6507    5.1424 C   0  0  0  0  0  0  0  0  0  0  0  0
    2.6006   -2.6287    5.4944 C   0  0  2  0  0  0  0  0  0  0  0  0
    3.3072   -3.2618    6.5467 O   0  0  0  0  0  0  0  0  0  0  0  0
    1.9289   -3.6296    4.4695 C   0  0  2  0  0  0  0  0  0  0  0  0
    0.7118   -3.0315    3.7399 C   0  0  0  0  0  0  0  0  0  0  0  0
    3.2452   -5.9483    8.4052 H   0  0  0  0  0  0  0  0  0  0  0  0
    3.0427   -7.5618    7.7135 H   0  0  0  0  0  0  0  0  0  0  0  0
    1.9732   -7.0154    9.0031 H   0  0  0  0  0  0  0  0  0  0  0  0
    0.4258   -5.0333    5.1432 H   0  0  0  0  0  0  0  0  0  0  0  0
    1.2328   -7.0950    4.2463 H   0  0  0  0  0  0  0  0  0  0  0  0
    0.5984   -6.8580    2.2559 H   0  0  0  0  0  0  0  0  0  0  0  0
    3.4546   -7.2139    3.9494 H   0  0  0  0  0  0  0  0  0  0  0  0
    2.8328   -7.2850    2.3513 H   0  0  0  0  0  0  0  0  0  0  0  0
    4.9682   -6.1085    2.5332 H   0  0  0  0  0  0  0  0  0  0  0  0
    4.3465   -5.0763    4.8749 H   0  0  0  0  0  0  0  0  0  0  0  0
    5.3530   -4.1580    3.7885 H   0  0  0  0  0  0  0  0  0  0  0  0
    5.6573   -4.7751    0.5681 H   0  0  0  0  0  0  0  0  0  0  0  0
    5.6595   -3.4531    1.7260 H   0  0  0  0  0  0  0  0  0  0  0  0
    4.8140   -3.2769    0.2055 H   0  0  0  0  0  0  0  0  0  0  0  0
    3.3491   -6.0539    0.0766 H   0  0  0  0  0  0  0  0  0  0  0  0
    2.8105   -4.4398   -0.3480 H   0  0  0  0  0  0  0  0  0  0  0  0
    1.8870   -5.3866    0.7821 H   0  0  0  0  0  0  0  0  0  0  0  0
    2.9245   -1.4500    3.7138 H   0  0  0  0  0  0  0  0  0  0  0  0
    5.3636   -2.1634    5.3775 H   0  0  0  0  0  0  0  0  0  0  0  0
    5.3631   -1.1857    3.9350 H   0  0  0  0  0  0  0  0  0  0  0  0
    5.2229    0.1351    6.1269 H   0  0  0  0  0  0  0  0  0  0  0  0
    4.0152    0.5334    4.9404 H   0  0  0  0  0  0  0  0  0  0  0  0
    3.6830   -0.9915    7.5270 H   0  0  0  0  0  0  0  0  0  0  0  0
    2.3144    1.5169    6.5104 H   0  0  0  0  0  0  0  0  0  0  0  0
    3.5801    1.4069    7.7247 H   0  0  0  0  0  0  0  0  0  0  0  0
    1.9868    0.7296    8.0586 H   0  0  0  0  0  0  0  0  0  0  0  0
    1.4580   -1.7479    7.1075 H   0  0  0  0  0  0  0  0  0  0  0  0
    0.6283    0.1877    3.0950 H   0  0  0  0  0  0  0  0  0  0  0  0
   -0.4276    1.7702    1.5228 H   0  0  0  0  0  0  0  0  0  0  0  0
   -2.9947    3.2190    4.4051 H   0  0  0  0  0  0  0  0  0  0  0  0
   -2.0805    1.6786    6.1486 H   0  0  0  0  0  0  0  0  0  0  0  0
    3.7839   -3.9744    6.1507 H   0  0  0  0  0  0  0  0  0  0  0  0
    0.9065   -2.0505    3.3139 H   0  0  0  0  0  0  0  0  0  0  0  0
   -0.1442   -2.9333    4.4057 H   0  0  0  0  0  0  0  0  0  0  0  0
    0.4154   -3.6305    2.8888 H   0  0  0  0  0  0  0  0  0  0  0  0
  1  2  1  0
  1 35  1  0
  1 36  1  0
  1 37  1  0
  2  3  2  0
  2  4  1  0
  4  5  1  0
  5 33  1  0
  5  6  1  0
  5 38  1  1
  6  7  1  0
  6  8  1  0
  6 39  1  1
  7 40  1  0
  8  9  1  0
  8 41  1  0
  8 42  1  0
  9 13  1  0
  9 10  1  0
  9 43  1  6
 10 11  1  0
 10 44  1  0
 10 45  1  0
 11 33  1  0
 11 12  1  6
 11 16  1  0
 12 13  1  0
 13 14  1  0
 13 15  1  0
 14 46  1  0
 14 47  1  0
 14 48  1  0
 15 49  1  0
 15 50  1  0
 15 51  1  0
 16 31  1  0
 16 17  1  0
 16 52  1  6
 17 18  1  0
 17 53  1  0
 17 54  1  0
 18 19  1  0
 18 55  1  0
 18 56  1  0
 19 20  1  0
 19 21  1  0
 19 57  1  1
 20 58  1  0
 20 59  1  0
 20 60  1  0
 21 22  1  0
 21 31  1  0
 21 61  1  1
 22 23  1  0
 23 24  2  0
 23 25  1  0
 25 30  1  0
 25 26  2  0
 26 27  1  0
 26 62  1  0
 27 28  2  0
 27 63  1  0
 28 29  1  0
 29 30  2  0
 29 64  1  0
 30 65  1  0
 31 32  1  1
 31 33  1  0
 32 66  1  0
 33 34  1  6
 34 67  1  0
 34 68  1  0
 34 69  1  0
M  END
>  <i_m_ct_stereo_status>  (39) 
1

>  <s_m_source_file>  (39) 
/var/tmp/pbs.5076255.sched01/tmphrtf3o8j/0_qqz9eae.sdf

>  <i_m_source_file_index>  (39) 
19

>  <i_lp_mmshare_version>  (39) 
48012

>  <i_f3d_flags>  (39) 
0

>  <s_epik_input>  (39) 
TzFDKFtDSDNdKShbQ0gzXSlbQ0BASF0oW0NIMl0yKVtDSDJdW0NASF0oW09IXSlbQ0BASF0oT0MoPU8pW0NIM10pW0NAQF0zKFtDSDNdKVtDQF0oW0NAQEhdNFtDQEBdMTIzKShbT0hdKVtDQEBIXShbQ0BIXShbQ0gzXSlbQ0gyXVtDSDJdNClPQyg9TyljNVtjSF1bY0hdbltjSF1bY0hdNQ==

>  <s_epik_cmdline>  (39) 
J2VwaWtfcHl0aG9uJywgJy1waHQnLCAnMi4wJywgJy1waCcsICc3LjAnLCAnLXRuJywgJzgnLCAnLW1hJywgJzIwMCcsICctaW1hZScsICc8aW5maWxlLm1hZT4nLCAnLW9tYWUnLCAnPG91dGZpbGUubWFlPic=

>  <r_lp_tautomer_probability>  (39) 
1

>  <r_epik_Ionization_Penalty>  (39) 
7.80226e-05

>  <r_epik_Ionization_Penalty_Charging>  (39) 
0

>  <r_epik_Ionization_Penalty_Neutral>  (39) 
7.80226e-05

>  <r_epik_State_Penalty>  (39) 
-0

>  <r_epik_Charging_Adjusted_Penalty>  (39) 
0

>  <i_epik_Tot_Q>  (39) 
0

>  <i_epik_Tot_abs_Q>  (39) 
0

>  <s_epik_Chemistry_Notes>  (39) 
This compound has an ester and may undergo hydrolysis at high or low pH.

>  <s_lp_Force_Field>  (39) 
OPLS3e

>  <r_lp_Energy>  (39) 
65.1324

>  <b_lp_Chiralities_Consistent>  (39) 
1

>  <s_lp_Variant>  (39) 
15:0-1

>  <s_i_glide_gridfile>  (39) 
pfpi4k_grid

>  <i_i_glide_lignum>  (39) 
19

>  <i_i_glide_rotatable_bonds>  (39) 
7

>  <r_i_docking_score>  (39) 
-1.49085

>  <r_i_glide_ligand_efficiency>  (39) 
-0.0438486

>  <r_i_glide_ligand_efficiency_sa>  (39) 
-0.142052

>  <r_i_glide_ligand_efficiency_ln>  (39) 
-0.329371

>  <r_i_glide_gscore>  (39) 
-1.49085

>  <r_i_glide_lipo>  (39) 
-0.11854

>  <r_i_glide_hbond>  (39) 
-0.0842814

>  <r_i_glide_metal>  (39) 
-0

>  <r_i_glide_rewards>  (39) 
-0.180282

>  <r_i_glide_evdw>  (39) 
-20.6212

>  <r_i_glide_ecoul>  (39) 
-2.78509

>  <r_i_glide_erotb>  (39) 
0.360807

>  <r_i_glide_esite>  (39) 
-0.0197341

>  <r_i_glide_emodel>  (39) 
-25.3829

>  <r_i_glide_energy>  (39) 
-23.4063

>  <r_i_glide_einternal>  (39) 
1.7083

>  <r_i_glide_intrahb_reward>  (39) 
-0

>  <i_i_glide_confnum>  (39) 
3

>  <i_i_glide_posenum>  (39) 
4

>  <r_i_glide_eff_state_penalty>  (39) 
0

>  <ligand_id>  (39) 
15

>  <original_smiles>  (39) 
CC(=O)OC1C(O)CC2CC3(OC2(C)C)C2CCC(C)C(OC(=O)c4ccncc4)C2(O)C13C

>  <smiles>  (39) 
[H]OC1([H])C([H])([H])C2([H])C([H])([H])C3(OC2(C([H])([H])[H])C([H])([H])[H])C2([H])C([H])([H])C([H])([H])C([H])(C([H])([H])[H])C([H])(OC(=O)c4c([H])c([H])nc([H])c4[H])C2(O[H])C3(C([H])([H])[H])C1([H])OC(=O)C([H])([H])[H]

$$$$
17:0:0
     RDKit          3D

 44 47  0  0  1  0  0  0  0  0999 V2000
    8.2115   -7.2452    1.3052 N   0  0  0  0  0  0  0  0  0  0  0  0
    7.8181   -5.9261    1.0608 C   0  0  0  0  0  0  0  0  0  0  0  0
    8.6865   -4.9816    0.8157 N   0  0  0  0  0  0  0  0  0  0  0  0
    7.9104   -3.8250    0.6611 O   0  0  0  0  0  0  0  0  0  0  0  0
    6.5537   -4.1229    0.8419 N   0  0  0  0  0  0  0  0  0  0  0  0
    6.4891   -5.4139    1.0626 C   0  0  0  0  0  0  0  0  0  0  0  0
    5.2120   -6.1243    1.3044 C   0  0  0  0  0  0  0  0  0  0  0  0
    5.1945   -7.4725    1.2860 N   0  0  0  0  0  0  0  0  0  0  0  0
    3.8841   -7.7923    1.5566 C   0  0  0  0  0  0  0  0  0  0  0  0
    3.2275   -9.0333    1.6827 C   0  0  0  0  0  0  0  0  0  0  0  0
    1.8522   -9.0374    1.9847 C   0  0  0  0  0  0  0  0  0  0  0  0
    1.1697   -7.8101    2.1172 C   0  0  0  0  0  0  0  0  0  0  0  0
    1.7514   -6.5920    1.9779 N   0  0  0  0  0  0  0  0  0  0  0  0
    3.0981   -6.6272    1.7186 C   0  0  0  0  0  0  0  0  0  0  0  0
    3.9923   -5.5599    1.5623 N   0  0  0  0  0  0  0  0  0  0  0  0
    3.6189   -4.1476    1.6725 C   0  0  0  0  0  0  0  0  0  0  0  0
    3.0589   -3.6103    0.3469 C   0  0  0  0  0  0  0  0  0  0  0  0
    3.9347   -2.5158   -0.2945 C   0  0  0  0  0  0  0  0  0  0  0  0
    3.4059   -2.0126   -1.5764 N   0  0  0  0  0  0  0  0  0  0  0  0
    4.2010   -0.8692   -2.0865 C   0  0  0  0  0  0  0  0  0  0  0  0
    3.6085   -0.3567   -3.4077 C   0  0  0  0  0  0  0  0  0  0  0  0
    3.6026   -1.4231   -4.3503 O   0  0  0  0  0  0  0  0  0  0  0  0
    2.7780   -2.5080   -3.9322 C   0  0  0  0  0  0  0  0  0  0  0  0
    3.3189   -3.0668   -2.6224 C   0  0  0  0  0  0  0  0  0  0  0  0
    7.5486   -7.9809    1.4809 H   0  0  0  0  0  0  0  0  0  0  0  0
    3.7715   -9.9623    1.5493 H   0  0  0  0  0  0  0  0  0  0  0  0
    1.3196   -9.9686    2.0816 H   0  0  0  0  0  0  0  0  0  0  0  0
    0.1087   -7.8118    2.3406 H   0  0  0  0  0  0  0  0  0  0  0  0
    2.8533   -4.0544    2.4445 H   0  0  0  0  0  0  0  0  0  0  0  0
    4.4510   -3.5498    2.0447 H   0  0  0  0  0  0  0  0  0  0  0  0
    2.9204   -4.4595   -0.3263 H   0  0  0  0  0  0  0  0  0  0  0  0
    2.0662   -3.1928    0.5118 H   0  0  0  0  0  0  0  0  0  0  0  0
    4.0631   -1.6915    0.4131 H   0  0  0  0  0  0  0  0  0  0  0  0
    4.9273   -2.8909   -0.5171 H   0  0  0  0  0  0  0  0  0  0  0  0
    4.2203   -0.0787   -1.3392 H   0  0  0  0  0  0  0  0  0  0  0  0
    5.2363   -1.1795   -2.2381 H   0  0  0  0  0  0  0  0  0  0  0  0
    2.6071    0.0467   -3.2632 H   0  0  0  0  0  0  0  0  0  0  0  0
    4.2172    0.4517   -3.8078 H   0  0  0  0  0  0  0  0  0  0  0  0
    1.7365   -2.2180   -3.8086 H   0  0  0  0  0  0  0  0  0  0  0  0
    2.7806   -3.2888   -4.6936 H   0  0  0  0  0  0  0  0  0  0  0  0
    4.2998   -3.5175   -2.7845 H   0  0  0  0  0  0  0  0  0  0  0  0
    2.6291   -3.8540   -2.3376 H   0  0  0  0  0  0  0  0  0  0  0  0
    9.2052   -7.5106    1.2791 H   0  0  0  0  0  0  0  0  0  0  0  0
    2.4626   -1.6621   -1.4042 H   0  0  0  0  0  0  0  0  0  0  0  0
  1  2  1  0
  1 25  1  0
  1 43  1  0
  2  6  1  0
  2  3  2  0
  3  4  1  0
  4  5  1  0
  5  6  2  0
  6  7  1  0
  7 15  1  0
  7  8  2  0
  8  9  1  0
  9 14  2  0
  9 10  1  0
 10 11  2  0
 10 26  1  0
 11 12  1  0
 11 27  1  0
 12 13  2  0
 12 28  1  0
 13 14  1  0
 14 15  1  0
 15 16  1  0
 16 17  1  0
 16 29  1  0
 16 30  1  0
 17 18  1  0
 17 31  1  0
 17 32  1  0
 18 19  1  0
 18 33  1  0
 18 34  1  0
 19 24  1  0
 19 20  1  0
 19 44  1  0
 20 21  1  0
 20 35  1  0
 20 36  1  0
 21 22  1  0
 21 37  1  0
 21 38  1  0
 22 23  1  0
 23 24  1  0
 23 39  1  0
 23 40  1  0
 24 41  1  0
 24 42  1  0
M  CHG  1  19   1
M  END
>  <i_m_ct_stereo_status>  (40) 
1

>  <s_m_source_file>  (40) 
/var/tmp/pbs.5076255.sched01/tmphrtf3o8j/0_qqz9eae.sdf

>  <i_m_source_file_index>  (40) 
21

>  <i_lp_mmshare_version>  (40) 
48012

>  <i_f3d_flags>  (40) 
0

>  <s_epik_input>  (40) 
W0hdL049YzFcW25IXW9uYzEtYyhuMiluKGMoYzIzKW5bY0hdW2NIXVtjSF0zKVtDSDJdW0NIMl1bQ0gyXU40W0NIMl1bQ0gyXU9bQ0gyXVtDSDJdNA==

>  <s_epik_cmdline>  (40) 
J2VwaWtfcHl0aG9uJywgJy1waHQnLCAnMi4wJywgJy1waCcsICc3LjAnLCAnLXRuJywgJzgnLCAnLW1hJywgJzIwMCcsICctaW1hZScsICc8aW5maWxlLm1hZT4nLCAnLW9tYWUnLCAnPG91dGZpbGUubWFlPic=

>  <r_lp_tautomer_probability>  (40) 
1

>  <r_epik_Ionization_Penalty>  (40) 
0.347025

>  <r_epik_Ionization_Penalty_Charging>  (40) 
0.347012

>  <r_epik_Ionization_Penalty_Neutral>  (40) 
1.27241e-05

>  <r_epik_State_Penalty>  (40) 
0.343006

>  <r_epik_Charging_Adjusted_Penalty>  (40) 
0.690019

>  <i_epik_Tot_Q>  (40) 
1

>  <i_epik_Tot_abs_Q>  (40) 
1

>  <s_lp_Force_Field>  (40) 
OPLS3e

>  <r_lp_Energy>  (40) 
28.2924

>  <b_lp_Chiralities_Consistent>  (40) 
1

>  <s_lp_Variant>  (40) 
17:0-1

>  <s_i_glide_gridfile>  (40) 
pfpi4k_grid

>  <i_i_glide_lignum>  (40) 
21

>  <i_i_glide_rotatable_bonds>  (40) 
5

>  <r_i_docking_score>  (40) 
-5.12037

>  <r_i_glide_ligand_efficiency>  (40) 
-0.213349

>  <r_i_glide_ligand_efficiency_sa>  (40) 
-0.615404

>  <r_i_glide_ligand_efficiency_ln>  (40) 
-1.22554

>  <r_i_glide_gscore>  (40) 
-5.12037

>  <r_i_glide_lipo>  (40) 
-0.50244

>  <r_i_glide_hbond>  (40) 
-0.586049

>  <r_i_glide_metal>  (40) 
-0

>  <r_i_glide_rewards>  (40) 
-1.35222

>  <r_i_glide_evdw>  (40) 
-29.6841

>  <r_i_glide_ecoul>  (40) 
-11.4675

>  <r_i_glide_erotb>  (40) 
0.689279

>  <r_i_glide_esite>  (40) 
-0.164607

>  <r_i_glide_emodel>  (40) 
-54.4505

>  <r_i_glide_energy>  (40) 
-41.1516

>  <r_i_glide_einternal>  (40) 
4.39477

>  <r_i_glide_intrahb_reward>  (40) 
-0

>  <i_i_glide_confnum>  (40) 
5

>  <i_i_glide_posenum>  (40) 
25

>  <r_i_glide_eff_state_penalty>  (40) 
0

>  <ligand_id>  (40) 
17

>  <original_smiles>  (40) 
N=c1[nH]onc1-c1nc2cccnc2n1CCCN1CCOCC1

>  <smiles>  (40) 
[H]c1nc2c(nc(-c3nonc3N([H])[H])n2C([H])([H])C([H])([H])C([H])([H])[N+]2([H])C([H])([H])C([H])([H])OC([H])([H])C2([H])[H])c([H])c1[H]

$$$$
17:0:1
     RDKit          3D

 44 47  0  0  1  0  0  0  0  0999 V2000
    0.2036  -10.0924    3.2809 N   0  0  0  0  0  0  0  0  0  0  0  0
   -0.1626   -8.8057    2.8704 C   0  0  0  0  0  0  0  0  0  0  0  0
   -1.4015   -8.3858    2.9555 N   0  0  0  0  0  0  0  0  0  0  0  0
   -1.3564   -7.0726    2.4853 O   0  0  0  0  0  0  0  0  0  0  0  0
   -0.0553   -6.7273    2.0934 N   0  0  0  0  0  0  0  0  0  0  0  0
    0.6807   -7.7821    2.3417 C   0  0  0  0  0  0  0  0  0  0  0  0
    2.1506   -7.8123    2.1356 C   0  0  0  0  0  0  0  0  0  0  0  0
    2.7983   -8.9888    2.1965 N   0  0  0  0  0  0  0  0  0  0  0  0
    4.1036   -8.6682    1.9132 C   0  0  0  0  0  0  0  0  0  0  0  0
    5.2689   -9.4549    1.7878 C   0  0  0  0  0  0  0  0  0  0  0  0
    6.4912   -8.8229    1.4832 C   0  0  0  0  0  0  0  0  0  0  0  0
    6.5116   -7.4220    1.3153 C   0  0  0  0  0  0  0  0  0  0  0  0
    5.4200   -6.6252    1.4224 N   0  0  0  0  0  0  0  0  0  0  0  0
    4.2508   -7.2736    1.7209 C   0  0  0  0  0  0  0  0  0  0  0  0
    2.9627   -6.7384    1.8821 N   0  0  0  0  0  0  0  0  0  0  0  0
    2.6542   -5.3089    1.7760 C   0  0  0  0  0  0  0  0  0  0  0  0
    2.7894   -4.8796    0.3175 C   0  0  0  0  0  0  0  0  0  0  0  0
    2.8106   -3.3462    0.1170 C   0  0  0  0  0  0  0  0  0  0  0  0
    3.1937   -2.9640   -1.2691 N   0  0  0  0  0  0  0  0  0  0  0  0
    4.4897   -3.5464   -1.7348 C   0  0  0  0  0  0  0  0  0  0  0  0
    4.8330   -3.0965   -3.1573 C   0  0  0  0  0  0  0  0  0  0  0  0
    3.7557   -3.4281   -4.0198 O   0  0  0  0  0  0  0  0  0  0  0  0
    2.5403   -2.7794   -3.6595 C   0  0  0  0  0  0  0  0  0  0  0  0
    2.1139   -3.2125   -2.2537 C   0  0  0  0  0  0  0  0  0  0  0  0
    1.1592  -10.4163    3.2384 H   0  0  0  0  0  0  0  0  0  0  0  0
    5.2086  -10.5307    1.9125 H   0  0  0  0  0  0  0  0  0  0  0  0
    7.3993   -9.3950    1.3721 H   0  0  0  0  0  0  0  0  0  0  0  0
    7.4403   -6.9298    1.0543 H   0  0  0  0  0  0  0  0  0  0  0  0
    1.6705   -5.0314    2.1525 H   0  0  0  0  0  0  0  0  0  0  0  0
    3.3764   -4.7780    2.3937 H   0  0  0  0  0  0  0  0  0  0  0  0
    3.7323   -5.2869   -0.0435 H   0  0  0  0  0  0  0  0  0  0  0  0
    2.0013   -5.3503   -0.2808 H   0  0  0  0  0  0  0  0  0  0  0  0
    1.8467   -2.9038    0.3669 H   0  0  0  0  0  0  0  0  0  0  0  0
    3.5159   -2.8875    0.8133 H   0  0  0  0  0  0  0  0  0  0  0  0
    5.2949   -3.3063   -1.0392 H   0  0  0  0  0  0  0  0  0  0  0  0
    4.4451   -4.6344   -1.7922 H   0  0  0  0  0  0  0  0  0  0  0  0
    5.0659   -2.0346   -3.2074 H   0  0  0  0  0  0  0  0  0  0  0  0
    5.7126   -3.6529   -3.4886 H   0  0  0  0  0  0  0  0  0  0  0  0
    2.6656   -1.6975   -3.7233 H   0  0  0  0  0  0  0  0  0  0  0  0
    1.7479   -3.0560   -4.3566 H   0  0  0  0  0  0  0  0  0  0  0  0
    1.8251   -4.2542   -2.2701 H   0  0  0  0  0  0  0  0  0  0  0  0
    1.2260   -2.6630   -1.9682 H   0  0  0  0  0  0  0  0  0  0  0  0
   -0.4729  -10.7170    3.6965 H   0  0  0  0  0  0  0  0  0  0  0  0
    3.3040   -1.9594   -1.2574 H   0  0  0  0  0  0  0  0  0  0  0  0
  1  2  1  0
  1 25  1  0
  1 43  1  0
  2  6  1  0
  2  3  2  0
  3  4  1  0
  4  5  1  0
  5  6  2  0
  6  7  1  0
  7 15  1  0
  7  8  2  0
  8  9  1  0
  9 14  2  0
  9 10  1  0
 10 11  2  0
 10 26  1  0
 11 12  1  0
 11 27  1  0
 12 13  2  0
 12 28  1  0
 13 14  1  0
 14 15  1  0
 15 16  1  0
 16 17  1  0
 16 29  1  0
 16 30  1  0
 17 18  1  0
 17 31  1  0
 17 32  1  0
 18 19  1  0
 18 33  1  0
 18 34  1  0
 19 24  1  0
 19 20  1  0
 19 44  1  0
 20 21  1  0
 20 35  1  0
 20 36  1  0
 21 22  1  0
 21 37  1  0
 21 38  1  0
 22 23  1  0
 23 24  1  0
 23 39  1  0
 23 40  1  0
 24 41  1  0
 24 42  1  0
M  CHG  1  19   1
M  END
>  <i_m_ct_stereo_status>  (41) 
1

>  <s_m_source_file>  (41) 
/var/tmp/pbs.5076255.sched01/tmphrtf3o8j/0_qqz9eae.sdf

>  <i_m_source_file_index>  (41) 
21

>  <i_lp_mmshare_version>  (41) 
48012

>  <i_f3d_flags>  (41) 
0

>  <s_epik_input>  (41) 
W0hdL049YzFcW25IXW9uYzEtYyhuMiluKGMoYzIzKW5bY0hdW2NIXVtjSF0zKVtDSDJdW0NIMl1bQ0gyXU40W0NIMl1bQ0gyXU9bQ0gyXVtDSDJdNA==

>  <s_epik_cmdline>  (41) 
J2VwaWtfcHl0aG9uJywgJy1waHQnLCAnMi4wJywgJy1waCcsICc3LjAnLCAnLXRuJywgJzgnLCAnLW1hJywgJzIwMCcsICctaW1hZScsICc8aW5maWxlLm1hZT4nLCAnLW9tYWUnLCAnPG91dGZpbGUubWFlPic=

>  <r_lp_tautomer_probability>  (41) 
1

>  <r_epik_Ionization_Penalty>  (41) 
0.347025

>  <r_epik_Ionization_Penalty_Charging>  (41) 
0.347012

>  <r_epik_Ionization_Penalty_Neutral>  (41) 
1.27241e-05

>  <r_epik_State_Penalty>  (41) 
0.343006

>  <r_epik_Charging_Adjusted_Penalty>  (41) 
0.690019

>  <i_epik_Tot_Q>  (41) 
1

>  <i_epik_Tot_abs_Q>  (41) 
1

>  <s_lp_Force_Field>  (41) 
OPLS3e

>  <r_lp_Energy>  (41) 
28.2924

>  <b_lp_Chiralities_Consistent>  (41) 
1

>  <s_lp_Variant>  (41) 
17:0-1

>  <s_i_glide_gridfile>  (41) 
pfpi4k_grid

>  <i_i_glide_lignum>  (41) 
21

>  <i_i_glide_rotatable_bonds>  (41) 
5

>  <r_i_docking_score>  (41) 
-4.21796

>  <r_i_glide_ligand_efficiency>  (41) 
-0.175748

>  <r_i_glide_ligand_efficiency_sa>  (41) 
-0.506946

>  <r_i_glide_ligand_efficiency_ln>  (41) 
-1.00955

>  <r_i_glide_gscore>  (41) 
-4.21796

>  <r_i_glide_lipo>  (41) 
-0.810943

>  <r_i_glide_hbond>  (41) 
-0.104867

>  <r_i_glide_metal>  (41) 
-0

>  <r_i_glide_rewards>  (41) 
-1.25756

>  <r_i_glide_evdw>  (41) 
-31.0874

>  <r_i_glide_ecoul>  (41) 
-5.98898

>  <r_i_glide_erotb>  (41) 
0.689279

>  <r_i_glide_esite>  (41) 
-0.28116

>  <r_i_glide_emodel>  (41) 
-46.7288

>  <r_i_glide_energy>  (41) 
-37.0764

>  <r_i_glide_einternal>  (41) 
5.6297

>  <r_i_glide_intrahb_reward>  (41) 
-0

>  <i_i_glide_confnum>  (41) 
5

>  <i_i_glide_posenum>  (41) 
1

>  <r_i_glide_eff_state_penalty>  (41) 
0

>  <ligand_id>  (41) 
17

>  <original_smiles>  (41) 
N=c1[nH]onc1-c1nc2cccnc2n1CCCN1CCOCC1

>  <smiles>  (41) 
[H]c1nc2c(nc(-c3nonc3N([H])[H])n2C([H])([H])C([H])([H])C([H])([H])[N+]2([H])C([H])([H])C([H])([H])OC([H])([H])C2([H])[H])c([H])c1[H]

$$$$
17:0:2
     RDKit          3D

 44 47  0  0  1  0  0  0  0  0999 V2000
    0.3665   -9.5759    4.0759 N   0  0  0  0  0  0  0  0  0  0  0  0
    0.0961   -8.5005    3.2169 C   0  0  0  0  0  0  0  0  0  0  0  0
   -1.1406   -8.1347    2.9609 N   0  0  0  0  0  0  0  0  0  0  0  0
   -0.9891   -7.0610    2.0789 O   0  0  0  0  0  0  0  0  0  0  0  0
    0.3565   -6.7691    1.8404 N   0  0  0  0  0  0  0  0  0  0  0  0
    1.0294   -7.6641    2.5202 C   0  0  0  0  0  0  0  0  0  0  0  0
    2.5101   -7.7438    2.4899 C   0  0  0  0  0  0  0  0  0  0  0  0
    3.1331   -8.4936    3.4019 N   0  0  0  0  0  0  0  0  0  0  0  0
    4.4632   -8.3417    3.0943 C   0  0  0  0  0  0  0  0  0  0  0  0
    5.6414   -8.8713    3.6664 C   0  0  0  0  0  0  0  0  0  0  0  0
    6.8870   -8.5199    3.1098 C   0  0  0  0  0  0  0  0  0  0  0  0
    6.9287   -7.6462    2.0052 C   0  0  0  0  0  0  0  0  0  0  0  0
    5.8279   -7.1010    1.4169 N   0  0  0  0  0  0  0  0  0  0  0  0
    4.6383   -7.4748    1.9753 C   0  0  0  0  0  0  0  0  0  0  0  0
    3.3495   -7.1186    1.5927 N   0  0  0  0  0  0  0  0  0  0  0  0
    3.0443   -6.2438    0.4659 C   0  0  0  0  0  0  0  0  0  0  0  0
    3.1754   -4.7925    0.8763 C   0  0  0  0  0  0  0  0  0  0  0  0
    2.8181   -3.7837   -0.2461 C   0  0  0  0  0  0  0  0  0  0  0  0
    3.0475   -2.3549    0.1580 N   0  0  0  0  0  0  0  0  0  0  0  0
    2.4811   -1.9909    1.4848 C   0  0  0  0  0  0  0  0  0  0  0  0
    2.7340   -0.5236    1.8193 C   0  0  0  0  0  0  0  0  0  0  0  0
    4.1365   -0.3040    1.7720 O   0  0  0  0  0  0  0  0  0  0  0  0
    4.6787   -0.5110    0.4786 C   0  0  0  0  0  0  0  0  0  0  0  0
    4.4771   -1.9689    0.0559 C   0  0  0  0  0  0  0  0  0  0  0  0
    1.3217   -9.8603    4.2784 H   0  0  0  0  0  0  0  0  0  0  0  0
    5.5674   -9.5383    4.5138 H   0  0  0  0  0  0  0  0  0  0  0  0
    7.8066   -8.9220    3.5252 H   0  0  0  0  0  0  0  0  0  0  0  0
    7.8800   -7.3797    1.5689 H   0  0  0  0  0  0  0  0  0  0  0  0
    3.7611   -6.4589   -0.3218 H   0  0  0  0  0  0  0  0  0  0  0  0
    2.0504   -6.4133    0.0628 H   0  0  0  0  0  0  0  0  0  0  0  0
    2.5106   -4.6669    1.7302 H   0  0  0  0  0  0  0  0  0  0  0  0
    4.1964   -4.6275    1.2206 H   0  0  0  0  0  0  0  0  0  0  0  0
    3.3720   -4.0075   -1.1636 H   0  0  0  0  0  0  0  0  0  0  0  0
    1.7748   -3.9077   -0.5371 H   0  0  0  0  0  0  0  0  0  0  0  0
    1.4151   -2.2161    1.5129 H   0  0  0  0  0  0  0  0  0  0  0  0
    2.9589   -2.5368    2.2994 H   0  0  0  0  0  0  0  0  0  0  0  0
    2.1890    0.1525    1.1642 H   0  0  0  0  0  0  0  0  0  0  0  0
    2.3964   -0.3504    2.8403 H   0  0  0  0  0  0  0  0  0  0  0  0
    4.2145    0.1583   -0.2381 H   0  0  0  0  0  0  0  0  0  0  0  0
    5.7431   -0.2835    0.4977 H   0  0  0  0  0  0  0  0  0  0  0  0
    5.0779   -2.5985    0.7110 H   0  0  0  0  0  0  0  0  0  0  0  0
    4.8427   -2.1267   -0.9586 H   0  0  0  0  0  0  0  0  0  0  0  0
   -0.3790  -10.1165    4.5081 H   0  0  0  0  0  0  0  0  0  0  0  0
    2.5165   -1.7809   -0.5002 H   0  0  0  0  0  0  0  0  0  0  0  0
  1  2  1  0
  1 25  1  0
  1 43  1  0
  2  6  1  0
  2  3  2  0
  3  4  1  0
  4  5  1  0
  5  6  2  0
  6  7  1  0
  7 15  1  0
  7  8  2  0
  8  9  1  0
  9 14  2  0
  9 10  1  0
 10 11  2  0
 10 26  1  0
 11 12  1  0
 11 27  1  0
 12 13  2  0
 12 28  1  0
 13 14  1  0
 14 15  1  0
 15 16  1  0
 16 17  1  0
 16 29  1  0
 16 30  1  0
 17 18  1  0
 17 31  1  0
 17 32  1  0
 18 19  1  0
 18 33  1  0
 18 34  1  0
 19 24  1  0
 19 20  1  0
 19 44  1  0
 20 21  1  0
 20 35  1  0
 20 36  1  0
 21 22  1  0
 21 37  1  0
 21 38  1  0
 22 23  1  0
 23 24  1  0
 23 39  1  0
 23 40  1  0
 24 41  1  0
 24 42  1  0
M  CHG  1  19   1
M  END
>  <i_m_ct_stereo_status>  (42) 
1

>  <s_m_source_file>  (42) 
/var/tmp/pbs.5076255.sched01/tmphrtf3o8j/0_qqz9eae.sdf

>  <i_m_source_file_index>  (42) 
21

>  <i_lp_mmshare_version>  (42) 
48012

>  <i_f3d_flags>  (42) 
0

>  <s_epik_input>  (42) 
W0hdL049YzFcW25IXW9uYzEtYyhuMiluKGMoYzIzKW5bY0hdW2NIXVtjSF0zKVtDSDJdW0NIMl1bQ0gyXU40W0NIMl1bQ0gyXU9bQ0gyXVtDSDJdNA==

>  <s_epik_cmdline>  (42) 
J2VwaWtfcHl0aG9uJywgJy1waHQnLCAnMi4wJywgJy1waCcsICc3LjAnLCAnLXRuJywgJzgnLCAnLW1hJywgJzIwMCcsICctaW1hZScsICc8aW5maWxlLm1hZT4nLCAnLW9tYWUnLCAnPG91dGZpbGUubWFlPic=

>  <r_lp_tautomer_probability>  (42) 
1

>  <r_epik_Ionization_Penalty>  (42) 
0.347025

>  <r_epik_Ionization_Penalty_Charging>  (42) 
0.347012

>  <r_epik_Ionization_Penalty_Neutral>  (42) 
1.27241e-05

>  <r_epik_State_Penalty>  (42) 
0.343006

>  <r_epik_Charging_Adjusted_Penalty>  (42) 
0.690019

>  <i_epik_Tot_Q>  (42) 
1

>  <i_epik_Tot_abs_Q>  (42) 
1

>  <s_lp_Force_Field>  (42) 
OPLS3e

>  <r_lp_Energy>  (42) 
28.2924

>  <b_lp_Chiralities_Consistent>  (42) 
1

>  <s_lp_Variant>  (42) 
17:0-1

>  <s_i_glide_gridfile>  (42) 
pfpi4k_grid

>  <i_i_glide_lignum>  (42) 
21

>  <i_i_glide_rotatable_bonds>  (42) 
5

>  <r_i_docking_score>  (42) 
-3.97195

>  <r_i_glide_ligand_efficiency>  (42) 
-0.165498

>  <r_i_glide_ligand_efficiency_sa>  (42) 
-0.477379

>  <r_i_glide_ligand_efficiency_ln>  (42) 
-0.95067

>  <r_i_glide_gscore>  (42) 
-3.97195

>  <r_i_glide_lipo>  (42) 
-0.247693

>  <r_i_glide_hbond>  (42) 
-0.290892

>  <r_i_glide_metal>  (42) 
-0

>  <r_i_glide_rewards>  (42) 
-1.27762

>  <r_i_glide_evdw>  (42) 
-25.0629

>  <r_i_glide_ecoul>  (42) 
-8.1465

>  <r_i_glide_erotb>  (42) 
0.689279

>  <r_i_glide_esite>  (42) 
-0.369904

>  <r_i_glide_emodel>  (42) 
-42.8316

>  <r_i_glide_energy>  (42) 
-33.2094

>  <r_i_glide_einternal>  (42) 
4.67749

>  <r_i_glide_intrahb_reward>  (42) 
-0

>  <i_i_glide_confnum>  (42) 
4

>  <i_i_glide_posenum>  (42) 
21

>  <r_i_glide_eff_state_penalty>  (42) 
0

>  <ligand_id>  (42) 
17

>  <original_smiles>  (42) 
N=c1[nH]onc1-c1nc2cccnc2n1CCCN1CCOCC1

>  <smiles>  (42) 
[H]c1nc2c(nc(-c3nonc3N([H])[H])n2C([H])([H])C([H])([H])C([H])([H])[N+]2([H])C([H])([H])C([H])([H])OC([H])([H])C2([H])[H])c([H])c1[H]

$$$$
17:1:0
     RDKit          3D

 43 46  0  0  1  0  0  0  0  0999 V2000
    0.0536   -9.9613    3.6974 N   0  0  0  0  0  0  0  0  0  0  0  0
   -0.1062   -8.7762    2.9711 C   0  0  0  0  0  0  0  0  0  0  0  0
   -1.2715   -8.1933    2.8699 N   0  0  0  0  0  0  0  0  0  0  0  0
   -1.0213   -7.0600    2.0971 O   0  0  0  0  0  0  0  0  0  0  0  0
    0.3326   -6.9698    1.7557 N   0  0  0  0  0  0  0  0  0  0  0  0
    0.8972   -8.0314    2.2801 C   0  0  0  0  0  0  0  0  0  0  0  0
    2.3487   -8.3111    2.1458 C   0  0  0  0  0  0  0  0  0  0  0  0
    2.8509   -9.4228    2.7030 N   0  0  0  0  0  0  0  0  0  0  0  0
    4.1968   -9.3514    2.4302 C   0  0  0  0  0  0  0  0  0  0  0  0
    5.2729  -10.2067    2.7509 C   0  0  0  0  0  0  0  0  0  0  0  0
    6.5701   -9.8411    2.3428 C   0  0  0  0  0  0  0  0  0  0  0  0
    6.7487   -8.6394    1.6258 C   0  0  0  0  0  0  0  0  0  0  0  0
    5.7455   -7.7973    1.2798 N   0  0  0  0  0  0  0  0  0  0  0  0
    4.5032   -8.1814    1.6947 C   0  0  0  0  0  0  0  0  0  0  0  0
    3.2873   -7.5313    1.5105 N   0  0  0  0  0  0  0  0  0  0  0  0
    3.1449   -6.2591    0.7937 C   0  0  0  0  0  0  0  0  0  0  0  0
    3.4922   -5.0722    1.7073 C   0  0  0  0  0  0  0  0  0  0  0  0
    3.3073   -3.7222    0.9905 C   0  0  0  0  0  0  0  0  0  0  0  0
    4.2901   -3.4656   -0.0621 N   0  0  0  0  0  0  0  0  0  0  0  0
    3.8915   -2.3545   -0.9238 C   0  0  0  0  0  0  0  0  0  0  0  0
    4.9360   -2.0913   -2.0251 C   0  0  0  0  0  0  0  0  0  0  0  0
    6.2159   -1.8536   -1.4434 O   0  0  0  0  0  0  0  0  0  0  0  0
    6.6514   -2.9306   -0.6219 C   0  0  0  0  0  0  0  0  0  0  0  0
    5.6199   -3.1960    0.4818 C   0  0  0  0  0  0  0  0  0  0  0  0
    0.9608  -10.3898    3.8077 H   0  0  0  0  0  0  0  0  0  0  0  0
    5.0942  -11.1202    3.3017 H   0  0  0  0  0  0  0  0  0  0  0  0
    7.4151  -10.4768    2.5691 H   0  0  0  0  0  0  0  0  0  0  0  0
    7.7373   -8.3434    1.2973 H   0  0  0  0  0  0  0  0  0  0  0  0
    3.8188   -6.2841   -0.0643 H   0  0  0  0  0  0  0  0  0  0  0  0
    2.1539   -6.1444    0.3570 H   0  0  0  0  0  0  0  0  0  0  0  0
    2.8495   -5.0871    2.5893 H   0  0  0  0  0  0  0  0  0  0  0  0
    4.5110   -5.1849    2.0874 H   0  0  0  0  0  0  0  0  0  0  0  0
    2.2991   -3.6889    0.5729 H   0  0  0  0  0  0  0  0  0  0  0  0
    3.3419   -2.9098    1.7196 H   0  0  0  0  0  0  0  0  0  0  0  0
    2.9303   -2.5750   -1.3903 H   0  0  0  0  0  0  0  0  0  0  0  0
    3.7459   -1.4505   -0.3300 H   0  0  0  0  0  0  0  0  0  0  0  0
    5.0013   -2.9429   -2.7050 H   0  0  0  0  0  0  0  0  0  0  0  0
    4.6520   -1.2229   -2.6184 H   0  0  0  0  0  0  0  0  0  0  0  0
    6.7961   -3.8267   -1.2272 H   0  0  0  0  0  0  0  0  0  0  0  0
    7.6140   -2.6824   -0.1759 H   0  0  0  0  0  0  0  0  0  0  0  0
    5.5765   -2.3417    1.1601 H   0  0  0  0  0  0  0  0  0  0  0  0
    5.9769   -4.0442    1.0636 H   0  0  0  0  0  0  0  0  0  0  0  0
   -0.7148  -10.3817    4.2203 H   0  0  0  0  0  0  0  0  0  0  0  0
  1  2  1  0
  1 25  1  0
  1 43  1  0
  2  6  1  0
  2  3  2  0
  3  4  1  0
  4  5  1  0
  5  6  2  0
  6  7  1  0
  7 15  1  0
  7  8  2  0
  8  9  1  0
  9 14  2  0
  9 10  1  0
 10 11  2  0
 10 26  1  0
 11 12  1  0
 11 27  1  0
 12 13  2  0
 12 28  1  0
 13 14  1  0
 14 15  1  0
 15 16  1  0
 16 17  1  0
 16 29  1  0
 16 30  1  0
 17 18  1  0
 17 31  1  0
 17 32  1  0
 18 19  1  0
 18 33  1  0
 18 34  1  0
 19 24  1  0
 19 20  1  0
 20 21  1  0
 20 35  1  0
 20 36  1  0
 21 22  1  0
 21 37  1  0
 21 38  1  0
 22 23  1  0
 23 24  1  0
 23 39  1  0
 23 40  1  0
 24 41  1  0
 24 42  1  0
M  END
>  <i_m_ct_stereo_status>  (43) 
1

>  <s_m_source_file>  (43) 
/var/tmp/pbs.5076255.sched01/tmphrtf3o8j/0_qqz9eae.sdf

>  <i_m_source_file_index>  (43) 
22

>  <i_lp_mmshare_version>  (43) 
48012

>  <i_f3d_flags>  (43) 
0

>  <s_epik_input>  (43) 
W0hdL049YzFcW25IXW9uYzEtYyhuMiluKGMoYzIzKW5bY0hdW2NIXVtjSF0zKVtDSDJdW0NIMl1bQ0gyXU40W0NIMl1bQ0gyXU9bQ0gyXVtDSDJdNA==

>  <s_epik_cmdline>  (43) 
J2VwaWtfcHl0aG9uJywgJy1waHQnLCAnMi4wJywgJy1waCcsICc3LjAnLCAnLXRuJywgJzgnLCAnLW1hJywgJzIwMCcsICctaW1hZScsICc8aW5maWxlLm1hZT4nLCAnLW9tYWUnLCAnPG91dGZpbGUubWFlPic=

>  <r_lp_tautomer_probability>  (43) 
1

>  <r_epik_Ionization_Penalty>  (43) 
0.482052

>  <r_epik_Ionization_Penalty_Charging>  (43) 
7.26722e-06

>  <r_epik_Ionization_Penalty_Neutral>  (43) 
0.482045

>  <r_epik_State_Penalty>  (43) 
0.487092

>  <r_epik_Charging_Adjusted_Penalty>  (43) 
0.487099

>  <i_epik_Tot_Q>  (43) 
0

>  <i_epik_Tot_abs_Q>  (43) 
0

>  <s_lp_Force_Field>  (43) 
OPLS3e

>  <r_lp_Energy>  (43) 
25.3303

>  <b_lp_Chiralities_Consistent>  (43) 
1

>  <s_lp_Variant>  (43) 
17:0-2

>  <s_i_glide_gridfile>  (43) 
pfpi4k_grid

>  <i_i_glide_lignum>  (43) 
22

>  <i_i_glide_rotatable_bonds>  (43) 
5

>  <r_i_docking_score>  (43) 
-3.51575

>  <r_i_glide_ligand_efficiency>  (43) 
-0.14649

>  <r_i_glide_ligand_efficiency_sa>  (43) 
-0.42255

>  <r_i_glide_ligand_efficiency_ln>  (43) 
-0.841481

>  <r_i_glide_gscore>  (43) 
-3.51575

>  <r_i_glide_lipo>  (43) 
-0.199669

>  <r_i_glide_hbond>  (43) 
-0.305044

>  <r_i_glide_metal>  (43) 
-0

>  <r_i_glide_rewards>  (43) 
-1.2274

>  <r_i_glide_evdw>  (43) 
-28.089

>  <r_i_glide_ecoul>  (43) 
-5.11771

>  <r_i_glide_erotb>  (43) 
0.693012

>  <r_i_glide_esite>  (43) 
-0.304545

>  <r_i_glide_emodel>  (43) 
-39.7553

>  <r_i_glide_energy>  (43) 
-33.2067

>  <r_i_glide_einternal>  (43) 
3.04772

>  <r_i_glide_intrahb_reward>  (43) 
-0

>  <i_i_glide_confnum>  (43) 
3

>  <i_i_glide_posenum>  (43) 
25

>  <r_i_glide_eff_state_penalty>  (43) 
0

>  <ligand_id>  (43) 
17

>  <original_smiles>  (43) 
N=c1[nH]onc1-c1nc2cccnc2n1CCCN1CCOCC1

>  <smiles>  (43) 
[H]c1nc2c(nc(-c3nonc3N([H])[H])n2C([H])([H])C([H])([H])C([H])([H])N2C([H])([H])C([H])([H])OC([H])([H])C2([H])[H])c([H])c1[H]

$$$$
17:1:1
     RDKit          3D

 43 46  0  0  1  0  0  0  0  0999 V2000
   -0.0009   -9.8795    3.8561 N   0  0  0  0  0  0  0  0  0  0  0  0
   -0.1404   -8.7398    3.0609 C   0  0  0  0  0  0  0  0  0  0  0  0
   -1.3000   -8.1506    2.9106 N   0  0  0  0  0  0  0  0  0  0  0  0
   -1.0215   -7.0538    2.0872 O   0  0  0  0  0  0  0  0  0  0  0  0
    0.3374   -7.0042    1.7617 N   0  0  0  0  0  0  0  0  0  0  0  0
    0.8764   -8.0458    2.3444 C   0  0  0  0  0  0  0  0  0  0  0  0
    2.3220   -8.3634    2.2323 C   0  0  0  0  0  0  0  0  0  0  0  0
    2.8186   -9.4118    2.9047 N   0  0  0  0  0  0  0  0  0  0  0  0
    4.1632   -9.3906    2.6149 C   0  0  0  0  0  0  0  0  0  0  0  0
    5.2329  -10.2139    3.0302 C   0  0  0  0  0  0  0  0  0  0  0  0
    6.5297   -9.9140    2.5671 C   0  0  0  0  0  0  0  0  0  0  0  0
    6.7123   -8.8113    1.7078 C   0  0  0  0  0  0  0  0  0  0  0  0
    5.7159   -8.0008    1.2764 N   0  0  0  0  0  0  0  0  0  0  0  0
    4.4729   -8.3169    1.7470 C   0  0  0  0  0  0  0  0  0  0  0  0
    3.2587   -7.6762    1.5003 N   0  0  0  0  0  0  0  0  0  0  0  0
    3.1155   -6.4985    0.6350 C   0  0  0  0  0  0  0  0  0  0  0  0
    3.5862   -5.2330    1.3534 C   0  0  0  0  0  0  0  0  0  0  0  0
    3.3366   -3.9541    0.5271 C   0  0  0  0  0  0  0  0  0  0  0  0
    4.1052   -2.7931    0.9755 N   0  0  0  0  0  0  0  0  0  0  0  0
    5.5412   -2.9716    0.7510 C   0  0  0  0  0  0  0  0  0  0  0  0
    6.3539   -1.7503    1.1926 C   0  0  0  0  0  0  0  0  0  0  0  0
    5.8865   -0.5991    0.5003 O   0  0  0  0  0  0  0  0  0  0  0  0
    4.5049   -0.3485    0.7440 C   0  0  0  0  0  0  0  0  0  0  0  0
    3.6699   -1.5662    0.3042 C   0  0  0  0  0  0  0  0  0  0  0  0
    0.8939  -10.3376    3.9637 H   0  0  0  0  0  0  0  0  0  0  0  0
    5.0524  -11.0451    3.6939 H   0  0  0  0  0  0  0  0  0  0  0  0
    7.3732  -10.5227    2.8650 H   0  0  0  0  0  0  0  0  0  0  0  0
    7.7013   -8.5666    1.3390 H   0  0  0  0  0  0  0  0  0  0  0  0
    3.7398   -6.6556   -0.2487 H   0  0  0  0  0  0  0  0  0  0  0  0
    2.1028   -6.3734    0.2554 H   0  0  0  0  0  0  0  0  0  0  0  0
    3.0987   -5.1280    2.3267 H   0  0  0  0  0  0  0  0  0  0  0  0
    4.6470   -5.3850    1.5524 H   0  0  0  0  0  0  0  0  0  0  0  0
    3.5436   -4.1412   -0.5300 H   0  0  0  0  0  0  0  0  0  0  0  0
    2.2708   -3.7186    0.5756 H   0  0  0  0  0  0  0  0  0  0  0  0
    5.9251   -3.8206    1.3143 H   0  0  0  0  0  0  0  0  0  0  0  0
    5.7238   -3.1762   -0.3061 H   0  0  0  0  0  0  0  0  0  0  0  0
    6.2713   -1.6108    2.2729 H   0  0  0  0  0  0  0  0  0  0  0  0
    7.4066   -1.9126    0.9650 H   0  0  0  0  0  0  0  0  0  0  0  0
    4.3464   -0.1322    1.8018 H   0  0  0  0  0  0  0  0  0  0  0  0
    4.2117    0.5391    0.1896 H   0  0  0  0  0  0  0  0  0  0  0  0
    3.7539   -1.6844   -0.7771 H   0  0  0  0  0  0  0  0  0  0  0  0
    2.6152   -1.3733    0.5101 H   0  0  0  0  0  0  0  0  0  0  0  0
   -0.7905  -10.3041    4.3451 H   0  0  0  0  0  0  0  0  0  0  0  0
  1  2  1  0
  1 25  1  0
  1 43  1  0
  2  6  1  0
  2  3  2  0
  3  4  1  0
  4  5  1  0
  5  6  2  0
  6  7  1  0
  7 15  1  0
  7  8  2  0
  8  9  1  0
  9 14  2  0
  9 10  1  0
 10 11  2  0
 10 26  1  0
 11 12  1  0
 11 27  1  0
 12 13  2  0
 12 28  1  0
 13 14  1  0
 14 15  1  0
 15 16  1  0
 16 17  1  0
 16 29  1  0
 16 30  1  0
 17 18  1  0
 17 31  1  0
 17 32  1  0
 18 19  1  0
 18 33  1  0
 18 34  1  0
 19 24  1  0
 19 20  1  0
 20 21  1  0
 20 35  1  0
 20 36  1  0
 21 22  1  0
 21 37  1  0
 21 38  1  0
 22 23  1  0
 23 24  1  0
 23 39  1  0
 23 40  1  0
 24 41  1  0
 24 42  1  0
M  END
>  <i_m_ct_stereo_status>  (44) 
1

>  <s_m_source_file>  (44) 
/var/tmp/pbs.5076255.sched01/tmphrtf3o8j/0_qqz9eae.sdf

>  <i_m_source_file_index>  (44) 
22

>  <i_lp_mmshare_version>  (44) 
48012

>  <i_f3d_flags>  (44) 
0

>  <s_epik_input>  (44) 
W0hdL049YzFcW25IXW9uYzEtYyhuMiluKGMoYzIzKW5bY0hdW2NIXVtjSF0zKVtDSDJdW0NIMl1bQ0gyXU40W0NIMl1bQ0gyXU9bQ0gyXVtDSDJdNA==

>  <s_epik_cmdline>  (44) 
J2VwaWtfcHl0aG9uJywgJy1waHQnLCAnMi4wJywgJy1waCcsICc3LjAnLCAnLXRuJywgJzgnLCAnLW1hJywgJzIwMCcsICctaW1hZScsICc8aW5maWxlLm1hZT4nLCAnLW9tYWUnLCAnPG91dGZpbGUubWFlPic=

>  <r_lp_tautomer_probability>  (44) 
1

>  <r_epik_Ionization_Penalty>  (44) 
0.482052

>  <r_epik_Ionization_Penalty_Charging>  (44) 
7.26722e-06

>  <r_epik_Ionization_Penalty_Neutral>  (44) 
0.482045

>  <r_epik_State_Penalty>  (44) 
0.487092

>  <r_epik_Charging_Adjusted_Penalty>  (44) 
0.487099

>  <i_epik_Tot_Q>  (44) 
0

>  <i_epik_Tot_abs_Q>  (44) 
0

>  <s_lp_Force_Field>  (44) 
OPLS3e

>  <r_lp_Energy>  (44) 
25.3303

>  <b_lp_Chiralities_Consistent>  (44) 
1

>  <s_lp_Variant>  (44) 
17:0-2

>  <s_i_glide_gridfile>  (44) 
pfpi4k_grid

>  <i_i_glide_lignum>  (44) 
22

>  <i_i_glide_rotatable_bonds>  (44) 
5

>  <r_i_docking_score>  (44) 
-3.42711

>  <r_i_glide_ligand_efficiency>  (44) 
-0.142796

>  <r_i_glide_ligand_efficiency_sa>  (44) 
-0.411895

>  <r_i_glide_ligand_efficiency_ln>  (44) 
-0.820264

>  <r_i_glide_gscore>  (44) 
-3.42711

>  <r_i_glide_lipo>  (44) 
-0.42918

>  <r_i_glide_hbond>  (44) 
-0.16

>  <r_i_glide_metal>  (44) 
-0

>  <r_i_glide_rewards>  (44) 
-1.19898

>  <r_i_glide_evdw>  (44) 
-26.6848

>  <r_i_glide_ecoul>  (44) 
-4.55949

>  <r_i_glide_erotb>  (44) 
0.693012

>  <r_i_glide_esite>  (44) 
-0.313796

>  <r_i_glide_emodel>  (44) 
-38.7264

>  <r_i_glide_energy>  (44) 
-31.2443

>  <r_i_glide_einternal>  (44) 
0.621409

>  <r_i_glide_intrahb_reward>  (44) 
-0

>  <i_i_glide_confnum>  (44) 
3

>  <i_i_glide_posenum>  (44) 
11

>  <r_i_glide_eff_state_penalty>  (44) 
0

>  <ligand_id>  (44) 
17

>  <original_smiles>  (44) 
N=c1[nH]onc1-c1nc2cccnc2n1CCCN1CCOCC1

>  <smiles>  (44) 
[H]c1nc2c(nc(-c3nonc3N([H])[H])n2C([H])([H])C([H])([H])C([H])([H])N2C([H])([H])C([H])([H])OC([H])([H])C2([H])[H])c([H])c1[H]

$$$$
17:1:2
     RDKit          3D

 43 46  0  0  1  0  0  0  0  0999 V2000
    3.8529   -0.1680    1.1560 N   0  0  0  0  0  0  0  0  0  0  0  0
    3.4395   -1.4103    1.6553 C   0  0  0  0  0  0  0  0  0  0  0  0
    4.1086   -2.4989    1.3903 N   0  0  0  0  0  0  0  0  0  0  0  0
    3.4334   -3.5055    2.0883 O   0  0  0  0  0  0  0  0  0  0  0  0
    2.3302   -2.9697    2.7723 N   0  0  0  0  0  0  0  0  0  0  0  0
    2.3288   -1.6833    2.5106 C   0  0  0  0  0  0  0  0  0  0  0  0
    1.3304   -0.7409    3.0880 C   0  0  0  0  0  0  0  0  0  0  0  0
    1.3594    0.5472    2.7014 N   0  0  0  0  0  0  0  0  0  0  0  0
    0.3350    1.1380    3.4065 C   0  0  0  0  0  0  0  0  0  0  0  0
   -0.1453    2.4692    3.4540 C   0  0  0  0  0  0  0  0  0  0  0  0
   -1.2144    2.7727    4.3210 C   0  0  0  0  0  0  0  0  0  0  0  0
   -1.7792    1.7363    5.0946 C   0  0  0  0  0  0  0  0  0  0  0  0
   -1.3798    0.4444    5.0577 N   0  0  0  0  0  0  0  0  0  0  0  0
   -0.3210    0.1894    4.2263 C   0  0  0  0  0  0  0  0  0  0  0  0
    0.3556   -1.0188    4.0131 N   0  0  0  0  0  0  0  0  0  0  0  0
   -0.0117   -2.2796    4.6741 C   0  0  0  0  0  0  0  0  0  0  0  0
    0.1090   -2.1909    6.2014 C   0  0  0  0  0  0  0  0  0  0  0  0
   -0.3873   -3.4642    6.9003 C   0  0  0  0  0  0  0  0  0  0  0  0
   -0.5825   -3.2817    8.3359 N   0  0  0  0  0  0  0  0  0  0  0  0
   -1.3940   -4.3489    8.9129 C   0  0  0  0  0  0  0  0  0  0  0  0
   -1.5841   -4.1642   10.4290 C   0  0  0  0  0  0  0  0  0  0  0  0
   -0.3112   -4.0897   11.0605 O   0  0  0  0  0  0  0  0  0  0  0  0
    0.4892   -3.0213   10.5652 C   0  0  0  0  0  0  0  0  0  0  0  0
    0.6893   -3.1930    9.0505 C   0  0  0  0  0  0  0  0  0  0  0  0
    3.3052    0.6621    1.3328 H   0  0  0  0  0  0  0  0  0  0  0  0
    0.3075    3.2387    2.8414 H   0  0  0  0  0  0  0  0  0  0  0  0
   -1.5976    3.7782    4.3908 H   0  0  0  0  0  0  0  0  0  0  0  0
   -2.5800    1.9615    5.7863 H   0  0  0  0  0  0  0  0  0  0  0  0
   -1.0283   -2.5117    4.3749 H   0  0  0  0  0  0  0  0  0  0  0  0
    0.5833   -3.1280    4.3579 H   0  0  0  0  0  0  0  0  0  0  0  0
    1.1506   -1.9871    6.4592 H   0  0  0  0  0  0  0  0  0  0  0  0
   -0.4815   -1.3599    6.5907 H   0  0  0  0  0  0  0  0  0  0  0  0
   -1.3398   -3.7411    6.4462 H   0  0  0  0  0  0  0  0  0  0  0  0
    0.2943   -4.2987    6.7083 H   0  0  0  0  0  0  0  0  0  0  0  0
   -2.3717   -4.3703    8.4305 H   0  0  0  0  0  0  0  0  0  0  0  0
   -0.9259   -5.3133    8.7161 H   0  0  0  0  0  0  0  0  0  0  0  0
   -2.1603   -3.2635   10.6473 H   0  0  0  0  0  0  0  0  0  0  0  0
   -2.1358   -5.0032   10.8489 H   0  0  0  0  0  0  0  0  0  0  0  0
    0.0187   -2.0623   10.7880 H   0  0  0  0  0  0  0  0  0  0  0  0
    1.4527   -3.0329   11.0727 H   0  0  0  0  0  0  0  0  0  0  0  0
    1.2787   -4.0940    8.8648 H   0  0  0  0  0  0  0  0  0  0  0  0
    1.2794   -2.3529    8.6783 H   0  0  0  0  0  0  0  0  0  0  0  0
    4.6207   -0.0829    0.5067 H   0  0  0  0  0  0  0  0  0  0  0  0
  1  2  1  0
  1 25  1  0
  1 43  1  0
  2  6  1  0
  2  3  2  0
  3  4  1  0
  4  5  1  0
  5  6  2  0
  6  7  1  0
  7 15  1  0
  7  8  2  0
  8  9  1  0
  9 14  2  0
  9 10  1  0
 10 11  2  0
 10 26  1  0
 11 12  1  0
 11 27  1  0
 12 13  2  0
 12 28  1  0
 13 14  1  0
 14 15  1  0
 15 16  1  0
 16 17  1  0
 16 29  1  0
 16 30  1  0
 17 18  1  0
 17 31  1  0
 17 32  1  0
 18 19  1  0
 18 33  1  0
 18 34  1  0
 19 24  1  0
 19 20  1  0
 20 21  1  0
 20 35  1  0
 20 36  1  0
 21 22  1  0
 21 37  1  0
 21 38  1  0
 22 23  1  0
 23 24  1  0
 23 39  1  0
 23 40  1  0
 24 41  1  0
 24 42  1  0
M  END
>  <i_m_ct_stereo_status>  (45) 
1

>  <s_m_source_file>  (45) 
/var/tmp/pbs.5076255.sched01/tmphrtf3o8j/0_qqz9eae.sdf

>  <i_m_source_file_index>  (45) 
22

>  <i_lp_mmshare_version>  (45) 
48012

>  <i_f3d_flags>  (45) 
0

>  <s_epik_input>  (45) 
W0hdL049YzFcW25IXW9uYzEtYyhuMiluKGMoYzIzKW5bY0hdW2NIXVtjSF0zKVtDSDJdW0NIMl1bQ0gyXU40W0NIMl1bQ0gyXU9bQ0gyXVtDSDJdNA==

>  <s_epik_cmdline>  (45) 
J2VwaWtfcHl0aG9uJywgJy1waHQnLCAnMi4wJywgJy1waCcsICc3LjAnLCAnLXRuJywgJzgnLCAnLW1hJywgJzIwMCcsICctaW1hZScsICc8aW5maWxlLm1hZT4nLCAnLW9tYWUnLCAnPG91dGZpbGUubWFlPic=

>  <r_lp_tautomer_probability>  (45) 
1

>  <r_epik_Ionization_Penalty>  (45) 
0.482052

>  <r_epik_Ionization_Penalty_Charging>  (45) 
7.26722e-06

>  <r_epik_Ionization_Penalty_Neutral>  (45) 
0.482045

>  <r_epik_State_Penalty>  (45) 
0.487092

>  <r_epik_Charging_Adjusted_Penalty>  (45) 
0.487099

>  <i_epik_Tot_Q>  (45) 
0

>  <i_epik_Tot_abs_Q>  (45) 
0

>  <s_lp_Force_Field>  (45) 
OPLS3e

>  <r_lp_Energy>  (45) 
25.3303

>  <b_lp_Chiralities_Consistent>  (45) 
1

>  <s_lp_Variant>  (45) 
17:0-2

>  <s_i_glide_gridfile>  (45) 
pfpi4k_grid

>  <i_i_glide_lignum>  (45) 
22

>  <i_i_glide_rotatable_bonds>  (45) 
5

>  <r_i_docking_score>  (45) 
-2.90038

>  <r_i_glide_ligand_efficiency>  (45) 
-0.120849

>  <r_i_glide_ligand_efficiency_sa>  (45) 
-0.348589

>  <r_i_glide_ligand_efficiency_ln>  (45) 
-0.694193

>  <r_i_glide_gscore>  (45) 
-2.90038

>  <r_i_glide_lipo>  (45) 
-0.0317951

>  <r_i_glide_hbond>  (45) 
-0.131116

>  <r_i_glide_metal>  (45) 
-0

>  <r_i_glide_rewards>  (45) 
-1.66347

>  <r_i_glide_evdw>  (45) 
-21.4624

>  <r_i_glide_ecoul>  (45) 
-4.30623

>  <r_i_glide_erotb>  (45) 
0.693012

>  <r_i_glide_esite>  (45) 
-0.0479483

>  <r_i_glide_emodel>  (45) 
-36.2415

>  <r_i_glide_energy>  (45) 
-25.7686

>  <r_i_glide_einternal>  (45) 
2.01524

>  <r_i_glide_intrahb_reward>  (45) 
-0.5

>  <i_i_glide_confnum>  (45) 
2

>  <i_i_glide_posenum>  (45) 
13

>  <r_i_glide_eff_state_penalty>  (45) 
0

>  <ligand_id>  (45) 
17

>  <original_smiles>  (45) 
N=c1[nH]onc1-c1nc2cccnc2n1CCCN1CCOCC1

>  <smiles>  (45) 
[H]c1nc2c(nc(-c3nonc3N([H])[H])n2C([H])([H])C([H])([H])C([H])([H])N2C([H])([H])C([H])([H])OC([H])([H])C2([H])[H])c([H])c1[H]

$$$$
18:0:0
     RDKit          3D

 39 42  0  0  1  0  0  0  0  0999 V2000
    2.9110   -4.8070    2.7291 C   0  0  0  0  0  0  0  0  0  0  0  0
    3.9048   -4.5516    1.5846 C   0  0  2  0  0  0  0  0  0  0  0  0
    4.3430   -5.7560    0.9465 O   0  0  0  0  0  0  0  0  0  0  0  0
    5.1734   -5.4388   -0.1319 C   0  0  1  0  0  0  0  0  0  0  0  0
    4.6142   -4.4665   -0.9949 O   0  0  0  0  0  0  0  0  0  0  0  0
    5.4508   -3.4369   -1.4222 C   0  0  1  0  0  0  0  0  0  0  0  0
    5.1191   -2.9006   -2.6733 O   0  0  0  0  0  0  0  0  0  0  0  0
    4.0718   -1.9884   -2.6892 C   0  0  0  0  0  0  0  0  0  0  0  0
    4.0400   -1.4171   -4.1279 C   0  0  0  0  0  0  0  0  0  0  0  0
    2.7120   -2.6724   -2.4171 C   0  0  0  0  0  0  0  0  0  0  0  0
    4.2711   -0.9095   -1.8541 O   0  0  0  0  0  0  0  0  0  0  0  0
    4.6006   -1.1827   -0.4985 C   0  0  1  0  0  0  0  0  0  0  0  0
    3.4657   -0.9564    0.5197 C   0  0  0  0  0  0  0  0  0  0  0  0
    2.6075   -1.9966    0.6354 O   0  0  0  0  0  0  0  0  0  0  0  0
    5.6209   -2.3181   -0.3316 C   0  0  1  0  0  0  0  0  0  0  0  0
    5.9012   -2.7710    1.1031 C   0  0  2  0  0  0  0  0  0  0  0  0
    6.4807   -4.1399    1.4036 C   0  0  2  0  0  0  0  0  0  0  0  0
    6.4459   -5.1044    0.3524 O   0  0  0  0  0  0  0  0  0  0  0  0
    5.1390   -3.7408    1.9966 C   0  0  2  0  0  0  0  0  0  0  0  0
    2.6208   -3.8649    3.1783 H   0  0  0  0  0  0  0  0  0  0  0  0
    3.2565   -5.4593    3.5209 H   0  0  0  0  0  0  0  0  0  0  0  0
    1.9998   -5.2318    2.3088 H   0  0  0  0  0  0  0  0  0  0  0  0
    3.3505   -4.0534    0.8315 H   0  0  0  0  0  0  0  0  0  0  0  0
    5.2522   -6.3386   -0.7218 H   0  0  0  0  0  0  0  0  0  0  0  0
    6.4276   -3.8701   -1.6228 H   0  0  0  0  0  0  0  0  0  0  0  0
    5.0025   -0.9703   -4.3746 H   0  0  0  0  0  0  0  0  0  0  0  0
    3.2563   -0.6603   -4.2041 H   0  0  0  0  0  0  0  0  0  0  0  0
    3.8169   -2.2312   -4.7982 H   0  0  0  0  0  0  0  0  0  0  0  0
    2.6955   -3.1878   -1.4572 H   0  0  0  0  0  0  0  0  0  0  0  0
    2.4598   -3.3553   -3.2290 H   0  0  0  0  0  0  0  0  0  0  0  0
    1.9533   -1.9052   -2.3862 H   0  0  0  0  0  0  0  0  0  0  0  0
    5.1844   -0.3045   -0.2814 H   0  0  0  0  0  0  0  0  0  0  0  0
    3.8181   -0.6070    1.4982 H   0  0  0  0  0  0  0  0  0  0  0  0
    2.8321   -0.1376    0.1349 H   0  0  0  0  0  0  0  0  0  0  0  0
    1.9809   -1.8390   -0.0347 H   0  0  0  0  0  0  0  0  0  0  0  0
    6.5485   -1.8828   -0.6523 H   0  0  0  0  0  0  0  0  0  0  0  0
    6.3849   -1.9750    1.6514 H   0  0  0  0  0  0  0  0  0  0  0  0
    7.3480   -4.2107    2.0681 H   0  0  0  0  0  0  0  0  0  0  0  0
    5.1657   -3.4866    3.0714 H   0  0  0  0  0  0  0  0  0  0  0  0
  1  2  1  0
  1 20  1  0
  1 21  1  0
  1 22  1  0
  2 19  1  0
  2  3  1  0
  2 23  1  6
  3  4  1  0
  4 18  1  0
  4  5  1  0
  4 24  1  6
  5  6  1  0
  6 15  1  0
  6  7  1  0
  6 25  1  6
  7  8  1  0
  8  9  1  0
  8 10  1  0
  8 11  1  0
  9 26  1  0
  9 27  1  0
  9 28  1  0
 10 29  1  0
 10 30  1  0
 10 31  1  0
 11 12  1  0
 12 13  1  0
 12 15  1  0
 12 32  1  1
 13 14  1  0
 13 33  1  0
 13 34  1  0
 14 35  1  0
 15 16  1  0
 15 36  1  6
 16 19  1  0
 16 17  1  0
 16 37  1  1
 17 18  1  0
 17 19  1  0
 17 38  1  1
 19 39  1  1
M  END
>  <i_m_ct_stereo_status>  (46) 
1

>  <s_m_source_file>  (46) 
/var/tmp/pbs.5076255.sched01/tmphrtf3o8j/0_qqz9eae.sdf

>  <i_m_source_file_index>  (46) 
23

>  <i_lp_mmshare_version>  (46) 
48012

>  <i_f3d_flags>  (46) 
0

>  <s_epik_input>  (46) 
W0NASF0xMk9bQ0BASF0oW0NIM10pW0NAQEhdM1tDQEBIXShbQ0BASF0zTzIpW0NASF00W0NAQEhdKE8xKU9DKFtDSDNdKShbQ0gzXSlPW0NASF00W0NIMl1bT0hd

>  <s_epik_cmdline>  (46) 
J2VwaWtfcHl0aG9uJywgJy1waHQnLCAnMi4wJywgJy1waCcsICc3LjAnLCAnLXRuJywgJzgnLCAnLW1hJywgJzIwMCcsICctaW1hZScsICc8aW5maWxlLm1hZT4nLCAnLW9tYWUnLCAnPG91dGZpbGUubWFlPic=

>  <r_lp_tautomer_probability>  (46) 
1

>  <r_epik_Ionization_Penalty>  (46) 
5.14276e-08

>  <r_epik_Ionization_Penalty_Charging>  (46) 
0

>  <r_epik_Ionization_Penalty_Neutral>  (46) 
5.14276e-08

>  <r_epik_State_Penalty>  (46) 
-0

>  <r_epik_Charging_Adjusted_Penalty>  (46) 
0

>  <i_epik_Tot_Q>  (46) 
0

>  <i_epik_Tot_abs_Q>  (46) 
0

>  <s_epik_Chemistry_Notes>  (46) 
This compound contains an acetal/aminal-like group ( X-CH(R)-Y where X, Y are N, S, or O) that may be acid/base labile, releasing an aldehyde.

>  <s_lp_Force_Field>  (46) 
OPLS3e

>  <r_lp_Energy>  (46) 
26.4567

>  <b_lp_Chiralities_Consistent>  (46) 
1

>  <s_lp_Variant>  (46) 
18:0-1

>  <s_i_glide_gridfile>  (46) 
pfpi4k_grid

>  <i_i_glide_lignum>  (46) 
23

>  <i_i_glide_rotatable_bonds>  (46) 
2

>  <r_i_docking_score>  (46) 
-2.8094

>  <r_i_glide_ligand_efficiency>  (46) 
-0.147863

>  <r_i_glide_ligand_efficiency_sa>  (46) 
-0.394558

>  <r_i_glide_ligand_efficiency_ln>  (46) 
-0.712243

>  <r_i_glide_gscore>  (46) 
-2.8094

>  <r_i_glide_lipo>  (46) 
-0.222158

>  <r_i_glide_hbond>  (46) 
0

>  <r_i_glide_metal>  (46) 
-0

>  <r_i_glide_rewards>  (46) 
-1.73328

>  <r_i_glide_evdw>  (46) 
-14.9317

>  <r_i_glide_ecoul>  (46) 
-2.32706

>  <r_i_glide_erotb>  (46) 
0.24168

>  <r_i_glide_esite>  (46) 
0

>  <r_i_glide_emodel>  (46) 
-15.893

>  <r_i_glide_energy>  (46) 
-17.2588

>  <r_i_glide_einternal>  (46) 
2.38913

>  <r_i_glide_intrahb_reward>  (46) 
-0

>  <i_i_glide_confnum>  (46) 
4

>  <i_i_glide_posenum>  (46) 
30

>  <r_i_glide_eff_state_penalty>  (46) 
0

>  <ligand_id>  (46) 
18

>  <original_smiles>  (46) 
CC1OC2OC3OC(C)(C)OC(CO)C3C3C(O2)C13

>  <smiles>  (46) 
[H]OC([H])([H])C1([H])OC(C([H])([H])[H])(C([H])([H])[H])OC2([H])OC3([H])OC([H])(C([H])([H])[H])C4([H])C([H])(O3)C4([H])C21[H]

$$$$
18:0:1
     RDKit          3D

 39 42  0  0  1  0  0  0  0  0999 V2000
    3.8828   -4.2795    3.2343 C   0  0  0  0  0  0  0  0  0  0  0  0
    4.5722   -4.0831    1.8799 C   0  0  2  0  0  0  0  0  0  0  0  0
    4.9812   -5.3455    1.3772 O   0  0  0  0  0  0  0  0  0  0  0  0
    5.6412   -5.2327    0.1640 C   0  0  1  0  0  0  0  0  0  0  0  0
    4.8352   -4.5568   -0.7577 O   0  0  0  0  0  0  0  0  0  0  0  0
    5.4518   -3.5450   -1.4869 C   0  0  1  0  0  0  0  0  0  0  0  0
    4.8323   -3.3224   -2.7168 O   0  0  0  0  0  0  0  0  0  0  0  0
    3.6630   -2.5608   -2.6850 C   0  0  0  0  0  0  0  0  0  0  0  0
    3.3028   -2.3139   -4.1540 C   0  0  0  0  0  0  0  0  0  0  0  0
    2.4869   -3.3012   -1.9992 C   0  0  0  0  0  0  0  0  0  0  0  0
    3.8676   -1.2966   -2.1249 O   0  0  0  0  0  0  0  0  0  0  0  0
    4.4548   -1.2371   -0.8303 C   0  0  1  0  0  0  0  0  0  0  0  0
    3.3835   -1.1002    0.2833 C   0  0  0  0  0  0  0  0  0  0  0  0
    3.9125   -0.6435    1.5068 O   0  0  0  0  0  0  0  0  0  0  0  0
    5.6449   -2.2321   -0.6776 C   0  0  1  0  0  0  0  0  0  0  0  0
    6.2611   -2.3438    0.7270 C   0  0  2  0  0  0  0  0  0  0  0  0
    7.0273   -3.5660    1.1723 C   0  0  2  0  0  0  0  0  0  0  0  0
    6.9247   -4.7129    0.3405 O   0  0  0  0  0  0  0  0  0  0  0  0
    5.7718   -3.1625    1.9237 C   0  0  2  0  0  0  0  0  0  0  0  0
    3.5286   -3.3327    3.6414 H   0  0  0  0  0  0  0  0  0  0  0  0
    4.5416   -4.7415    3.9681 H   0  0  0  0  0  0  0  0  0  0  0  0
    3.0126   -4.9278    3.1153 H   0  0  0  0  0  0  0  0  0  0  0  0
    3.8291   -3.6602    1.2150 H   0  0  0  0  0  0  0  0  0  0  0  0
    5.7960   -6.2453   -0.2051 H   0  0  0  0  0  0  0  0  0  0  0  0
    6.4432   -3.8789   -1.7890 H   0  0  0  0  0  0  0  0  0  0  0  0
    4.1186   -1.7951   -4.6526 H   0  0  0  0  0  0  0  0  0  0  0  0
    2.4019   -1.7066   -4.2160 H   0  0  0  0  0  0  0  0  0  0  0  0
    3.1187   -3.2652   -4.6539 H   0  0  0  0  0  0  0  0  0  0  0  0
    2.7077   -3.6032   -0.9818 H   0  0  0  0  0  0  0  0  0  0  0  0
    2.2082   -4.1888   -2.5658 H   0  0  0  0  0  0  0  0  0  0  0  0
    1.6143   -2.6554   -1.9762 H   0  0  0  0  0  0  0  0  0  0  0  0
    4.9261   -0.2523   -0.8318 H   0  0  0  0  0  0  0  0  0  0  0  0
    2.6672   -0.3353    0.0006 H   0  0  0  0  0  0  0  0  0  0  0  0
    2.7871   -1.9948    0.4320 H   0  0  0  0  0  0  0  0  0  0  0  0
    3.1833   -0.5132    2.1003 H   0  0  0  0  0  0  0  0  0  0  0  0
    6.4280   -1.7538   -1.2578 H   0  0  0  0  0  0  0  0  0  0  0  0
    6.6923   -1.3901    1.0389 H   0  0  0  0  0  0  0  0  0  0  0  0
    7.9973   -3.4712    1.6413 H   0  0  0  0  0  0  0  0  0  0  0  0
    5.9137   -2.6829    2.8894 H   0  0  0  0  0  0  0  0  0  0  0  0
  1  2  1  0
  1 20  1  0
  1 21  1  0
  1 22  1  0
  2 19  1  0
  2  3  1  0
  2 23  1  6
  3  4  1  0
  4 18  1  0
  4  5  1  0
  4 24  1  6
  5  6  1  0
  6 15  1  0
  6  7  1  0
  6 25  1  6
  7  8  1  0
  8  9  1  0
  8 10  1  0
  8 11  1  0
  9 26  1  0
  9 27  1  0
  9 28  1  0
 10 29  1  0
 10 30  1  0
 10 31  1  0
 11 12  1  0
 12 13  1  0
 12 15  1  0
 12 32  1  6
 13 14  1  0
 13 33  1  0
 13 34  1  0
 14 35  1  0
 15 16  1  0
 15 36  1  6
 16 19  1  0
 16 17  1  0
 16 37  1  1
 17 18  1  0
 17 19  1  0
 17 38  1  1
 19 39  1  1
M  END
>  <i_m_ct_stereo_status>  (47) 
1

>  <s_m_source_file>  (47) 
/var/tmp/pbs.5076255.sched01/tmphrtf3o8j/0_qqz9eae.sdf

>  <i_m_source_file_index>  (47) 
23

>  <i_lp_mmshare_version>  (47) 
48012

>  <i_f3d_flags>  (47) 
0

>  <s_epik_input>  (47) 
W0NASF0xMk9bQ0BASF0oW0NIM10pW0NAQEhdM1tDQEBIXShbQ0BASF0zTzIpW0NASF00W0NAQEhdKE8xKU9DKFtDSDNdKShbQ0gzXSlPW0NASF00W0NIMl1bT0hd

>  <s_epik_cmdline>  (47) 
J2VwaWtfcHl0aG9uJywgJy1waHQnLCAnMi4wJywgJy1waCcsICc3LjAnLCAnLXRuJywgJzgnLCAnLW1hJywgJzIwMCcsICctaW1hZScsICc8aW5maWxlLm1hZT4nLCAnLW9tYWUnLCAnPG91dGZpbGUubWFlPic=

>  <r_lp_tautomer_probability>  (47) 
1

>  <r_epik_Ionization_Penalty>  (47) 
5.14276e-08

>  <r_epik_Ionization_Penalty_Charging>  (47) 
0

>  <r_epik_Ionization_Penalty_Neutral>  (47) 
5.14276e-08

>  <r_epik_State_Penalty>  (47) 
-0

>  <r_epik_Charging_Adjusted_Penalty>  (47) 
0

>  <i_epik_Tot_Q>  (47) 
0

>  <i_epik_Tot_abs_Q>  (47) 
0

>  <s_epik_Chemistry_Notes>  (47) 
This compound contains an acetal/aminal-like group ( X-CH(R)-Y where X, Y are N, S, or O) that may be acid/base labile, releasing an aldehyde.

>  <s_lp_Force_Field>  (47) 
OPLS3e

>  <r_lp_Energy>  (47) 
26.4567

>  <b_lp_Chiralities_Consistent>  (47) 
1

>  <s_lp_Variant>  (47) 
18:0-1

>  <s_i_glide_gridfile>  (47) 
pfpi4k_grid

>  <i_i_glide_lignum>  (47) 
23

>  <i_i_glide_rotatable_bonds>  (47) 
2

>  <r_i_docking_score>  (47) 
-2.80073

>  <r_i_glide_ligand_efficiency>  (47) 
-0.147407

>  <r_i_glide_ligand_efficiency_sa>  (47) 
-0.39334

>  <r_i_glide_ligand_efficiency_ln>  (47) 
-0.710044

>  <r_i_glide_gscore>  (47) 
-2.80073

>  <r_i_glide_lipo>  (47) 
-0.344211

>  <r_i_glide_hbond>  (47) 
0

>  <r_i_glide_metal>  (47) 
-0

>  <r_i_glide_rewards>  (47) 
-1.77369

>  <r_i_glide_evdw>  (47) 
-17.489

>  <r_i_glide_ecoul>  (47) 
-0.315842

>  <r_i_glide_erotb>  (47) 
0.24168

>  <r_i_glide_esite>  (47) 
-0.00267884

>  <r_i_glide_emodel>  (47) 
-20.451

>  <r_i_glide_energy>  (47) 
-17.8049

>  <r_i_glide_einternal>  (47) 
0.741036

>  <r_i_glide_intrahb_reward>  (47) 
-0

>  <i_i_glide_confnum>  (47) 
4

>  <i_i_glide_posenum>  (47) 
1

>  <r_i_glide_eff_state_penalty>  (47) 
0

>  <ligand_id>  (47) 
18

>  <original_smiles>  (47) 
CC1OC2OC3OC(C)(C)OC(CO)C3C3C(O2)C13

>  <smiles>  (47) 
[H]OC([H])([H])C1([H])OC(C([H])([H])[H])(C([H])([H])[H])OC2([H])OC3([H])OC([H])(C([H])([H])[H])C4([H])C([H])(O3)C4([H])C21[H]

$$$$
19:0:0
     RDKit          3D

 64 68  0  0  1  0  0  0  0  0999 V2000
    4.2305   -6.5413    0.8993 C   0  0  0  0  0  0  0  0  0  0  0  0
    4.6672   -5.2641    1.6407 C   0  0  2  0  0  0  0  0  0  0  0  0
    4.0284   -5.2027    3.0395 C   0  0  0  0  0  0  0  0  0  0  0  0
    4.5179   -3.9686    3.8150 C   0  0  0  0  0  0  0  0  0  0  0  0
    4.2043   -2.6495    3.0746 C   0  0  2  0  0  0  0  0  0  0  0  0
    2.6898   -2.3258    3.0744 C   0  0  1  0  0  0  0  0  0  0  0  0
    2.0669   -2.1502    4.4772 C   0  0  0  0  0  0  0  0  0  0  0  0
    2.4641   -1.0483    2.2552 C   0  0  1  0  0  0  0  0  0  0  0  0
    3.0435    0.0521    2.8917 O   0  0  0  0  0  0  0  0  0  0  0  0
    2.6392    1.3117    2.3662 C   0  0  0  0  0  0  0  0  0  0  0  0
    1.2542    1.7190    2.8222 C   0  0  0  0  0  0  0  0  0  0  0  0
    0.1248    1.3511    2.0696 C   0  0  0  0  0  0  0  0  0  0  0  0
   -1.1645    1.7078    2.5003 C   0  0  0  0  0  0  0  0  0  0  0  0
   -1.3285    2.4625    3.6807 C   0  0  0  0  0  0  0  0  0  0  0  0
   -2.6023    2.8412    4.0873 N   0  0  0  0  0  0  0  0  0  0  0  0
   -0.2009    2.8341    4.4366 C   0  0  0  0  0  0  0  0  0  0  0  0
    1.0894    2.4639    4.0090 C   0  0  0  0  0  0  0  0  0  0  0  0
    2.9492   -1.2572    0.9657 O   0  0  0  0  0  0  0  0  0  0  0  0
    4.3310   -1.4038    0.8809 C   0  0  2  0  0  0  0  0  0  0  0  0
    4.7329   -1.4056   -0.4630 O   0  0  0  0  0  0  0  0  0  0  0  0
    4.5150   -2.5738   -1.2660 C   0  0  0  0  0  0  0  0  0  0  0  0
    3.0294   -2.7045   -1.6755 C   0  0  0  0  0  0  0  0  0  0  0  0
    5.3120   -2.2808   -2.5486 C   0  0  0  0  0  0  0  0  0  0  0  0
    5.0433   -3.8424   -0.5283 C   0  0  1  0  0  0  0  0  0  0  0  0
    6.5745   -3.8392   -0.3179 C   0  0  0  0  0  0  0  0  0  0  0  0
    7.0208   -2.7221    0.6368 C   0  0  0  0  0  0  0  0  0  0  0  0
    6.2147   -2.6803    1.8148 O   0  0  0  0  0  0  0  0  0  0  0  0
    4.7924   -2.6950    1.6350 C   0  0  1  0  0  0  0  0  0  0  0  0
    4.3616   -3.9589    0.8498 C   0  0  2  0  0  0  0  0  0  0  0  0
    3.1672   -6.5213    0.6591 H   0  0  0  0  0  0  0  0  0  0  0  0
    4.4181   -7.4269    1.5074 H   0  0  0  0  0  0  0  0  0  0  0  0
    4.7838   -6.6746   -0.0305 H   0  0  0  0  0  0  0  0  0  0  0  0
    5.7390   -5.3438    1.8123 H   0  0  0  0  0  0  0  0  0  0  0  0
    2.9403   -5.1974    2.9575 H   0  0  0  0  0  0  0  0  0  0  0  0
    4.2854   -6.0975    3.6041 H   0  0  0  0  0  0  0  0  0  0  0  0
    4.0971   -3.9634    4.8208 H   0  0  0  0  0  0  0  0  0  0  0  0
    5.5967   -4.0456    3.9507 H   0  0  0  0  0  0  0  0  0  0  0  0
    4.6991   -1.8416    3.6147 H   0  0  0  0  0  0  0  0  0  0  0  0
    2.1350   -3.1077    2.5598 H   0  0  0  0  0  0  0  0  0  0  0  0
    2.6251   -1.4322    5.0794 H   0  0  0  0  0  0  0  0  0  0  0  0
    2.0436   -3.0952    5.0216 H   0  0  0  0  0  0  0  0  0  0  0  0
    1.0348   -1.7982    4.4174 H   0  0  0  0  0  0  0  0  0  0  0  0
    1.3918   -0.9047    2.1718 H   0  0  0  0  0  0  0  0  0  0  0  0
    3.3432    2.0665    2.7112 H   0  0  0  0  0  0  0  0  0  0  0  0
    2.6917    1.3236    1.2792 H   0  0  0  0  0  0  0  0  0  0  0  0
    0.2407    0.8046    1.1423 H   0  0  0  0  0  0  0  0  0  0  0  0
   -2.0172    1.4025    1.9136 H   0  0  0  0  0  0  0  0  0  0  0  0
   -2.7627    3.3412    4.9496 H   0  0  0  0  0  0  0  0  0  0  0  0
   -3.4146    2.5255    3.5742 H   0  0  0  0  0  0  0  0  0  0  0  0
   -0.3183    3.3986    5.3486 H   0  0  0  0  0  0  0  0  0  0  0  0
    1.9519    2.7591    4.5881 H   0  0  0  0  0  0  0  0  0  0  0  0
    4.7952   -0.5189    1.3153 H   0  0  0  0  0  0  0  0  0  0  0  0
    2.8737   -3.5706   -2.3181 H   0  0  0  0  0  0  0  0  0  0  0  0
    2.6857   -1.8230   -2.2175 H   0  0  0  0  0  0  0  0  0  0  0  0
    2.3576   -2.8159   -0.8281 H   0  0  0  0  0  0  0  0  0  0  0  0
    5.3784   -3.1542   -3.1992 H   0  0  0  0  0  0  0  0  0  0  0  0
    6.3266   -1.9553   -2.3148 H   0  0  0  0  0  0  0  0  0  0  0  0
    4.8556   -1.4676   -3.1163 H   0  0  0  0  0  0  0  0  0  0  0  0
    4.7909   -4.7045   -1.1432 H   0  0  0  0  0  0  0  0  0  0  0  0
    6.8945   -4.7995    0.0861 H   0  0  0  0  0  0  0  0  0  0  0  0
    7.1097   -3.7528   -1.2600 H   0  0  0  0  0  0  0  0  0  0  0  0
    8.0571   -2.8981    0.9234 H   0  0  0  0  0  0  0  0  0  0  0  0
    7.0222   -1.7517    0.1415 H   0  0  0  0  0  0  0  0  0  0  0  0
    3.2822   -3.9461    0.7172 H   0  0  0  0  0  0  0  0  0  0  0  0
  1  2  1  0
  1 30  1  0
  1 31  1  0
  1 32  1  0
  2 29  1  0
  2  3  1  0
  2 33  1  1
  3  4  1  0
  3 34  1  0
  3 35  1  0
  4  5  1  0
  4 36  1  0
  4 37  1  0
  5 28  1  0
  5  6  1  0
  5 38  1  1
  6  7  1  0
  6  8  1  0
  6 39  1  6
  7 40  1  0
  7 41  1  0
  7 42  1  0
  8  9  1  0
  8 18  1  0
  8 43  1  6
  9 10  1  0
 10 11  1  0
 10 44  1  0
 10 45  1  0
 11 17  1  0
 11 12  2  0
 12 13  1  0
 12 46  1  0
 13 14  2  0
 13 47  1  0
 14 15  1  0
 14 16  1  0
 15 48  1  0
 15 49  1  0
 16 17  2  0
 16 50  1  0
 17 51  1  0
 18 19  1  0
 19 28  1  0
 19 20  1  0
 19 52  1  1
 20 21  1  0
 21 22  1  0
 21 23  1  0
 21 24  1  0
 22 53  1  0
 22 54  1  0
 22 55  1  0
 23 56  1  0
 23 57  1  0
 23 58  1  0
 24 29  1  0
 24 25  1  0
 24 59  1  6
 25 26  1  0
 25 60  1  0
 25 61  1  0
 26 27  1  0
 26 62  1  0
 26 63  1  0
 28 27  1  1
 28 29  1  0
 29 64  1  6
M  END
>  <i_m_ct_stereo_status>  (48) 
1

>  <s_m_source_file>  (48) 
/var/tmp/pbs.5076255.sched01/tmphrtf3o8j/0_qqz9eae.sdf

>  <i_m_source_file_index>  (48) 
24

>  <i_lp_mmshare_version>  (48) 
48012

>  <i_f3d_flags>  (48) 
0

>  <s_epik_input>  (48) 
W0NAXTEyM1tDQEBIXTRbQ0gyXVtDSDJdW0NAQEhdKFtDSDNdKVtDQEBIXTNbQ0hdKFtDSDJdW0NIMl1PMilDKFtDSDNdKShbQ0gzXSlPW0NASF0xT1tDQEBIXShbQ0BASF00W0NIM10pT1tDSDJdYzVbY0hdW2NIXWMoW05IMl0pW2NIXVtjSF01

>  <s_epik_cmdline>  (48) 
J2VwaWtfcHl0aG9uJywgJy1waHQnLCAnMi4wJywgJy1waCcsICc3LjAnLCAnLXRuJywgJzgnLCAnLW1hJywgJzIwMCcsICctaW1hZScsICc8aW5maWxlLm1hZT4nLCAnLW9tYWUnLCAnPG91dGZpbGUubWFlPic=

>  <r_epik_Ionization_Penalty>  (48) 
0.00180676

>  <r_epik_Ionization_Penalty_Charging>  (48) 
0

>  <r_epik_Ionization_Penalty_Neutral>  (48) 
0.00180676

>  <r_epik_State_Penalty>  (48) 
0.00122574

>  <r_epik_Charging_Adjusted_Penalty>  (48) 
0.00122574

>  <i_epik_Tot_Q>  (48) 
0

>  <i_epik_Tot_abs_Q>  (48) 
0

>  <s_epik_Chemistry_Notes>  (48) 
This compound contains an acetal/aminal-like group ( X-CH(R)-Y where X, Y are N, S, or O) that may be acid/base labile, releasing an aldehyde.

>  <s_lp_Force_Field>  (48) 
OPLS3e

>  <r_lp_Energy>  (48) 
47.2692

>  <b_lp_Chiralities_Consistent>  (48) 
1

>  <s_lp_Variant>  (48) 
19:0-1

>  <s_i_glide_gridfile>  (48) 
pfpi4k_grid

>  <i_i_glide_lignum>  (48) 
24

>  <i_i_glide_rotatable_bonds>  (48) 
3

>  <r_i_docking_score>  (48) 
-2.64722

>  <r_i_glide_ligand_efficiency>  (48) 
-0.0912834

>  <r_i_glide_ligand_efficiency_sa>  (48) 
-0.280451

>  <r_i_glide_ligand_efficiency_ln>  (48) 
-0.606146

>  <r_i_glide_gscore>  (48) 
-2.64722

>  <r_i_glide_lipo>  (48) 
-0.552048

>  <r_i_glide_hbond>  (48) 
0

>  <r_i_glide_metal>  (48) 
-0

>  <r_i_glide_rewards>  (48) 
-0.671325

>  <r_i_glide_evdw>  (48) 
-31.9671

>  <r_i_glide_ecoul>  (48) 
-0.799134

>  <r_i_glide_erotb>  (48) 
0.364968

>  <r_i_glide_esite>  (48) 
-0.070589

>  <r_i_glide_emodel>  (48) 
-37.5118

>  <r_i_glide_energy>  (48) 
-32.7662

>  <r_i_glide_einternal>  (48) 
1.0158

>  <r_i_glide_intrahb_reward>  (48) 
-0

>  <i_i_glide_confnum>  (48) 
3

>  <i_i_glide_posenum>  (48) 
32

>  <r_i_glide_eff_state_penalty>  (48) 
0

>  <ligand_id>  (48) 
19

>  <original_smiles>  (48) 
CC1CCC2C(C)C(OCc3ccc(N)cc3)OC3OC(C)(C)C4CCOC32C14

>  <smiles>  (48) 
[H]c1c([H])c(C([H])([H])OC2([H])OC3([H])OC(C([H])([H])[H])(C([H])([H])[H])C4([H])C([H])([H])C([H])([H])OC35C([H])(C([H])([H])C([H])([H])C([H])(C([H])([H])[H])C45[H])C2([H])C([H])([H])[H])c([H])c([H])c1N([H])[H]

$$$$
19:0:1
     RDKit          3D

 64 68  0  0  1  0  0  0  0  0999 V2000
   -0.2000    0.6866    7.1028 C   0  0  0  0  0  0  0  0  0  0  0  0
   -0.0106    0.0397    5.7187 C   0  0  2  0  0  0  0  0  0  0  0  0
    0.2313   -1.4734    5.8567 C   0  0  0  0  0  0  0  0  0  0  0  0
    0.3592   -2.1382    4.4786 C   0  0  0  0  0  0  0  0  0  0  0  0
    1.5120   -1.5367    3.6378 C   0  0  2  0  0  0  0  0  0  0  0  0
    2.9108   -1.9116    4.1985 C   0  0  1  0  0  0  0  0  0  0  0  0
    3.1856   -3.4296    4.2204 C   0  0  0  0  0  0  0  0  0  0  0  0
    3.9946   -1.2136    3.3515 C   0  0  1  0  0  0  0  0  0  0  0  0
    3.9835   -1.7270    2.0577 O   0  0  0  0  0  0  0  0  0  0  0  0
    5.0728   -1.3075    1.2460 C   0  0  0  0  0  0  0  0  0  0  0  0
    4.9820   -1.9287   -0.1294 C   0  0  0  0  0  0  0  0  0  0  0  0
    3.7305   -1.9797   -0.7750 C   0  0  0  0  0  0  0  0  0  0  0  0
    3.6057   -2.5687   -2.0464 C   0  0  0  0  0  0  0  0  0  0  0  0
    4.7399   -3.0962   -2.6915 C   0  0  0  0  0  0  0  0  0  0  0  0
    4.6147   -3.6519   -3.9550 N   0  0  0  0  0  0  0  0  0  0  0  0
    5.9977   -3.0431   -2.0511 C   0  0  0  0  0  0  0  0  0  0  0  0
    6.1171   -2.4584   -0.7730 C   0  0  0  0  0  0  0  0  0  0  0  0
    3.7658    0.1626    3.4027 O   0  0  0  0  0  0  0  0  0  0  0  0
    2.5790    0.5821    2.7859 C   0  0  2  0  0  0  0  0  0  0  0  0
    2.5422    1.9803    2.7179 O   0  0  0  0  0  0  0  0  0  0  0  0
    2.2415    2.7470    3.8933 C   0  0  0  0  0  0  0  0  0  0  0  0
    3.4379    2.7741    4.8720 C   0  0  0  0  0  0  0  0  0  0  0  0
    2.0675    4.1832    3.3597 C   0  0  0  0  0  0  0  0  0  0  0  0
    0.9512    2.1968    4.5751 C   0  0  1  0  0  0  0  0  0  0  0  0
   -0.3218    2.3722    3.7162 C   0  0  0  0  0  0  0  0  0  0  0  0
   -0.2756    1.5086    2.4405 C   0  0  0  0  0  0  0  0  0  0  0  0
    0.1476    0.1690    2.7186 O   0  0  0  0  0  0  0  0  0  0  0  0
    1.3232   -0.0002    3.5213 C   0  0  1  0  0  0  0  0  0  0  0  0
    1.1338    0.6951    4.8899 C   0  0  2  0  0  0  0  0  0  0  0  0
    0.7216    0.6592    7.6862 H   0  0  0  0  0  0  0  0  0  0  0  0
   -0.9701    0.1706    7.6720 H   0  0  0  0  0  0  0  0  0  0  0  0
   -0.5155    1.7268    7.0183 H   0  0  0  0  0  0  0  0  0  0  0  0
   -0.9505    0.1450    5.1807 H   0  0  0  0  0  0  0  0  0  0  0  0
    1.1261   -1.6569    6.4532 H   0  0  0  0  0  0  0  0  0  0  0  0
   -0.5942   -1.9331    6.3931 H   0  0  0  0  0  0  0  0  0  0  0  0
    0.4758   -3.2164    4.5861 H   0  0  0  0  0  0  0  0  0  0  0  0
   -0.5801   -2.0000    3.9449 H   0  0  0  0  0  0  0  0  0  0  0  0
    1.4395   -1.9568    2.6336 H   0  0  0  0  0  0  0  0  0  0  0  0
    3.0201   -1.5292    5.2119 H   0  0  0  0  0  0  0  0  0  0  0  0
    2.9983   -3.8903    3.2498 H   0  0  0  0  0  0  0  0  0  0  0  0
    2.5569   -3.9363    4.9545 H   0  0  0  0  0  0  0  0  0  0  0  0
    4.2202   -3.6418    4.4939 H   0  0  0  0  0  0  0  0  0  0  0  0
    4.9717   -1.4155    3.7926 H   0  0  0  0  0  0  0  0  0  0  0  0
    5.0600   -0.2255    1.1322 H   0  0  0  0  0  0  0  0  0  0  0  0
    6.0220   -1.5801    1.7057 H   0  0  0  0  0  0  0  0  0  0  0  0
    2.8570   -1.5764   -0.2842 H   0  0  0  0  0  0  0  0  0  0  0  0
    2.6327   -2.6119   -2.5129 H   0  0  0  0  0  0  0  0  0  0  0  0
    5.3800   -4.1661   -4.3713 H   0  0  0  0  0  0  0  0  0  0  0  0
    3.6997   -3.8384   -4.3438 H   0  0  0  0  0  0  0  0  0  0  0  0
    6.8690   -3.4499   -2.5373 H   0  0  0  0  0  0  0  0  0  0  0  0
    7.0852   -2.4310   -0.2849 H   0  0  0  0  0  0  0  0  0  0  0  0
    2.5933    0.2485    1.7493 H   0  0  0  0  0  0  0  0  0  0  0  0
    3.2200    3.3827    5.7486 H   0  0  0  0  0  0  0  0  0  0  0  0
    4.3065    3.2087    4.3881 H   0  0  0  0  0  0  0  0  0  0  0  0
    3.7414    1.7909    5.2243 H   0  0  0  0  0  0  0  0  0  0  0  0
    1.6613    4.8559    4.1161 H   0  0  0  0  0  0  0  0  0  0  0  0
    1.4098    4.1981    2.4919 H   0  0  0  0  0  0  0  0  0  0  0  0
    3.0135    4.5950    3.0045 H   0  0  0  0  0  0  0  0  0  0  0  0
    0.8116    2.7522    5.4989 H   0  0  0  0  0  0  0  0  0  0  0  0
   -1.1993    2.1008    4.3009 H   0  0  0  0  0  0  0  0  0  0  0  0
   -0.4875    3.4181    3.4576 H   0  0  0  0  0  0  0  0  0  0  0  0
   -1.2655    1.4777    1.9841 H   0  0  0  0  0  0  0  0  0  0  0  0
    0.3720    1.9616    1.6901 H   0  0  0  0  0  0  0  0  0  0  0  0
    2.0361    0.5574    5.4791 H   0  0  0  0  0  0  0  0  0  0  0  0
  1  2  1  0
  1 30  1  0
  1 31  1  0
  1 32  1  0
  2 29  1  0
  2  3  1  0
  2 33  1  6
  3  4  1  0
  3 34  1  0
  3 35  1  0
  4  5  1  0
  4 36  1  0
  4 37  1  0
  5 28  1  0
  5  6  1  0
  5 38  1  6
  6  7  1  0
  6  8  1  0
  6 39  1  1
  7 40  1  0
  7 41  1  0
  7 42  1  0
  8  9  1  0
  8 18  1  0
  8 43  1  1
  9 10  1  0
 10 11  1  0
 10 44  1  0
 10 45  1  0
 11 17  1  0
 11 12  2  0
 12 13  1  0
 12 46  1  0
 13 14  2  0
 13 47  1  0
 14 15  1  0
 14 16  1  0
 15 48  1  0
 15 49  1  0
 16 17  2  0
 16 50  1  0
 17 51  1  0
 18 19  1  0
 19 28  1  0
 19 20  1  0
 19 52  1  6
 20 21  1  0
 21 22  1  0
 21 23  1  0
 21 24  1  0
 22 53  1  0
 22 54  1  0
 22 55  1  0
 23 56  1  0
 23 57  1  0
 23 58  1  0
 24 29  1  0
 24 25  1  0
 24 59  1  1
 25 26  1  0
 25 60  1  0
 25 61  1  0
 26 27  1  0
 26 62  1  0
 26 63  1  0
 28 27  1  6
 28 29  1  0
 29 64  1  1
M  END
>  <i_m_ct_stereo_status>  (49) 
1

>  <s_m_source_file>  (49) 
/var/tmp/pbs.5076255.sched01/tmphrtf3o8j/0_qqz9eae.sdf

>  <i_m_source_file_index>  (49) 
24

>  <i_lp_mmshare_version>  (49) 
48012

>  <i_f3d_flags>  (49) 
0

>  <s_epik_input>  (49) 
W0NAXTEyM1tDQEBIXTRbQ0gyXVtDSDJdW0NAQEhdKFtDSDNdKVtDQEBIXTNbQ0hdKFtDSDJdW0NIMl1PMilDKFtDSDNdKShbQ0gzXSlPW0NASF0xT1tDQEBIXShbQ0BASF00W0NIM10pT1tDSDJdYzVbY0hdW2NIXWMoW05IMl0pW2NIXVtjSF01

>  <s_epik_cmdline>  (49) 
J2VwaWtfcHl0aG9uJywgJy1waHQnLCAnMi4wJywgJy1waCcsICc3LjAnLCAnLXRuJywgJzgnLCAnLW1hJywgJzIwMCcsICctaW1hZScsICc8aW5maWxlLm1hZT4nLCAnLW9tYWUnLCAnPG91dGZpbGUubWFlPic=

>  <r_epik_Ionization_Penalty>  (49) 
0.00180676

>  <r_epik_Ionization_Penalty_Charging>  (49) 
0

>  <r_epik_Ionization_Penalty_Neutral>  (49) 
0.00180676

>  <r_epik_State_Penalty>  (49) 
0.00122574

>  <r_epik_Charging_Adjusted_Penalty>  (49) 
0.00122574

>  <i_epik_Tot_Q>  (49) 
0

>  <i_epik_Tot_abs_Q>  (49) 
0

>  <s_epik_Chemistry_Notes>  (49) 
This compound contains an acetal/aminal-like group ( X-CH(R)-Y where X, Y are N, S, or O) that may be acid/base labile, releasing an aldehyde.

>  <s_lp_Force_Field>  (49) 
OPLS3e

>  <r_lp_Energy>  (49) 
47.2692

>  <b_lp_Chiralities_Consistent>  (49) 
1

>  <s_lp_Variant>  (49) 
19:0-1

>  <s_i_glide_gridfile>  (49) 
pfpi4k_grid

>  <i_i_glide_lignum>  (49) 
24

>  <i_i_glide_rotatable_bonds>  (49) 
3

>  <r_i_docking_score>  (49) 
-2.24336

>  <r_i_glide_ligand_efficiency>  (49) 
-0.0773572

>  <r_i_glide_ligand_efficiency_sa>  (49) 
-0.237666

>  <r_i_glide_ligand_efficiency_ln>  (49) 
-0.513672

>  <r_i_glide_gscore>  (49) 
-2.24336

>  <r_i_glide_lipo>  (49) 
-0.364703

>  <r_i_glide_hbond>  (49) 
0

>  <r_i_glide_metal>  (49) 
-0

>  <r_i_glide_rewards>  (49) 
-0.681197

>  <r_i_glide_evdw>  (49) 
-32.6134

>  <r_i_glide_ecoul>  (49) 
0.454967

>  <r_i_glide_erotb>  (49) 
0.364968

>  <r_i_glide_esite>  (49) 
0

>  <r_i_glide_emodel>  (49) 
-36.5922

>  <r_i_glide_energy>  (49) 
-32.1585

>  <r_i_glide_einternal>  (49) 
0.0475665

>  <r_i_glide_intrahb_reward>  (49) 
-0

>  <i_i_glide_confnum>  (49) 
4

>  <i_i_glide_posenum>  (49) 
1

>  <r_i_glide_eff_state_penalty>  (49) 
0

>  <ligand_id>  (49) 
19

>  <original_smiles>  (49) 
CC1CCC2C(C)C(OCc3ccc(N)cc3)OC3OC(C)(C)C4CCOC32C14

>  <smiles>  (49) 
[H]c1c([H])c(C([H])([H])OC2([H])OC3([H])OC(C([H])([H])[H])(C([H])([H])[H])C4([H])C([H])([H])C([H])([H])OC35C([H])(C([H])([H])C([H])([H])C([H])(C([H])([H])[H])C45[H])C2([H])C([H])([H])[H])c([H])c([H])c1N([H])[H]

$$$$
19:0:2
     RDKit          3D

 64 68  0  0  1  0  0  0  0  0999 V2000
   -0.8795    0.9930    6.8481 C   0  0  0  0  0  0  0  0  0  0  0  0
   -0.4177    0.3028    5.5518 C   0  0  2  0  0  0  0  0  0  0  0  0
   -0.1665   -1.1973    5.7855 C   0  0  0  0  0  0  0  0  0  0  0  0
    0.2362   -1.8993    4.4794 C   0  0  0  0  0  0  0  0  0  0  0  0
    1.5059   -1.2854    3.8485 C   0  0  2  0  0  0  0  0  0  0  0  0
    2.7872   -1.5997    4.6686 C   0  0  1  0  0  0  0  0  0  0  0  0
    3.0898   -3.1094    4.7978 C   0  0  0  0  0  0  0  0  0  0  0  0
    3.9890   -0.8909    4.0143 C   0  0  1  0  0  0  0  0  0  0  0  0
    4.2243   -1.4371    2.7569 O   0  0  0  0  0  0  0  0  0  0  0  0
    5.3943   -0.9594    2.1094 C   0  0  0  0  0  0  0  0  0  0  0  0
    5.5125   -1.5569    0.7259 C   0  0  0  0  0  0  0  0  0  0  0  0
    6.7336   -2.0757    0.2547 C   0  0  0  0  0  0  0  0  0  0  0  0
    6.8126   -2.6479   -1.0295 C   0  0  0  0  0  0  0  0  0  0  0  0
    5.6682   -2.6808   -1.8498 C   0  0  0  0  0  0  0  0  0  0  0  0
    5.7513   -3.2371   -3.1186 N   0  0  0  0  0  0  0  0  0  0  0  0
    4.4514   -2.1568   -1.3878 C   0  0  0  0  0  0  0  0  0  0  0  0
    4.3720   -1.5903   -0.1053 C   0  0  0  0  0  0  0  0  0  0  0  0
    3.7181    0.4768    3.9800 O   0  0  0  0  0  0  0  0  0  0  0  0
    2.6569    0.8415    3.1373 C   0  0  2  0  0  0  0  0  0  0  0  0
    2.6007    2.2368    3.0126 O   0  0  0  0  0  0  0  0  0  0  0  0
    2.0678    3.0257    4.0822 C   0  0  0  0  0  0  0  0  0  0  0  0
    3.0778    3.1198    5.2511 C   0  0  0  0  0  0  0  0  0  0  0  0
    1.9443    4.4358    3.4704 C   0  0  0  0  0  0  0  0  0  0  0  0
    0.6868    2.4547    4.5357 C   0  0  1  0  0  0  0  0  0  0  0  0
   -0.4116    2.5605    3.4523 C   0  0  0  0  0  0  0  0  0  0  0  0
   -0.1033    1.6621    2.2401 C   0  0  0  0  0  0  0  0  0  0  0  0
    0.2901    0.3456    2.6341 O   0  0  0  0  0  0  0  0  0  0  0  0
    1.3040    0.2416    3.6439 C   0  0  1  0  0  0  0  0  0  0  0  0
    0.8434    0.9687    4.9291 C   0  0  2  0  0  0  0  0  0  0  0  0
   -0.0901    1.0001    7.6017 H   0  0  0  0  0  0  0  0  0  0  0  0
   -1.7467    0.4926    7.2705 H   0  0  0  0  0  0  0  0  0  0  0  0
   -1.1891    2.0222    6.6682 H   0  0  0  0  0  0  0  0  0  0  0  0
   -1.2448    0.3594    4.8455 H   0  0  0  0  0  0  0  0  0  0  0  0
    0.6042   -1.3358    6.5445 H   0  0  0  0  0  0  0  0  0  0  0  0
   -1.0666   -1.6694    6.1736 H   0  0  0  0  0  0  0  0  0  0  0  0
    0.3524   -2.9705    4.6433 H   0  0  0  0  0  0  0  0  0  0  0  0
   -0.5832   -1.8046    3.7683 H   0  0  0  0  0  0  0  0  0  0  0  0
    1.6320   -1.7390    2.8623 H   0  0  0  0  0  0  0  0  0  0  0  0
    2.6972   -1.1864    5.6741 H   0  0  0  0  0  0  0  0  0  0  0  0
    3.0963   -3.6046    3.8242 H   0  0  0  0  0  0  0  0  0  0  0  0
    2.3464   -3.6122    5.4176 H   0  0  0  0  0  0  0  0  0  0  0  0
    4.0598   -3.2816    5.2666 H   0  0  0  0  0  0  0  0  0  0  0  0
    4.8774   -1.0440    4.6276 H   0  0  0  0  0  0  0  0  0  0  0  0
    5.3483    0.1221    1.9966 H   0  0  0  0  0  0  0  0  0  0  0  0
    6.2843   -1.1890    2.6936 H   0  0  0  0  0  0  0  0  0  0  0  0
    7.6184   -2.0531    0.8753 H   0  0  0  0  0  0  0  0  0  0  0  0
    7.7474   -3.0586   -1.3811 H   0  0  0  0  0  0  0  0  0  0  0  0
    4.9421   -3.3063   -3.7171 H   0  0  0  0  0  0  0  0  0  0  0  0
    6.6258   -3.5749   -3.4992 H   0  0  0  0  0  0  0  0  0  0  0  0
    3.5627   -2.1880   -2.0049 H   0  0  0  0  0  0  0  0  0  0  0  0
    3.4302   -1.1930    0.2485 H   0  0  0  0  0  0  0  0  0  0  0  0
    2.8696    0.4808    2.1311 H   0  0  0  0  0  0  0  0  0  0  0  0
    2.6903    3.7477    6.0525 H   0  0  0  0  0  0  0  0  0  0  0  0
    4.0213    3.5523    4.9197 H   0  0  0  0  0  0  0  0  0  0  0  0
    3.3216    2.1592    5.6965 H   0  0  0  0  0  0  0  0  0  0  0  0
    1.3960    5.1196    4.1201 H   0  0  0  0  0  0  0  0  0  0  0  0
    1.4377    4.4053    2.5047 H   0  0  0  0  0  0  0  0  0  0  0  0
    2.9262    4.8693    3.2756 H   0  0  0  0  0  0  0  0  0  0  0  0
    0.3636    3.0354    5.3997 H   0  0  0  0  0  0  0  0  0  0  0  0
   -1.3761    2.2787    3.8707 H   0  0  0  0  0  0  0  0  0  0  0  0
   -0.5545    3.5904    3.1282 H   0  0  0  0  0  0  0  0  0  0  0  0
   -0.9899    1.5846    1.6117 H   0  0  0  0  0  0  0  0  0  0  0  0
    0.6589    2.1164    1.6075 H   0  0  0  0  0  0  0  0  0  0  0  0
    1.6228    0.8774    5.6812 H   0  0  0  0  0  0  0  0  0  0  0  0
  1  2  1  0
  1 30  1  0
  1 31  1  0
  1 32  1  0
  2 29  1  0
  2  3  1  0
  2 33  1  6
  3  4  1  0
  3 34  1  0
  3 35  1  0
  4  5  1  0
  4 36  1  0
  4 37  1  0
  5 28  1  0
  5  6  1  0
  5 38  1  6
  6  7  1  0
  6  8  1  0
  6 39  1  1
  7 40  1  0
  7 41  1  0
  7 42  1  0
  8  9  1  0
  8 18  1  0
  8 43  1  1
  9 10  1  0
 10 11  1  0
 10 44  1  0
 10 45  1  0
 11 17  1  0
 11 12  2  0
 12 13  1  0
 12 46  1  0
 13 14  2  0
 13 47  1  0
 14 15  1  0
 14 16  1  0
 15 48  1  0
 15 49  1  0
 16 17  2  0
 16 50  1  0
 17 51  1  0
 18 19  1  0
 19 28  1  0
 19 20  1  0
 19 52  1  6
 20 21  1  0
 21 22  1  0
 21 23  1  0
 21 24  1  0
 22 53  1  0
 22 54  1  0
 22 55  1  0
 23 56  1  0
 23 57  1  0
 23 58  1  0
 24 29  1  0
 24 25  1  0
 24 59  1  1
 25 26  1  0
 25 60  1  0
 25 61  1  0
 26 27  1  0
 26 62  1  0
 26 63  1  0
 28 27  1  6
 28 29  1  0
 29 64  1  1
M  END
>  <i_m_ct_stereo_status>  (50) 
1

>  <s_m_source_file>  (50) 
/var/tmp/pbs.5076255.sched01/tmphrtf3o8j/0_qqz9eae.sdf

>  <i_m_source_file_index>  (50) 
24

>  <i_lp_mmshare_version>  (50) 
48012

>  <i_f3d_flags>  (50) 
0

>  <s_epik_input>  (50) 
W0NAXTEyM1tDQEBIXTRbQ0gyXVtDSDJdW0NAQEhdKFtDSDNdKVtDQEBIXTNbQ0hdKFtDSDJdW0NIMl1PMilDKFtDSDNdKShbQ0gzXSlPW0NASF0xT1tDQEBIXShbQ0BASF00W0NIM10pT1tDSDJdYzVbY0hdW2NIXWMoW05IMl0pW2NIXVtjSF01

>  <s_epik_cmdline>  (50) 
J2VwaWtfcHl0aG9uJywgJy1waHQnLCAnMi4wJywgJy1waCcsICc3LjAnLCAnLXRuJywgJzgnLCAnLW1hJywgJzIwMCcsICctaW1hZScsICc8aW5maWxlLm1hZT4nLCAnLW9tYWUnLCAnPG91dGZpbGUubWFlPic=

>  <r_epik_Ionization_Penalty>  (50) 
0.00180676

>  <r_epik_Ionization_Penalty_Charging>  (50) 
0

>  <r_epik_Ionization_Penalty_Neutral>  (50) 
0.00180676

>  <r_epik_State_Penalty>  (50) 
0.00122574

>  <r_epik_Charging_Adjusted_Penalty>  (50) 
0.00122574

>  <i_epik_Tot_Q>  (50) 
0

>  <i_epik_Tot_abs_Q>  (50) 
0

>  <s_epik_Chemistry_Notes>  (50) 
This compound contains an acetal/aminal-like group ( X-CH(R)-Y where X, Y are N, S, or O) that may be acid/base labile, releasing an aldehyde.

>  <s_lp_Force_Field>  (50) 
OPLS3e

>  <r_lp_Energy>  (50) 
47.2692

>  <b_lp_Chiralities_Consistent>  (50) 
1

>  <s_lp_Variant>  (50) 
19:0-1

>  <s_i_glide_gridfile>  (50) 
pfpi4k_grid

>  <i_i_glide_lignum>  (50) 
24

>  <i_i_glide_rotatable_bonds>  (50) 
3

>  <r_i_docking_score>  (50) 
-2.19699

>  <r_i_glide_ligand_efficiency>  (50) 
-0.0757582

>  <r_i_glide_ligand_efficiency_sa>  (50) 
-0.232753

>  <r_i_glide_ligand_efficiency_ln>  (50) 
-0.503055

>  <r_i_glide_gscore>  (50) 
-2.19699

>  <r_i_glide_lipo>  (50) 
-0.251609

>  <r_i_glide_hbond>  (50) 
-0.166033

>  <r_i_glide_metal>  (50) 
-0

>  <r_i_glide_rewards>  (50) 
-0.677434

>  <r_i_glide_evdw>  (50) 
-31.2986

>  <r_i_glide_ecoul>  (50) 
0.669137

>  <r_i_glide_erotb>  (50) 
0.364968

>  <r_i_glide_esite>  (50) 
-0.00232148

>  <r_i_glide_emodel>  (50) 
-34.9231

>  <r_i_glide_energy>  (50) 
-30.6295

>  <r_i_glide_einternal>  (50) 
0.164004

>  <r_i_glide_intrahb_reward>  (50) 
-0

>  <i_i_glide_confnum>  (50) 
5

>  <i_i_glide_posenum>  (50) 
22

>  <r_i_glide_eff_state_penalty>  (50) 
0

>  <ligand_id>  (50) 
19

>  <original_smiles>  (50) 
CC1CCC2C(C)C(OCc3ccc(N)cc3)OC3OC(C)(C)C4CCOC32C14

>  <smiles>  (50) 
[H]c1c([H])c(C([H])([H])OC2([H])OC3([H])OC(C([H])([H])[H])(C([H])([H])[H])C4([H])C([H])([H])C([H])([H])OC35C([H])(C([H])([H])C([H])([H])C([H])(C([H])([H])[H])C45[H])C2([H])C([H])([H])[H])c([H])c([H])c1N([H])[H]

$$$$
21:0:0
     RDKit          3D

 70 76  0  0  1  0  0  0  0  0999 V2000
   -0.7660   -3.7719    9.4251 C   0  0  0  0  0  0  0  0  0  0  0  0
   -0.2931   -3.9958    7.9775 C   0  0  0  0  0  0  0  0  0  0  0  0
   -0.5753   -5.4273    7.5033 C   0  0  0  0  0  0  0  0  0  0  0  0
   -0.9803   -3.0753    7.1593 O   0  0  0  0  0  0  0  0  0  0  0  0
    0.0078   -2.6646    6.2456 C   0  0  2  0  0  0  0  0  0  0  0  0
    1.1399   -2.5423    7.2171 C   0  0  1  0  0  0  0  0  0  0  0  0
    1.0910   -3.7772    7.8831 O   0  0  0  0  0  0  0  0  0  0  0  0
    2.3010   -2.0426    6.3571 C   0  0  1  0  0  0  0  0  0  0  0  0
    2.8843   -3.0874    5.5724 O   0  0  0  0  0  0  0  0  0  0  0  0
    3.3057   -2.5835    4.3072 C   0  0  2  0  0  0  0  0  0  0  0  0
    4.6402   -1.8185    4.5299 C   0  0  0  0  0  0  0  0  0  0  0  0
    2.0749   -1.7357    4.0085 C   0  0  2  0  0  0  0  0  0  0  0  0
    2.3089   -0.8863    2.7710 C   0  0  0  0  0  0  0  0  0  0  0  0
    2.5390   -1.8362    1.5865 C   0  0  0  0  0  0  0  0  0  0  0  0
    3.5702   -3.0113    1.7629 C   0  0  2  0  0  0  0  0  0  0  0  0
    3.5277   -4.0023    0.4734 C   0  0  1  0  0  0  0  0  0  0  0  0
    3.0426   -3.2417   -0.8117 C   0  0  0  0  0  0  0  0  0  0  0  0
    4.9806   -4.4385    0.0303 C   0  0  0  0  0  0  0  0  0  0  0  0
    5.7301   -3.6379   -0.5261 O   0  0  0  0  0  0  0  0  0  0  0  0
    5.5416   -5.8473    0.3519 C   0  0  0  0  0  0  0  0  0  0  0  0
    5.1828   -6.2215    1.7661 C   0  0  0  0  0  0  0  0  0  0  0  0
    5.3056   -5.2936    2.7164 C   0  0  0  0  0  0  0  0  0  0  0  0
    4.2056   -4.9716    3.6316 C   0  0  2  0  0  0  0  0  0  0  0  0
    4.5722   -5.3443    5.0607 C   0  0  0  0  0  0  0  0  0  0  0  0
    2.6924   -4.9376    3.3348 C   0  0  2  0  0  0  0  0  0  0  0  0
    1.9763   -5.4210    2.0905 C   0  0  0  0  0  0  0  0  0  0  0  0
    0.8562   -5.9163    2.2159 O   0  0  0  0  0  0  0  0  0  0  0  0
    2.5826   -5.2646    0.6766 C   0  0  1  0  0  0  0  0  0  0  0  0
    1.5735   -5.4444   -0.3195 O   0  0  0  0  0  0  0  0  0  0  0  0
    3.4737   -3.6661    3.2161 C   0  0  1  0  0  0  0  0  0  0  0  0
    1.6099   -1.0923    5.3359 C   0  0  2  0  0  0  0  0  0  0  0  0
    2.0310    0.3839    5.5054 C   0  0  0  0  0  0  0  0  0  0  0  0
    0.0739   -1.2660    5.6298 C   0  0  1  0  0  0  0  0  0  0  0  0
   -0.7345   -1.1444    4.4783 O   0  0  0  0  0  0  0  0  0  0  0  0
   -0.5803   -2.7436    9.7307 H   0  0  0  0  0  0  0  0  0  0  0  0
   -0.2481   -4.4460   10.1086 H   0  0  0  0  0  0  0  0  0  0  0  0
   -1.8384   -3.9673    9.4896 H   0  0  0  0  0  0  0  0  0  0  0  0
   -0.2103   -5.5820    6.4891 H   0  0  0  0  0  0  0  0  0  0  0  0
   -1.6472   -5.6187    7.5378 H   0  0  0  0  0  0  0  0  0  0  0  0
   -0.0694   -6.1342    8.1625 H   0  0  0  0  0  0  0  0  0  0  0  0
    0.2006   -3.4443    5.5054 H   0  0  0  0  0  0  0  0  0  0  0  0
    0.9115   -1.7682    7.9564 H   0  0  0  0  0  0  0  0  0  0  0  0
    3.0632   -1.5477    6.9581 H   0  0  0  0  0  0  0  0  0  0  0  0
    4.9925   -1.3151    3.6300 H   0  0  0  0  0  0  0  0  0  0  0  0
    5.4314   -2.5075    4.8282 H   0  0  0  0  0  0  0  0  0  0  0  0
    4.5791   -1.0703    5.3161 H   0  0  0  0  0  0  0  0  0  0  0  0
    1.2957   -2.4458    3.7273 H   0  0  0  0  0  0  0  0  0  0  0  0
    1.4412   -0.2561    2.5693 H   0  0  0  0  0  0  0  0  0  0  0  0
    3.1547   -0.2093    2.8950 H   0  0  0  0  0  0  0  0  0  0  0  0
    1.5670   -2.2551    1.3230 H   0  0  0  0  0  0  0  0  0  0  0  0
    2.8344   -1.1981    0.7539 H   0  0  0  0  0  0  0  0  0  0  0  0
    4.5447   -2.5230    1.7361 H   0  0  0  0  0  0  0  0  0  0  0  0
    1.9878   -2.9628   -0.7745 H   0  0  0  0  0  0  0  0  0  0  0  0
    3.1496   -3.8582   -1.7104 H   0  0  0  0  0  0  0  0  0  0  0  0
    3.6115   -2.3278   -1.0067 H   0  0  0  0  0  0  0  0  0  0  0  0
    5.1072   -6.5730   -0.3364 H   0  0  0  0  0  0  0  0  0  0  0  0
    6.6232   -5.8554    0.2158 H   0  0  0  0  0  0  0  0  0  0  0  0
    4.4208   -6.9801    1.8654 H   0  0  0  0  0  0  0  0  0  0  0  0
    5.9762   -4.4593    2.5505 H   0  0  0  0  0  0  0  0  0  0  0  0
    3.7034   -5.3281    5.7167 H   0  0  0  0  0  0  0  0  0  0  0  0
    5.3195   -4.6573    5.4535 H   0  0  0  0  0  0  0  0  0  0  0  0
    4.9841   -6.3539    5.1040 H   0  0  0  0  0  0  0  0  0  0  0  0
    2.0632   -5.0055    4.2181 H   0  0  0  0  0  0  0  0  0  0  0  0
    3.1271   -6.1835    0.4943 H   0  0  0  0  0  0  0  0  0  0  0  0
    1.9965   -5.4566   -1.1793 H   0  0  0  0  0  0  0  0  0  0  0  0
    1.4835    1.0267    4.8153 H   0  0  0  0  0  0  0  0  0  0  0  0
    3.0928    0.5334    5.3175 H   0  0  0  0  0  0  0  0  0  0  0  0
    1.8250    0.7353    6.5188 H   0  0  0  0  0  0  0  0  0  0  0  0
   -0.2585   -0.5248    6.3620 H   0  0  0  0  0  0  0  0  0  0  0  0
   -0.5782   -0.2958    4.0934 H   0  0  0  0  0  0  0  0  0  0  0  0
  1  2  1  0
  1 35  1  0
  1 36  1  0
  1 37  1  0
  2  7  1  0
  2  3  1  0
  2  4  1  0
  3 38  1  0
  3 39  1  0
  3 40  1  0
  4  5  1  0
  5 33  1  0
  5  6  1  0
  5 41  1  6
  6  7  1  0
  6  8  1  0
  6 42  1  1
  8 31  1  0
  8  9  1  0
  8 43  1  1
  9 10  1  0
 30 10  1  1
 10 11  1  1
 10 12  1  0
 11 44  1  0
 11 45  1  0
 11 46  1  0
 12 13  1  0
 12 31  1  0
 12 47  1  6
 13 14  1  0
 13 48  1  0
 13 49  1  0
 14 15  1  0
 14 50  1  0
 14 51  1  0
 15 30  1  0
 15 16  1  0
 15 52  1  1
 16 28  1  0
 16 17  1  6
 16 18  1  0
 17 53  1  0
 17 54  1  0
 17 55  1  0
 18 19  2  0
 18 20  1  0
 20 21  1  0
 20 56  1  0
 20 57  1  0
 21 22  2  3
 21 58  1  0
 22 23  1  0
 22 59  1  0
 23 30  1  0
 23 24  1  1
 23 25  1  0
 24 60  1  0
 24 61  1  0
 24 62  1  0
 25 26  1  0
 25 30  1  0
 25 63  1  1
 26 27  2  0
 26 28  1  0
 28 29  1  0
 28 64  1  6
 29 65  1  0
 31 32  1  6
 31 33  1  0
 32 66  1  0
 32 67  1  0
 32 68  1  0
 33 34  1  0
 33 69  1  1
 34 70  1  0
M  END
>  <i_m_ct_stereo_status>  (51) 
1

>  <s_m_source_file>  (51) 
/var/tmp/pbs.5076255.sched01/tmphrtf3o8j/0_qqz9eae.sdf

>  <i_m_source_file_index>  (51) 
26

>  <i_lp_mmshare_version>  (51) 
48012

>  <i_f3d_flags>  (51) 
0

>  <s_epik_input>  (51) 
W0NIM11DKE8xKShbQ0gzXSlPW0NAQEhdKFtDQEBIXTJbT0hdKVtDQEBIXTFbQ0BASF0oTzMpW0NAQF0yKFtDSDNdKVtDQEhdKFtDQEBdMyhbQ0BAXTQ1NilbQ0gzXSlbQ0gyXVtDSDJdW0NAQEhdNFtDQEBdNyhbQ0gzXSlDKD1PKVtDSDJdL1tDSF09W0NIXVxbQ0BdNShbQ0gzXSlbQ0BASF02Qyg9TylbQ0BIXTdbT0hd

>  <s_epik_cmdline>  (51) 
J2VwaWtfcHl0aG9uJywgJy1waHQnLCAnMi4wJywgJy1waCcsICc3LjAnLCAnLXRuJywgJzgnLCAnLW1hJywgJzIwMCcsICctaW1hZScsICc8aW5maWxlLm1hZT4nLCAnLW9tYWUnLCAnPG91dGZpbGUubWFlPic=

>  <r_lp_tautomer_probability>  (51) 
1

>  <r_epik_Ionization_Penalty>  (51) 
9.92127e-07

>  <r_epik_Ionization_Penalty_Charging>  (51) 
0

>  <r_epik_Ionization_Penalty_Neutral>  (51) 
9.92127e-07

>  <r_epik_State_Penalty>  (51) 
-0

>  <r_epik_Charging_Adjusted_Penalty>  (51) 
0

>  <i_epik_Tot_Q>  (51) 
0

>  <i_epik_Tot_abs_Q>  (51) 
0

>  <s_lp_Force_Field>  (51) 
OPLS3e

>  <r_lp_Energy>  (51) 
96.8328

>  <b_lp_Chiralities_Consistent>  (51) 
1

>  <s_lp_Variant>  (51) 
21:0-1

>  <s_i_glide_gridfile>  (51) 
pfpi4k_grid

>  <i_i_glide_lignum>  (51) 
26

>  <i_i_glide_rotatable_bonds>  (51) 
2

>  <r_i_docking_score>  (51) 
-3.25147

>  <r_i_glide_ligand_efficiency>  (51) 
-0.0956315

>  <r_i_glide_ligand_efficiency_sa>  (51) 
-0.309809

>  <r_i_glide_ligand_efficiency_ln>  (51) 
-0.718341

>  <r_i_glide_gscore>  (51) 
-3.25147

>  <r_i_glide_lipo>  (51) 
-0.294515

>  <r_i_glide_hbond>  (51) 
-0.089447

>  <r_i_glide_metal>  (51) 
-0

>  <r_i_glide_rewards>  (51) 
-0.251219

>  <r_i_glide_evdw>  (51) 
-23.9202

>  <r_i_glide_ecoul>  (51) 
-9.07413

>  <r_i_glide_erotb>  (51) 
0

>  <r_i_glide_esite>  (51) 
-0.0591635

>  <r_i_glide_emodel>  (51) 
-40.2928

>  <r_i_glide_energy>  (51) 
-32.9943

>  <r_i_glide_einternal>  (51) 
0.370542

>  <r_i_glide_intrahb_reward>  (51) 
-0

>  <i_i_glide_confnum>  (51) 
2

>  <i_i_glide_posenum>  (51) 
1

>  <r_i_glide_eff_state_penalty>  (51) 
0

>  <ligand_id>  (51) 
21

>  <original_smiles>  (51) 
CC1(C)OC2C(O1)C1OC3(C)C(CCC4C5(C)C(=O)CC=CC6(C)C(C(=O)C5O)C463)C1(C)C2O

>  <smiles>  (51) 
[H]OC1([H])C(=O)C2([H])C3(C([H])([H])[H])C([H])=C([H])C([H])([H])C(=O)C1(C([H])([H])[H])C1([H])C([H])([H])C([H])([H])C4([H])C(C([H])([H])[H])(OC5([H])C6([H])OC(C([H])([H])[H])(C([H])([H])[H])OC6([H])C([H])(O[H])C54C([H])([H])[H])C213

$$$$
21:0:1
     RDKit          3D

 70 76  0  0  1  0  0  0  0  0999 V2000
    4.2620   -6.0503    4.1591 C   0  0  0  0  0  0  0  0  0  0  0  0
    3.2778   -4.9133    4.4883 C   0  0  0  0  0  0  0  0  0  0  0  0
    1.8256   -5.2916    4.1477 C   0  0  0  0  0  0  0  0  0  0  0  0
    3.3915   -4.6370    5.8660 O   0  0  0  0  0  0  0  0  0  0  0  0
    3.3201   -3.2347    5.9259 C   0  0  2  0  0  0  0  0  0  0  0  0
    4.1823   -2.9463    4.7342 C   0  0  1  0  0  0  0  0  0  0  0  0
    3.6032   -3.7628    3.7478 O   0  0  0  0  0  0  0  0  0  0  0  0
    4.2346   -1.4189    4.6969 C   0  0  1  0  0  0  0  0  0  0  0  0
    3.0338   -0.8471    4.1680 O   0  0  0  0  0  0  0  0  0  0  0  0
    2.7306    0.3772    4.8322 C   0  0  2  0  0  0  0  0  0  0  0  0
    3.6625    1.4709    4.2546 C   0  0  0  0  0  0  0  0  0  0  0  0
    3.0216   -0.0879    6.2521 C   0  0  2  0  0  0  0  0  0  0  0  0
    2.9715    1.0858    7.2142 C   0  0  0  0  0  0  0  0  0  0  0  0
    1.5474    1.6603    7.1820 C   0  0  0  0  0  0  0  0  0  0  0  0
    0.9073    1.9585    5.7741 C   0  0  2  0  0  0  0  0  0  0  0  0
   -0.6470    2.3905    5.9448 C   0  0  1  0  0  0  0  0  0  0  0  0
   -0.9019    3.0347    7.3585 C   0  0  0  0  0  0  0  0  0  0  0  0
   -1.0448    3.5943    4.9919 C   0  0  0  0  0  0  0  0  0  0  0  0
   -0.6745    4.7398    5.2440 O   0  0  0  0  0  0  0  0  0  0  0  0
   -1.8677    3.3792    3.6916 C   0  0  0  0  0  0  0  0  0  0  0  0
   -1.3635    2.1467    2.9866 C   0  0  0  0  0  0  0  0  0  0  0  0
   -0.0428    1.9560    2.9047 C   0  0  0  0  0  0  0  0  0  0  0  0
    0.5939    0.7005    3.3162 C   0  0  2  0  0  0  0  0  0  0  0  0
    1.2185    0.0086    2.1180 C   0  0  0  0  0  0  0  0  0  0  0  0
    0.2142   -0.2357    4.4793 C   0  0  2  0  0  0  0  0  0  0  0  0
   -1.0281   -0.1722    5.3340 C   0  0  0  0  0  0  0  0  0  0  0  0
   -1.5620   -1.2268    5.6823 O   0  0  0  0  0  0  0  0  0  0  0  0
   -1.6426    1.1677    5.7800 C   0  0  1  0  0  0  0  0  0  0  0  0
   -2.4953    0.9477    6.8942 O   0  0  0  0  0  0  0  0  0  0  0  0
    1.2545    0.8150    4.7160 C   0  0  1  0  0  0  0  0  0  0  0  0
    4.2533   -1.0212    6.2031 C   0  0  2  0  0  0  0  0  0  0  0  0
    5.5767   -0.3482    6.6288 C   0  0  0  0  0  0  0  0  0  0  0  0
    4.0499   -2.3806    6.9670 C   0  0  1  0  0  0  0  0  0  0  0  0
    3.3395   -2.2340    8.1798 O   0  0  0  0  0  0  0  0  0  0  0  0
    5.2768   -5.7738    4.4418 H   0  0  0  0  0  0  0  0  0  0  0  0
    4.2328   -6.2857    3.0941 H   0  0  0  0  0  0  0  0  0  0  0  0
    3.9816   -6.9423    4.7222 H   0  0  0  0  0  0  0  0  0  0  0  0
    1.1535   -4.4615    4.3595 H   0  0  0  0  0  0  0  0  0  0  0  0
    1.5154   -6.1658    4.7228 H   0  0  0  0  0  0  0  0  0  0  0  0
    1.7594   -5.5289    3.0857 H   0  0  0  0  0  0  0  0  0  0  0  0
    2.2937   -2.8989    5.7614 H   0  0  0  0  0  0  0  0  0  0  0  0
    5.1978   -3.3169    4.9096 H   0  0  0  0  0  0  0  0  0  0  0  0
    5.1015   -1.0554    4.1449 H   0  0  0  0  0  0  0  0  0  0  0  0
    3.5698    2.4256    4.7720 H   0  0  0  0  0  0  0  0  0  0  0  0
    3.4167    1.6647    3.2089 H   0  0  0  0  0  0  0  0  0  0  0  0
    4.7123    1.1903    4.2765 H   0  0  0  0  0  0  0  0  0  0  0  0
    2.1745   -0.7182    6.5220 H   0  0  0  0  0  0  0  0  0  0  0  0
    3.2177    0.7621    8.2267 H   0  0  0  0  0  0  0  0  0  0  0  0
    3.6999    1.8547    6.9555 H   0  0  0  0  0  0  0  0  0  0  0  0
    0.9046    0.9677    7.7301 H   0  0  0  0  0  0  0  0  0  0  0  0
    1.5940    2.5787    7.7667 H   0  0  0  0  0  0  0  0  0  0  0  0
    1.4266    2.8463    5.4124 H   0  0  0  0  0  0  0  0  0  0  0  0
   -0.8109    2.3271    8.1886 H   0  0  0  0  0  0  0  0  0  0  0  0
   -1.9136    3.4486    7.4316 H   0  0  0  0  0  0  0  0  0  0  0  0
   -0.2219    3.8645    7.5739 H   0  0  0  0  0  0  0  0  0  0  0  0
   -2.9228    3.2523    3.9390 H   0  0  0  0  0  0  0  0  0  0  0  0
   -1.7747    4.2478    3.0388 H   0  0  0  0  0  0  0  0  0  0  0  0
   -2.0160    1.2916    3.0302 H   0  0  0  0  0  0  0  0  0  0  0  0
    0.6166    2.8131    2.9847 H   0  0  0  0  0  0  0  0  0  0  0  0
    1.4924   -1.0207    2.3432 H   0  0  0  0  0  0  0  0  0  0  0  0
    2.1068    0.5439    1.7897 H   0  0  0  0  0  0  0  0  0  0  0  0
    0.5189   -0.0178    1.2836 H   0  0  0  0  0  0  0  0  0  0  0  0
    0.5948   -1.2484    4.3892 H   0  0  0  0  0  0  0  0  0  0  0  0
   -2.3969    1.3958    5.0355 H   0  0  0  0  0  0  0  0  0  0  0  0
   -2.9559    1.7552    7.0681 H   0  0  0  0  0  0  0  0  0  0  0  0
    5.5746   -0.1430    7.6998 H   0  0  0  0  0  0  0  0  0  0  0  0
    5.7458    0.5960    6.1137 H   0  0  0  0  0  0  0  0  0  0  0  0
    6.4313   -0.9955    6.4191 H   0  0  0  0  0  0  0  0  0  0  0  0
    5.0166   -2.8384    7.1895 H   0  0  0  0  0  0  0  0  0  0  0  0
    2.4872   -1.8790    7.9886 H   0  0  0  0  0  0  0  0  0  0  0  0
  1  2  1  0
  1 35  1  0
  1 36  1  0
  1 37  1  0
  2  7  1  0
  2  3  1  0
  2  4  1  0
  3 38  1  0
  3 39  1  0
  3 40  1  0
  4  5  1  0
  5 33  1  0
  5  6  1  0
  5 41  1  6
  6  7  1  0
  6  8  1  0
  6 42  1  1
  8 31  1  0
  8  9  1  0
  8 43  1  6
  9 10  1  0
 30 10  1  6
 10 11  1  6
 10 12  1  0
 11 44  1  0
 11 45  1  0
 11 46  1  0
 12 13  1  0
 12 31  1  0
 12 47  1  1
 13 14  1  0
 13 48  1  0
 13 49  1  0
 14 15  1  0
 14 50  1  0
 14 51  1  0
 15 30  1  0
 15 16  1  0
 15 52  1  6
 16 28  1  0
 16 17  1  1
 16 18  1  0
 17 53  1  0
 17 54  1  0
 17 55  1  0
 18 19  2  0
 18 20  1  0
 20 21  1  0
 20 56  1  0
 20 57  1  0
 21 22  2  3
 21 58  1  0
 22 23  1  0
 22 59  1  0
 23 30  1  0
 23 24  1  6
 23 25  1  0
 24 60  1  0
 24 61  1  0
 24 62  1  0
 25 26  1  0
 25 30  1  0
 25 63  1  6
 26 27  2  0
 26 28  1  0
 28 29  1  0
 28 64  1  6
 29 65  1  0
 31 32  1  1
 31 33  1  0
 32 66  1  0
 32 67  1  0
 32 68  1  0
 33 34  1  0
 33 69  1  1
 34 70  1  0
M  END
>  <i_m_ct_stereo_status>  (52) 
1

>  <s_m_source_file>  (52) 
/var/tmp/pbs.5076255.sched01/tmphrtf3o8j/0_qqz9eae.sdf

>  <i_m_source_file_index>  (52) 
26

>  <i_lp_mmshare_version>  (52) 
48012

>  <i_f3d_flags>  (52) 
0

>  <s_epik_input>  (52) 
W0NIM11DKE8xKShbQ0gzXSlPW0NAQEhdKFtDQEBIXTJbT0hdKVtDQEBIXTFbQ0BASF0oTzMpW0NAQF0yKFtDSDNdKVtDQEhdKFtDQEBdMyhbQ0BAXTQ1NilbQ0gzXSlbQ0gyXVtDSDJdW0NAQEhdNFtDQEBdNyhbQ0gzXSlDKD1PKVtDSDJdL1tDSF09W0NIXVxbQ0BdNShbQ0gzXSlbQ0BASF02Qyg9TylbQ0BIXTdbT0hd

>  <s_epik_cmdline>  (52) 
J2VwaWtfcHl0aG9uJywgJy1waHQnLCAnMi4wJywgJy1waCcsICc3LjAnLCAnLXRuJywgJzgnLCAnLW1hJywgJzIwMCcsICctaW1hZScsICc8aW5maWxlLm1hZT4nLCAnLW9tYWUnLCAnPG91dGZpbGUubWFlPic=

>  <r_lp_tautomer_probability>  (52) 
1

>  <r_epik_Ionization_Penalty>  (52) 
9.92127e-07

>  <r_epik_Ionization_Penalty_Charging>  (52) 
0

>  <r_epik_Ionization_Penalty_Neutral>  (52) 
9.92127e-07

>  <r_epik_State_Penalty>  (52) 
-0

>  <r_epik_Charging_Adjusted_Penalty>  (52) 
0

>  <i_epik_Tot_Q>  (52) 
0

>  <i_epik_Tot_abs_Q>  (52) 
0

>  <s_lp_Force_Field>  (52) 
OPLS3e

>  <r_lp_Energy>  (52) 
96.8328

>  <b_lp_Chiralities_Consistent>  (52) 
1

>  <s_lp_Variant>  (52) 
21:0-1

>  <s_i_glide_gridfile>  (52) 
pfpi4k_grid

>  <i_i_glide_lignum>  (52) 
26

>  <i_i_glide_rotatable_bonds>  (52) 
2

>  <r_i_docking_score>  (52) 
-2.41743

>  <r_i_glide_ligand_efficiency>  (52) 
-0.0711009

>  <r_i_glide_ligand_efficiency_sa>  (52) 
-0.230339

>  <r_i_glide_ligand_efficiency_ln>  (52) 
-0.534078

>  <r_i_glide_gscore>  (52) 
-2.41743

>  <r_i_glide_lipo>  (52) 
-0.0305615

>  <r_i_glide_hbond>  (52) 
-0.00167903

>  <r_i_glide_metal>  (52) 
-0

>  <r_i_glide_rewards>  (52) 
-0.187019

>  <r_i_glide_evdw>  (52) 
-23.8407

>  <r_i_glide_ecoul>  (52) 
-6.319

>  <r_i_glide_erotb>  (52) 
0

>  <r_i_glide_esite>  (52) 
-0.0582865

>  <r_i_glide_emodel>  (52) 
-35.6486

>  <r_i_glide_energy>  (52) 
-30.1597

>  <r_i_glide_einternal>  (52) 
0.00545003

>  <r_i_glide_intrahb_reward>  (52) 
-0

>  <i_i_glide_confnum>  (52) 
2

>  <i_i_glide_posenum>  (52) 
13

>  <r_i_glide_eff_state_penalty>  (52) 
0

>  <ligand_id>  (52) 
21

>  <original_smiles>  (52) 
CC1(C)OC2C(O1)C1OC3(C)C(CCC4C5(C)C(=O)CC=CC6(C)C(C(=O)C5O)C463)C1(C)C2O

>  <smiles>  (52) 
[H]OC1([H])C(=O)C2([H])C3(C([H])([H])[H])C([H])=C([H])C([H])([H])C(=O)C1(C([H])([H])[H])C1([H])C([H])([H])C([H])([H])C4([H])C(C([H])([H])[H])(OC5([H])C6([H])OC(C([H])([H])[H])(C([H])([H])[H])OC6([H])C([H])(O[H])C54C([H])([H])[H])C213

$$$$
21:0:2
     RDKit          3D

 70 76  0  0  1  0  0  0  0  0999 V2000
    4.0953   -6.1169    3.9903 C   0  0  0  0  0  0  0  0  0  0  0  0
    3.1386   -4.9650    4.3486 C   0  0  0  0  0  0  0  0  0  0  0  0
    1.6789   -5.3003    3.9933 C   0  0  0  0  0  0  0  0  0  0  0  0
    3.2557   -4.7298    5.7317 O   0  0  0  0  0  0  0  0  0  0  0  0
    3.2188   -3.3258    5.8262 C   0  0  2  0  0  0  0  0  0  0  0  0
    4.0897   -3.0259    4.6440 C   0  0  1  0  0  0  0  0  0  0  0  0
    3.4935   -3.8059    3.6369 O   0  0  0  0  0  0  0  0  0  0  0  0
    4.1758   -1.4983    4.6476 C   0  0  1  0  0  0  0  0  0  0  0  0
    2.9901   -0.8869    4.1320 O   0  0  0  0  0  0  0  0  0  0  0  0
    2.7122    0.3270    4.8304 C   0  0  2  0  0  0  0  0  0  0  0  0
    3.6706    1.4134    4.2809 C   0  0  0  0  0  0  0  0  0  0  0  0
    2.9917   -0.1828    6.2374 C   0  0  2  0  0  0  0  0  0  0  0  0
    2.9650    0.9686    7.2288 C   0  0  0  0  0  0  0  0  0  0  0  0
    1.5527    1.5772    7.2106 C   0  0  0  0  0  0  0  0  0  0  0  0
    0.9216    1.9249    5.8122 C   0  0  2  0  0  0  0  0  0  0  0  0
   -0.6259    2.3862    5.9919 C   0  0  1  0  0  0  0  0  0  0  0  0
   -0.8678    3.0002    7.4208 C   0  0  0  0  0  0  0  0  0  0  0  0
   -0.9962    3.6201    5.0674 C   0  0  0  0  0  0  0  0  0  0  0  0
   -0.6010    4.7541    5.3463 O   0  0  0  0  0  0  0  0  0  0  0  0
   -1.8212    3.4555    3.7607 C   0  0  0  0  0  0  0  0  0  0  0  0
   -1.3423    2.2289    3.0263 C   0  0  0  0  0  0  0  0  0  0  0  0
   -0.0240    2.0129    2.9415 C   0  0  0  0  0  0  0  0  0  0  0  0
    0.5881    0.7370    3.3240 C   0  0  2  0  0  0  0  0  0  0  0  0
    1.1980    0.0617    2.1084 C   0  0  0  0  0  0  0  0  0  0  0  0
    0.1796   -0.2224    4.4623 C   0  0  2  0  0  0  0  0  0  0  0  0
   -1.0605   -0.1542    5.3133 C   0  0  0  0  0  0  0  0  0  0  0  0
   -1.6231   -1.2063    5.6400 O   0  0  0  0  0  0  0  0  0  0  0  0
   -1.6479    1.1854    5.7978 C   0  0  1  0  0  0  0  0  0  0  0  0
   -2.5287    0.9593    6.8946 O   0  0  0  0  0  0  0  0  0  0  0  0
    1.2462    0.7996    4.7261 C   0  0  1  0  0  0  0  0  0  0  0  0
    4.2033   -1.1409    6.1628 C   0  0  2  0  0  0  0  0  0  0  0  0
    5.5376   -0.5096    6.6107 C   0  0  0  0  0  0  0  0  0  0  0  0
    3.9668   -2.5146    6.8858 C   0  0  1  0  0  0  0  0  0  0  0  0
    3.2338   -2.3709    8.0861 O   0  0  0  0  0  0  0  0  0  0  0  0
    5.1168   -5.8707    4.2829 H   0  0  0  0  0  0  0  0  0  0  0  0
    4.0645   -6.3199    2.9191 H   0  0  0  0  0  0  0  0  0  0  0  0
    3.7931   -7.0183    4.5271 H   0  0  0  0  0  0  0  0  0  0  0  0
    1.0256   -4.4588    4.2239 H   0  0  0  0  0  0  0  0  0  0  0  0
    1.3454   -6.1792    4.5458 H   0  0  0  0  0  0  0  0  0  0  0  0
    1.6087   -5.5084    2.9253 H   0  0  0  0  0  0  0  0  0  0  0  0
    2.2005   -2.9619    5.6763 H   0  0  0  0  0  0  0  0  0  0  0  0
    5.0966   -3.4224    4.8129 H   0  0  0  0  0  0  0  0  0  0  0  0
    5.0528   -1.1432    4.1072 H   0  0  0  0  0  0  0  0  0  0  0  0
    3.5975    2.3561    4.8233 H   0  0  0  0  0  0  0  0  0  0  0  0
    3.4341    1.6401    3.2403 H   0  0  0  0  0  0  0  0  0  0  0  0
    4.7150    1.1109    4.2980 H   0  0  0  0  0  0  0  0  0  0  0  0
    2.1300   -0.8011    6.4932 H   0  0  0  0  0  0  0  0  0  0  0  0
    3.1981    0.6124    8.2324 H   0  0  0  0  0  0  0  0  0  0  0  0
    3.7126    1.7245    6.9924 H   0  0  0  0  0  0  0  0  0  0  0  0
    0.8961    0.8835    7.7378 H   0  0  0  0  0  0  0  0  0  0  0  0
    1.6170    2.4782    7.8219 H   0  0  0  0  0  0  0  0  0  0  0  0
    1.4618    2.8077    5.4733 H   0  0  0  0  0  0  0  0  0  0  0  0
   -0.7912    2.2700    8.2302 H   0  0  0  0  0  0  0  0  0  0  0  0
   -1.8698    3.4346    7.5061 H   0  0  0  0  0  0  0  0  0  0  0  0
   -0.1698    3.8100    7.6569 H   0  0  0  0  0  0  0  0  0  0  0  0
   -2.8781    3.3470    4.0067 H   0  0  0  0  0  0  0  0  0  0  0  0
   -1.7091    4.3389    3.1316 H   0  0  0  0  0  0  0  0  0  0  0  0
   -2.0096    1.3817    3.0437 H   0  0  0  0  0  0  0  0  0  0  0  0
    0.6477    2.8576    3.0434 H   0  0  0  0  0  0  0  0  0  0  0  0
    1.4501   -0.9801    2.3062 H   0  0  0  0  0  0  0  0  0  0  0  0
    2.0980    0.5859    1.7885 H   0  0  0  0  0  0  0  0  0  0  0  0
    0.4909    0.0711    1.2820 H   0  0  0  0  0  0  0  0  0  0  0  0
    0.5413   -1.2399    4.3420 H   0  0  0  0  0  0  0  0  0  0  0  0
   -2.3920    1.4510    5.0573 H   0  0  0  0  0  0  0  0  0  0  0  0
   -2.9608    1.7700    7.0928 H   0  0  0  0  0  0  0  0  0  0  0  0
    5.5414   -0.3323    7.6870 H   0  0  0  0  0  0  0  0  0  0  0  0
    5.7267    0.4450    6.1219 H   0  0  0  0  0  0  0  0  0  0  0  0
    6.3781   -1.1677    6.3821 H   0  0  0  0  0  0  0  0  0  0  0  0
    4.9167   -3.0038    7.1130 H   0  0  0  0  0  0  0  0  0  0  0  0
    3.7880   -1.9595    8.7254 H   0  0  0  0  0  0  0  0  0  0  0  0
  1  2  1  0
  1 35  1  0
  1 36  1  0
  1 37  1  0
  2  7  1  0
  2  3  1  0
  2  4  1  0
  3 38  1  0
  3 39  1  0
  3 40  1  0
  4  5  1  0
  5 33  1  0
  5  6  1  0
  5 41  1  6
  6  7  1  0
  6  8  1  0
  6 42  1  1
  8 31  1  0
  8  9  1  0
  8 43  1  6
  9 10  1  0
 30 10  1  6
 10 11  1  6
 10 12  1  0
 11 44  1  0
 11 45  1  0
 11 46  1  0
 12 13  1  0
 12 31  1  0
 12 47  1  1
 13 14  1  0
 13 48  1  0
 13 49  1  0
 14 15  1  0
 14 50  1  0
 14 51  1  0
 15 30  1  0
 15 16  1  0
 15 52  1  6
 16 28  1  0
 16 17  1  1
 16 18  1  0
 17 53  1  0
 17 54  1  0
 17 55  1  0
 18 19  2  0
 18 20  1  0
 20 21  1  0
 20 56  1  0
 20 57  1  0
 21 22  2  3
 21 58  1  0
 22 23  1  0
 22 59  1  0
 23 30  1  0
 23 24  1  6
 23 25  1  0
 24 60  1  0
 24 61  1  0
 24 62  1  0
 25 26  1  0
 25 30  1  0
 25 63  1  6
 26 27  2  0
 26 28  1  0
 28 29  1  0
 28 64  1  6
 29 65  1  0
 31 32  1  1
 31 33  1  0
 32 66  1  0
 32 67  1  0
 32 68  1  0
 33 34  1  0
 33 69  1  1
 34 70  1  0
M  END
>  <i_m_ct_stereo_status>  (53) 
1

>  <s_m_source_file>  (53) 
/var/tmp/pbs.5076255.sched01/tmphrtf3o8j/0_qqz9eae.sdf

>  <i_m_source_file_index>  (53) 
26

>  <i_lp_mmshare_version>  (53) 
48012

>  <i_f3d_flags>  (53) 
0

>  <s_epik_input>  (53) 
W0NIM11DKE8xKShbQ0gzXSlPW0NAQEhdKFtDQEBIXTJbT0hdKVtDQEBIXTFbQ0BASF0oTzMpW0NAQF0yKFtDSDNdKVtDQEhdKFtDQEBdMyhbQ0BAXTQ1NilbQ0gzXSlbQ0gyXVtDSDJdW0NAQEhdNFtDQEBdNyhbQ0gzXSlDKD1PKVtDSDJdL1tDSF09W0NIXVxbQ0BdNShbQ0gzXSlbQ0BASF02Qyg9TylbQ0BIXTdbT0hd

>  <s_epik_cmdline>  (53) 
J2VwaWtfcHl0aG9uJywgJy1waHQnLCAnMi4wJywgJy1waCcsICc3LjAnLCAnLXRuJywgJzgnLCAnLW1hJywgJzIwMCcsICctaW1hZScsICc8aW5maWxlLm1hZT4nLCAnLW9tYWUnLCAnPG91dGZpbGUubWFlPic=

>  <r_lp_tautomer_probability>  (53) 
1

>  <r_epik_Ionization_Penalty>  (53) 
9.92127e-07

>  <r_epik_Ionization_Penalty_Charging>  (53) 
0

>  <r_epik_Ionization_Penalty_Neutral>  (53) 
9.92127e-07

>  <r_epik_State_Penalty>  (53) 
-0

>  <r_epik_Charging_Adjusted_Penalty>  (53) 
0

>  <i_epik_Tot_Q>  (53) 
0

>  <i_epik_Tot_abs_Q>  (53) 
0

>  <s_lp_Force_Field>  (53) 
OPLS3e

>  <r_lp_Energy>  (53) 
96.8328

>  <b_lp_Chiralities_Consistent>  (53) 
1

>  <s_lp_Variant>  (53) 
21:0-1

>  <s_i_glide_gridfile>  (53) 
pfpi4k_grid

>  <i_i_glide_lignum>  (53) 
26

>  <i_i_glide_rotatable_bonds>  (53) 
2

>  <r_i_docking_score>  (53) 
-2.4154

>  <r_i_glide_ligand_efficiency>  (53) 
-0.0710412

>  <r_i_glide_ligand_efficiency_sa>  (53) 
-0.230146

>  <r_i_glide_ligand_efficiency_ln>  (53) 
-0.53363

>  <r_i_glide_gscore>  (53) 
-2.4154

>  <r_i_glide_lipo>  (53) 
-0.0224472

>  <r_i_glide_hbond>  (53) 
-0.000466167

>  <r_i_glide_metal>  (53) 
-0

>  <r_i_glide_rewards>  (53) 
-0.187019

>  <r_i_glide_evdw>  (53) 
-24.1188

>  <r_i_glide_ecoul>  (53) 
-6.28389

>  <r_i_glide_erotb>  (53) 
0

>  <r_i_glide_esite>  (53) 
-0.0569457

>  <r_i_glide_emodel>  (53) 
-35.7132

>  <r_i_glide_energy>  (53) 
-30.4027

>  <r_i_glide_einternal>  (53) 
0.324296

>  <r_i_glide_intrahb_reward>  (53) 
-0

>  <i_i_glide_confnum>  (53) 
1

>  <i_i_glide_posenum>  (53) 
38

>  <r_i_glide_eff_state_penalty>  (53) 
0

>  <ligand_id>  (53) 
21

>  <original_smiles>  (53) 
CC1(C)OC2C(O1)C1OC3(C)C(CCC4C5(C)C(=O)CC=CC6(C)C(C(=O)C5O)C463)C1(C)C2O

>  <smiles>  (53) 
[H]OC1([H])C(=O)C2([H])C3(C([H])([H])[H])C([H])=C([H])C([H])([H])C(=O)C1(C([H])([H])[H])C1([H])C([H])([H])C([H])([H])C4([H])C(C([H])([H])[H])(OC5([H])C6([H])OC(C([H])([H])[H])(C([H])([H])[H])OC6([H])C([H])(O[H])C54C([H])([H])[H])C213

$$$$
22:0:0
     RDKit          3D

 43 44  0  0  1  0  0  0  0  0999 V2000
   -0.9273   -5.0169    6.7947 C   0  0  0  0  0  0  0  0  0  0  0  0
   -0.1768   -5.7987    5.7024 C   0  0  0  0  0  0  0  0  0  0  0  0
    1.2106   -5.2283    5.3625 C   0  0  0  0  0  0  0  0  0  0  0  0
    1.1721   -3.7765    4.9084 C   0  0  0  0  0  0  0  0  0  0  0  0
    1.7413   -3.2151    3.8264 C   0  0  0  0  0  0  0  0  0  0  0  0
    2.4857   -3.9500    2.8127 C   0  0  0  0  0  0  0  0  0  0  0  0
    3.1353   -3.2955    1.8310 C   0  0  0  0  0  0  0  0  0  0  0  0
    3.9020   -4.0739    0.7718 C   0  0  0  0  0  0  0  0  0  0  0  0
    5.0039   -3.2144    0.1481 C   0  0  0  0  0  0  0  0  0  0  0  0
    6.1389   -3.6706   -0.0115 O   0  0  0  0  0  0  0  0  0  0  0  0
    4.5898   -1.8069   -0.3320 C   0  0  1  0  0  0  0  0  0  0  0  0
    5.7347   -1.0572   -0.7136 O   0  0  0  0  0  0  0  0  0  0  0  0
    3.6247   -1.8223   -1.5456 C   0  0  0  0  0  0  0  0  0  0  0  0
    3.7866   -2.9332   -2.6108 C   0  0  0  0  0  0  0  0  0  0  0  0
    5.0107   -2.7366   -3.5078 C   0  0  0  0  0  0  0  0  0  0  0  0
    2.5119   -3.0375   -3.4485 C   0  0  0  0  0  0  0  0  0  0  0  0
    3.9146   -1.0769    0.8567 C   0  0  0  0  0  0  0  0  0  0  0  0
    4.0549    0.1431    0.9314 O   0  0  0  0  0  0  0  0  0  0  0  0
    3.0880   -1.8399    1.8294 C   0  0  0  0  0  0  0  0  0  0  0  0
    2.3457   -1.1915    2.7483 C   0  0  0  0  0  0  0  0  0  0  0  0
    1.6246   -1.8450    3.7227 O   0  0  0  0  0  0  0  0  0  0  0  0
   -1.9010   -5.4552    7.0038 H   0  0  0  0  0  0  0  0  0  0  0  0
   -1.1295   -3.9882    6.5009 H   0  0  0  0  0  0  0  0  0  0  0  0
   -0.3587   -5.0034    7.7250 H   0  0  0  0  0  0  0  0  0  0  0  0
   -0.0470   -6.8277    6.0361 H   0  0  0  0  0  0  0  0  0  0  0  0
   -0.7793   -5.8494    4.7977 H   0  0  0  0  0  0  0  0  0  0  0  0
    1.8517   -5.2735    6.2446 H   0  0  0  0  0  0  0  0  0  0  0  0
    1.6838   -5.8681    4.6171 H   0  0  0  0  0  0  0  0  0  0  0  0
    0.6821   -3.0922    5.5869 H   0  0  0  0  0  0  0  0  0  0  0  0
    2.5119   -5.0299    2.8152 H   0  0  0  0  0  0  0  0  0  0  0  0
    4.3477   -4.9629    1.2217 H   0  0  0  0  0  0  0  0  0  0  0  0
    3.2106   -4.4023   -0.0036 H   0  0  0  0  0  0  0  0  0  0  0  0
    5.4429   -0.1592   -0.7981 H   0  0  0  0  0  0  0  0  0  0  0  0
    2.6157   -1.8992   -1.1574 H   0  0  0  0  0  0  0  0  0  0  0  0
    3.6579   -0.8472   -2.0374 H   0  0  0  0  0  0  0  0  0  0  0  0
    3.8919   -3.9047   -2.1376 H   0  0  0  0  0  0  0  0  0  0  0  0
    4.9962   -1.7531   -3.9745 H   0  0  0  0  0  0  0  0  0  0  0  0
    5.0145   -3.4941   -4.2935 H   0  0  0  0  0  0  0  0  0  0  0  0
    5.9406   -2.8321   -2.9470 H   0  0  0  0  0  0  0  0  0  0  0  0
    2.3083   -2.1162   -3.9952 H   0  0  0  0  0  0  0  0  0  0  0  0
    1.6513   -3.2461   -2.8100 H   0  0  0  0  0  0  0  0  0  0  0  0
    2.5805   -3.8549   -4.1650 H   0  0  0  0  0  0  0  0  0  0  0  0
    2.2588   -0.1144    2.8278 H   0  0  0  0  0  0  0  0  0  0  0  0
  1  2  1  0
  1 22  1  0
  1 23  1  0
  1 24  1  0
  2  3  1  0
  2 25  1  0
  2 26  1  0
  3  4  1  0
  3 27  1  0
  3 28  1  0
  4  5  2  3
  4 29  1  0
  5 21  1  0
  5  6  1  0
  6  7  2  0
  6 30  1  0
  7 19  1  0
  7  8  1  0
  8  9  1  0
  8 31  1  0
  8 32  1  0
  9 10  2  0
  9 11  1  0
 11 12  1  6
 11 13  1  0
 11 17  1  0
 12 33  1  0
 13 14  1  0
 13 34  1  0
 13 35  1  0
 14 15  1  0
 14 16  1  0
 14 36  1  0
 15 37  1  0
 15 38  1  0
 15 39  1  0
 16 40  1  0
 16 41  1  0
 16 42  1  0
 17 18  2  0
 17 19  1  0
 19 20  2  0
 20 21  1  0
 20 43  1  0
M  END
>  <i_m_ct_stereo_status>  (54) 
1

>  <s_m_source_file>  (54) 
/var/tmp/pbs.5076255.sched01/tmphrtf3o8j/0_qqz9eae.sdf

>  <i_m_source_file_index>  (54) 
27

>  <i_lp_mmshare_version>  (54) 
48012

>  <i_f3d_flags>  (54) 
0

>  <s_epik_input>  (54) 
W0NIM11bQ0gyXVtDSDJdL1tDSF09QyhcW0NIXT0xKU9bQ0hdPUMoQzEyKUMoPU8pW0NAQF0oW09IXSkoQyg9TylbQ0gyXTIpW0NIMl1bQ0hdKFtDSDNdKVtDSDNd

>  <s_epik_cmdline>  (54) 
J2VwaWtfcHl0aG9uJywgJy1waHQnLCAnMi4wJywgJy1waCcsICc3LjAnLCAnLXRuJywgJzgnLCAnLW1hJywgJzIwMCcsICctaW1hZScsICc8aW5maWxlLm1hZT4nLCAnLW9tYWUnLCAnPG91dGZpbGUubWFlPic=

>  <r_epik_Ionization_Penalty>  (54) 
0.000360349

>  <r_epik_Ionization_Penalty_Charging>  (54) 
0

>  <r_epik_Ionization_Penalty_Neutral>  (54) 
0.000360349

>  <r_epik_State_Penalty>  (54) 
0.000217858

>  <r_epik_Charging_Adjusted_Penalty>  (54) 
0.000217858

>  <i_epik_Tot_Q>  (54) 
0

>  <i_epik_Tot_abs_Q>  (54) 
0

>  <s_lp_Force_Field>  (54) 
OPLS3e

>  <r_lp_Energy>  (54) 
27.0686

>  <b_lp_Chiralities_Consistent>  (54) 
1

>  <s_lp_Variant>  (54) 
22:0-1

>  <s_i_glide_gridfile>  (54) 
pfpi4k_grid

>  <i_i_glide_lignum>  (54) 
27

>  <i_i_glide_rotatable_bonds>  (54) 
5

>  <r_i_docking_score>  (54) 
-3.08031

>  <r_i_glide_ligand_efficiency>  (54) 
-0.146682

>  <r_i_glide_ligand_efficiency_sa>  (54) 
-0.404683

>  <r_i_glide_ligand_efficiency_ln>  (54) 
-0.761601

>  <r_i_glide_gscore>  (54) 
-3.08031

>  <r_i_glide_lipo>  (54) 
-0.387984

>  <r_i_glide_hbond>  (54) 
0

>  <r_i_glide_metal>  (54) 
-0

>  <r_i_glide_rewards>  (54) 
-1.4733

>  <r_i_glide_evdw>  (54) 
-21.5544

>  <r_i_glide_ecoul>  (54) 
-3.72786

>  <r_i_glide_erotb>  (54) 
0.432324

>  <r_i_glide_esite>  (54) 
-0.0144546

>  <r_i_glide_emodel>  (54) 
-28.3515

>  <r_i_glide_energy>  (54) 
-25.2822

>  <r_i_glide_einternal>  (54) 
2.49903

>  <r_i_glide_intrahb_reward>  (54) 
-0

>  <i_i_glide_confnum>  (54) 
1

>  <i_i_glide_posenum>  (54) 
2

>  <r_i_glide_eff_state_penalty>  (54) 
0

>  <ligand_id>  (54) 
22

>  <original_smiles>  (54) 
CCCC=C1C=C2CC(=O)C(O)(CC(C)C)C(=O)C2=CO1

>  <smiles>  (54) 
[H]OC1(C([H])([H])C([H])(C([H])([H])[H])C([H])([H])[H])C(=O)C2=C([H])OC(=C([H])C([H])([H])C([H])([H])C([H])([H])[H])C([H])=C2C([H])([H])C1=O

$$$$
22:0:1
     RDKit          3D

 43 44  0  0  1  0  0  0  0  0999 V2000
    0.1400   -7.6888    2.2201 C   0  0  0  0  0  0  0  0  0  0  0  0
    1.1550   -7.9259    3.3460 C   0  0  0  0  0  0  0  0  0  0  0  0
    2.4531   -7.1217    3.1861 C   0  0  0  0  0  0  0  0  0  0  0  0
    2.2417   -5.6269    3.3257 C   0  0  0  0  0  0  0  0  0  0  0  0
    2.5186   -4.6636    2.4250 C   0  0  0  0  0  0  0  0  0  0  0  0
    3.0449   -4.9143    1.0945 C   0  0  0  0  0  0  0  0  0  0  0  0
    3.4457   -3.8873    0.3193 C   0  0  0  0  0  0  0  0  0  0  0  0
    4.0019   -4.1639   -1.0534 C   0  0  0  0  0  0  0  0  0  0  0  0
    4.9270   -3.0282   -1.4767 C   0  0  0  0  0  0  0  0  0  0  0  0
    6.0793   -3.2430   -1.9063 O   0  0  0  0  0  0  0  0  0  0  0  0
    4.3331   -1.5937   -1.4080 C   0  0  1  0  0  0  0  0  0  0  0  0
    5.3538   -0.6747   -1.7240 O   0  0  0  0  0  0  0  0  0  0  0  0
    3.1096   -1.3744   -2.3600 C   0  0  0  0  0  0  0  0  0  0  0  0
    3.1890   -1.7917   -3.8720 C   0  0  0  0  0  0  0  0  0  0  0  0
    3.6691   -3.2118   -4.1401 C   0  0  0  0  0  0  0  0  0  0  0  0
    3.9535   -0.7400   -4.6925 C   0  0  0  0  0  0  0  0  0  0  0  0
    3.8674   -1.3862    0.0629 C   0  0  0  0  0  0  0  0  0  0  0  0
    3.9495   -0.2539    0.5449 O   0  0  0  0  0  0  0  0  0  0  0  0
    3.3242   -2.5313    0.8443 C   0  0  0  0  0  0  0  0  0  0  0  0
    2.7878   -2.3355    2.0543 C   0  0  0  0  0  0  0  0  0  0  0  0
    2.3154   -3.3664    2.8387 O   0  0  0  0  0  0  0  0  0  0  0  0
   -0.7413   -8.3159    2.3597 H   0  0  0  0  0  0  0  0  0  0  0  0
    0.5679   -7.9347    1.2482 H   0  0  0  0  0  0  0  0  0  0  0  0
   -0.1898   -6.6519    2.1923 H   0  0  0  0  0  0  0  0  0  0  0  0
    0.6944   -7.7030    4.3093 H   0  0  0  0  0  0  0  0  0  0  0  0
    1.4063   -8.9877    3.3727 H   0  0  0  0  0  0  0  0  0  0  0  0
    3.1477   -7.4114    3.9737 H   0  0  0  0  0  0  0  0  0  0  0  0
    2.9451   -7.3808    2.2514 H   0  0  0  0  0  0  0  0  0  0  0  0
    1.8687   -5.3032    4.2833 H   0  0  0  0  0  0  0  0  0  0  0  0
    3.1150   -5.9167    0.6910 H   0  0  0  0  0  0  0  0  0  0  0  0
    4.5359   -5.1026   -1.1120 H   0  0  0  0  0  0  0  0  0  0  0  0
    3.1666   -4.1822   -1.7273 H   0  0  0  0  0  0  0  0  0  0  0  0
    4.9942    0.2349   -1.5344 H   0  0  0  0  0  0  0  0  0  0  0  0
    2.2387   -1.8690   -1.9461 H   0  0  0  0  0  0  0  0  0  0  0  0
    2.8660   -0.3072   -2.3259 H   0  0  0  0  0  0  0  0  0  0  0  0
    2.1486   -1.7164   -4.2327 H   0  0  0  0  0  0  0  0  0  0  0  0
    4.7004   -3.3442   -3.9065 H   0  0  0  0  0  0  0  0  0  0  0  0
    3.6339   -3.4616   -5.1441 H   0  0  0  0  0  0  0  0  0  0  0  0
    3.0161   -3.9353   -3.7165 H   0  0  0  0  0  0  0  0  0  0  0  0
    4.9967   -0.6995   -4.3814 H   0  0  0  0  0  0  0  0  0  0  0  0
    3.5243    0.2659   -4.6042 H   0  0  0  0  0  0  0  0  0  0  0  0
    3.9231   -1.0071   -5.7502 H   0  0  0  0  0  0  0  0  0  0  0  0
    2.7071   -1.3748    2.5433 H   0  0  0  0  0  0  0  0  0  0  0  0
  1  2  1  0
  1 22  1  0
  1 23  1  0
  1 24  1  0
  2  3  1  0
  2 25  1  0
  2 26  1  0
  3  4  1  0
  3 27  1  0
  3 28  1  0
  4  5  2  3
  4 29  1  0
  5 21  1  0
  5  6  1  0
  6  7  2  0
  6 30  1  0
  7 19  1  0
  7  8  1  0
  8  9  1  0
  8 31  1  0
  8 32  1  0
  9 10  2  0
  9 11  1  0
 11 12  1  6
 11 13  1  0
 11 17  1  0
 12 33  1  0
 13 14  1  0
 13 34  1  0
 13 35  1  0
 14 15  1  0
 14 16  1  0
 14 36  1  0
 15 37  1  0
 15 38  1  0
 15 39  1  0
 16 40  1  0
 16 41  1  0
 16 42  1  0
 17 18  2  0
 17 19  1  0
 19 20  2  0
 20 21  1  0
 20 43  1  0
M  END
>  <i_m_ct_stereo_status>  (55) 
1

>  <s_m_source_file>  (55) 
/var/tmp/pbs.5076255.sched01/tmphrtf3o8j/0_qqz9eae.sdf

>  <i_m_source_file_index>  (55) 
27

>  <i_lp_mmshare_version>  (55) 
48012

>  <i_f3d_flags>  (55) 
0

>  <s_epik_input>  (55) 
W0NIM11bQ0gyXVtDSDJdL1tDSF09QyhcW0NIXT0xKU9bQ0hdPUMoQzEyKUMoPU8pW0NAQF0oW09IXSkoQyg9TylbQ0gyXTIpW0NIMl1bQ0hdKFtDSDNdKVtDSDNd

>  <s_epik_cmdline>  (55) 
J2VwaWtfcHl0aG9uJywgJy1waHQnLCAnMi4wJywgJy1waCcsICc3LjAnLCAnLXRuJywgJzgnLCAnLW1hJywgJzIwMCcsICctaW1hZScsICc8aW5maWxlLm1hZT4nLCAnLW9tYWUnLCAnPG91dGZpbGUubWFlPic=

>  <r_epik_Ionization_Penalty>  (55) 
0.000360349

>  <r_epik_Ionization_Penalty_Charging>  (55) 
0

>  <r_epik_Ionization_Penalty_Neutral>  (55) 
0.000360349

>  <r_epik_State_Penalty>  (55) 
0.000217858

>  <r_epik_Charging_Adjusted_Penalty>  (55) 
0.000217858

>  <i_epik_Tot_Q>  (55) 
0

>  <i_epik_Tot_abs_Q>  (55) 
0

>  <s_lp_Force_Field>  (55) 
OPLS3e

>  <r_lp_Energy>  (55) 
27.0686

>  <b_lp_Chiralities_Consistent>  (55) 
1

>  <s_lp_Variant>  (55) 
22:0-1

>  <s_i_glide_gridfile>  (55) 
pfpi4k_grid

>  <i_i_glide_lignum>  (55) 
27

>  <i_i_glide_rotatable_bonds>  (55) 
5

>  <r_i_docking_score>  (55) 
-3.04814

>  <r_i_glide_ligand_efficiency>  (55) 
-0.14515

>  <r_i_glide_ligand_efficiency_sa>  (55) 
-0.400457

>  <r_i_glide_ligand_efficiency_ln>  (55) 
-0.753647

>  <r_i_glide_gscore>  (55) 
-3.04814

>  <r_i_glide_lipo>  (55) 
-0.223708

>  <r_i_glide_hbond>  (55) 
0

>  <r_i_glide_metal>  (55) 
-0

>  <r_i_glide_rewards>  (55) 
-1.45467

>  <r_i_glide_evdw>  (55) 
-18.8808

>  <r_i_glide_ecoul>  (55) 
-5.37039

>  <r_i_glide_erotb>  (55) 
0.432324

>  <r_i_glide_esite>  (55) 
-0.052496

>  <r_i_glide_emodel>  (55) 
-26.5404

>  <r_i_glide_energy>  (55) 
-24.2512

>  <r_i_glide_einternal>  (55) 
2.49417

>  <r_i_glide_intrahb_reward>  (55) 
-0

>  <i_i_glide_confnum>  (55) 
1

>  <i_i_glide_posenum>  (55) 
1

>  <r_i_glide_eff_state_penalty>  (55) 
0

>  <ligand_id>  (55) 
22

>  <original_smiles>  (55) 
CCCC=C1C=C2CC(=O)C(O)(CC(C)C)C(=O)C2=CO1

>  <smiles>  (55) 
[H]OC1(C([H])([H])C([H])(C([H])([H])[H])C([H])([H])[H])C(=O)C2=C([H])OC(=C([H])C([H])([H])C([H])([H])C([H])([H])[H])C([H])=C2C([H])([H])C1=O

$$$$
22:0:2
     RDKit          3D

 43 44  0  0  1  0  0  0  0  0999 V2000
    4.1030   -0.9395   -2.6870 C   0  0  0  0  0  0  0  0  0  0  0  0
    5.1603   -1.6932   -1.8733 C   0  0  0  0  0  0  0  0  0  0  0  0
    5.1286   -1.3450   -0.3782 C   0  0  0  0  0  0  0  0  0  0  0  0
    4.0359   -2.0809    0.3763 C   0  0  0  0  0  0  0  0  0  0  0  0
    3.0730   -1.5672    1.1615 C   0  0  0  0  0  0  0  0  0  0  0  0
    2.8573   -0.1381    1.3624 C   0  0  0  0  0  0  0  0  0  0  0  0
    1.9321    0.3037    2.2375 C   0  0  0  0  0  0  0  0  0  0  0  0
    1.6988    1.7960    2.4126 C   0  0  0  0  0  0  0  0  0  0  0  0
    1.1239    2.0821    3.7961 C   0  0  0  0  0  0  0  0  0  0  0  0
    1.5896    2.9769    4.5037 O   0  0  0  0  0  0  0  0  0  0  0  0
   -0.0827    1.2303    4.2398 C   0  0  1  0  0  0  0  0  0  0  0  0
   -0.3655    1.4771    5.6102 O   0  0  0  0  0  0  0  0  0  0  0  0
   -1.3709    1.5337    3.4314 C   0  0  0  0  0  0  0  0  0  0  0  0
   -1.8020    3.0103    3.2311 C   0  0  0  0  0  0  0  0  0  0  0  0
   -1.7687    3.8738    4.5035 C   0  0  0  0  0  0  0  0  0  0  0  0
   -3.2110    3.0569    2.6202 C   0  0  0  0  0  0  0  0  0  0  0  0
    0.2702   -0.2683    4.0841 C   0  0  0  0  0  0  0  0  0  0  0  0
   -0.2667   -1.0874    4.8423 O   0  0  0  0  0  0  0  0  0  0  0  0
    1.1909   -0.6916    3.0038 C   0  0  0  0  0  0  0  0  0  0  0  0
    1.3883   -2.0051    2.7670 C   0  0  0  0  0  0  0  0  0  0  0  0
    2.2727   -2.4717    1.8237 O   0  0  0  0  0  0  0  0  0  0  0  0
    4.1897   -1.1827   -3.7459 H   0  0  0  0  0  0  0  0  0  0  0  0
    4.2187    0.1408   -2.5876 H   0  0  0  0  0  0  0  0  0  0  0  0
    3.0922   -1.1981   -2.3650 H   0  0  0  0  0  0  0  0  0  0  0  0
    5.0469   -2.7689   -2.0127 H   0  0  0  0  0  0  0  0  0  0  0  0
    6.1443   -1.4517   -2.2649 H   0  0  0  0  0  0  0  0  0  0  0  0
    6.0663   -1.6639    0.0778 H   0  0  0  0  0  0  0  0  0  0  0  0
    5.0829   -0.2644   -0.2367 H   0  0  0  0  0  0  0  0  0  0  0  0
    4.0884   -3.1592    0.3044 H   0  0  0  0  0  0  0  0  0  0  0  0
    3.4048    0.5915    0.7871 H   0  0  0  0  0  0  0  0  0  0  0  0
    2.6427    2.3313    2.3064 H   0  0  0  0  0  0  0  0  0  0  0  0
    1.0179    2.1682    1.6476 H   0  0  0  0  0  0  0  0  0  0  0  0
   -0.5545    2.3980    5.7092 H   0  0  0  0  0  0  0  0  0  0  0  0
   -1.2637    1.0937    2.4363 H   0  0  0  0  0  0  0  0  0  0  0  0
   -2.1835    0.9808    3.9042 H   0  0  0  0  0  0  0  0  0  0  0  0
   -1.1205    3.4567    2.5100 H   0  0  0  0  0  0  0  0  0  0  0  0
   -2.3457    3.4250    5.3132 H   0  0  0  0  0  0  0  0  0  0  0  0
   -2.1772    4.8593    4.3033 H   0  0  0  0  0  0  0  0  0  0  0  0
   -0.7526    4.0433    4.8555 H   0  0  0  0  0  0  0  0  0  0  0  0
   -3.9414    2.6186    3.3012 H   0  0  0  0  0  0  0  0  0  0  0  0
   -3.2705    2.5045    1.6809 H   0  0  0  0  0  0  0  0  0  0  0  0
   -3.5253    4.0804    2.4179 H   0  0  0  0  0  0  0  0  0  0  0  0
    0.8826   -2.8045    3.2931 H   0  0  0  0  0  0  0  0  0  0  0  0
  1  2  1  0
  1 22  1  0
  1 23  1  0
  1 24  1  0
  2  3  1  0
  2 25  1  0
  2 26  1  0
  3  4  1  0
  3 27  1  0
  3 28  1  0
  4  5  2  3
  4 29  1  0
  5 21  1  0
  5  6  1  0
  6  7  2  0
  6 30  1  0
  7 19  1  0
  7  8  1  0
  8  9  1  0
  8 31  1  0
  8 32  1  0
  9 10  2  0
  9 11  1  0
 11 12  1  1
 11 13  1  0
 11 17  1  0
 12 33  1  0
 13 14  1  0
 13 34  1  0
 13 35  1  0
 14 15  1  0
 14 16  1  0
 14 36  1  0
 15 37  1  0
 15 38  1  0
 15 39  1  0
 16 40  1  0
 16 41  1  0
 16 42  1  0
 17 18  2  0
 17 19  1  0
 19 20  2  0
 20 21  1  0
 20 43  1  0
M  END
>  <i_m_ct_stereo_status>  (56) 
1

>  <s_m_source_file>  (56) 
/var/tmp/pbs.5076255.sched01/tmphrtf3o8j/0_qqz9eae.sdf

>  <i_m_source_file_index>  (56) 
27

>  <i_lp_mmshare_version>  (56) 
48012

>  <i_f3d_flags>  (56) 
0

>  <s_epik_input>  (56) 
W0NIM11bQ0gyXVtDSDJdL1tDSF09QyhcW0NIXT0xKU9bQ0hdPUMoQzEyKUMoPU8pW0NAQF0oW09IXSkoQyg9TylbQ0gyXTIpW0NIMl1bQ0hdKFtDSDNdKVtDSDNd

>  <s_epik_cmdline>  (56) 
J2VwaWtfcHl0aG9uJywgJy1waHQnLCAnMi4wJywgJy1waCcsICc3LjAnLCAnLXRuJywgJzgnLCAnLW1hJywgJzIwMCcsICctaW1hZScsICc8aW5maWxlLm1hZT4nLCAnLW9tYWUnLCAnPG91dGZpbGUubWFlPic=

>  <r_epik_Ionization_Penalty>  (56) 
0.000360349

>  <r_epik_Ionization_Penalty_Charging>  (56) 
0

>  <r_epik_Ionization_Penalty_Neutral>  (56) 
0.000360349

>  <r_epik_State_Penalty>  (56) 
0.000217858

>  <r_epik_Charging_Adjusted_Penalty>  (56) 
0.000217858

>  <i_epik_Tot_Q>  (56) 
0

>  <i_epik_Tot_abs_Q>  (56) 
0

>  <s_lp_Force_Field>  (56) 
OPLS3e

>  <r_lp_Energy>  (56) 
27.0686

>  <b_lp_Chiralities_Consistent>  (56) 
1

>  <s_lp_Variant>  (56) 
22:0-1

>  <s_i_glide_gridfile>  (56) 
pfpi4k_grid

>  <i_i_glide_lignum>  (56) 
27

>  <i_i_glide_rotatable_bonds>  (56) 
5

>  <r_i_docking_score>  (56) 
-2.45987

>  <r_i_glide_ligand_efficiency>  (56) 
-0.117137

>  <r_i_glide_ligand_efficiency_sa>  (56) 
-0.323172

>  <r_i_glide_ligand_efficiency_ln>  (56) 
-0.608199

>  <r_i_glide_gscore>  (56) 
-2.45987

>  <r_i_glide_lipo>  (56) 
-0.0264581

>  <r_i_glide_hbond>  (56) 
0

>  <r_i_glide_metal>  (56) 
-0

>  <r_i_glide_rewards>  (56) 
-1.4294

>  <r_i_glide_evdw>  (56) 
-22.6202

>  <r_i_glide_ecoul>  (56) 
-1.78682

>  <r_i_glide_erotb>  (56) 
0.432324

>  <r_i_glide_esite>  (56) 
-0.0373039

>  <r_i_glide_emodel>  (56) 
-27.1894

>  <r_i_glide_energy>  (56) 
-24.407

>  <r_i_glide_einternal>  (56) 
1.91232

>  <r_i_glide_intrahb_reward>  (56) 
-0

>  <i_i_glide_confnum>  (56) 
1

>  <i_i_glide_posenum>  (56) 
32

>  <r_i_glide_eff_state_penalty>  (56) 
0

>  <ligand_id>  (56) 
22

>  <original_smiles>  (56) 
CCCC=C1C=C2CC(=O)C(O)(CC(C)C)C(=O)C2=CO1

>  <smiles>  (56) 
[H]OC1(C([H])([H])C([H])(C([H])([H])[H])C([H])([H])[H])C(=O)C2=C([H])OC(=C([H])C([H])([H])C([H])([H])C([H])([H])[H])C([H])=C2C([H])([H])C1=O

$$$$
22:1:0
     RDKit          3D

 43 44  0  0  1  0  0  0  0  0999 V2000
    1.6224   -1.0131    8.1965 C   0  0  0  0  0  0  0  0  0  0  0  0
    1.6585   -1.8677    6.9235 C   0  0  0  0  0  0  0  0  0  0  0  0
    1.3854   -1.0439    5.6564 C   0  0  0  0  0  0  0  0  0  0  0  0
    1.4124   -1.8953    4.3971 C   0  0  0  0  0  0  0  0  0  0  0  0
    2.2310   -1.6801    3.3490 C   0  0  0  0  0  0  0  0  0  0  0  0
    2.2178   -2.5438    2.1818 C   0  0  0  0  0  0  0  0  0  0  0  0
    3.1023   -2.3587    1.1757 C   0  0  0  0  0  0  0  0  0  0  0  0
    3.0979   -3.2755   -0.0403 C   0  0  0  0  0  0  0  0  0  0  0  0
    4.4693   -3.2593   -0.7175 C   0  0  0  0  0  0  0  0  0  0  0  0
    5.0644   -4.3099   -0.9962 O   0  0  0  0  0  0  0  0  0  0  0  0
    5.0776   -1.8873   -1.0377 C   0  0  1  0  0  0  0  0  0  0  0  0
    6.3977   -2.0590   -1.5332 O   0  0  0  0  0  0  0  0  0  0  0  0
    4.2707   -1.0787   -2.0868 C   0  0  0  0  0  0  0  0  0  0  0  0
    4.0634   -1.6973   -3.5025 C   0  0  0  0  0  0  0  0  0  0  0  0
    3.6546   -0.6020   -4.5098 C   0  0  0  0  0  0  0  0  0  0  0  0
    3.0094   -2.8270   -3.5667 C   0  0  0  0  0  0  0  0  0  0  0  0
    5.1402   -1.0981    0.3022 C   0  0  0  0  0  0  0  0  0  0  0  0
    6.0893   -0.3353    0.4916 O   0  0  0  0  0  0  0  0  0  0  0  0
    4.0595   -1.2673    1.3125 C   0  0  0  0  0  0  0  0  0  0  0  0
    4.0245   -0.4705    2.3862 C   0  0  0  0  0  0  0  0  0  0  0  0
    3.1084   -0.6210    3.4084 O   0  0  0  0  0  0  0  0  0  0  0  0
    1.8259   -1.6209    9.0774 H   0  0  0  0  0  0  0  0  0  0  0  0
    0.6494   -0.5434    8.3373 H   0  0  0  0  0  0  0  0  0  0  0  0
    2.3720   -0.2218    8.1665 H   0  0  0  0  0  0  0  0  0  0  0  0
    2.6359   -2.3458    6.8426 H   0  0  0  0  0  0  0  0  0  0  0  0
    0.9267   -2.6704    7.0078 H   0  0  0  0  0  0  0  0  0  0  0  0
    0.4040   -0.5750    5.7085 H   0  0  0  0  0  0  0  0  0  0  0  0
    2.1061   -0.2300    5.5951 H   0  0  0  0  0  0  0  0  0  0  0  0
    0.7307   -2.7304    4.3602 H   0  0  0  0  0  0  0  0  0  0  0  0
    1.4874   -3.3386    2.1020 H   0  0  0  0  0  0  0  0  0  0  0  0
    2.8391   -4.2912    0.2540 H   0  0  0  0  0  0  0  0  0  0  0  0
    2.3546   -2.9341   -0.7488 H   0  0  0  0  0  0  0  0  0  0  0  0
    6.3599   -2.6773   -2.2483 H   0  0  0  0  0  0  0  0  0  0  0  0
    3.2958   -0.8225   -1.6713 H   0  0  0  0  0  0  0  0  0  0  0  0
    4.7773   -0.1188   -2.2048 H   0  0  0  0  0  0  0  0  0  0  0  0
    5.0123   -2.0936   -3.8499 H   0  0  0  0  0  0  0  0  0  0  0  0
    2.7571   -0.0751   -4.1816 H   0  0  0  0  0  0  0  0  0  0  0  0
    3.4241   -1.0394   -5.4801 H   0  0  0  0  0  0  0  0  0  0  0  0
    4.4371    0.1413   -4.6667 H   0  0  0  0  0  0  0  0  0  0  0  0
    2.0459   -2.4629   -3.1931 H   0  0  0  0  0  0  0  0  0  0  0  0
    3.2758   -3.7174   -3.0091 H   0  0  0  0  0  0  0  0  0  0  0  0
    2.8686   -3.1773   -4.5929 H   0  0  0  0  0  0  0  0  0  0  0  0
    4.7155    0.3402    2.5763 H   0  0  0  0  0  0  0  0  0  0  0  0
  1  2  1  0
  1 22  1  0
  1 23  1  0
  1 24  1  0
  2  3  1  0
  2 25  1  0
  2 26  1  0
  3  4  1  0
  3 27  1  0
  3 28  1  0
  4  5  2  3
  4 29  1  0
  5 21  1  0
  5  6  1  0
  6  7  2  0
  6 30  1  0
  7 19  1  0
  7  8  1  0
  8  9  1  0
  8 31  1  0
  8 32  1  0
  9 10  2  0
  9 11  1  0
 11 12  1  6
 11 13  1  0
 11 17  1  0
 12 33  1  0
 13 14  1  0
 13 34  1  0
 13 35  1  0
 14 15  1  0
 14 16  1  0
 14 36  1  0
 15 37  1  0
 15 38  1  0
 15 39  1  0
 16 40  1  0
 16 41  1  0
 16 42  1  0
 17 18  2  0
 17 19  1  0
 19 20  2  0
 20 21  1  0
 20 43  1  0
M  END
>  <i_m_ct_stereo_status>  (57) 
1

>  <s_m_source_file>  (57) 
/var/tmp/pbs.5076255.sched01/tmphrtf3o8j/0_qqz9eae.sdf

>  <i_m_source_file_index>  (57) 
28

>  <i_lp_mmshare_version>  (57) 
48012

>  <i_f3d_flags>  (57) 
0

>  <s_epik_input>  (57) 
W0NIM11bQ0gyXVtDSDJdL1tDSF09QyhcW0NIXT0xKU9bQ0hdPUMoQzEyKUMoPU8pW0NAQF0oW09IXSkoQyg9TylbQ0gyXTIpW0NIMl1bQ0hdKFtDSDNdKVtDSDNd

>  <s_epik_cmdline>  (57) 
J2VwaWtfcHl0aG9uJywgJy1waHQnLCAnMi4wJywgJy1waCcsICc3LjAnLCAnLXRuJywgJzgnLCAnLW1hJywgJzIwMCcsICctaW1hZScsICc8aW5maWxlLm1hZT4nLCAnLW9tYWUnLCAnPG91dGZpbGUubWFlPic=

>  <r_epik_Ionization_Penalty>  (57) 
0.000360349

>  <r_epik_Ionization_Penalty_Charging>  (57) 
0

>  <r_epik_Ionization_Penalty_Neutral>  (57) 
0.000360349

>  <r_epik_State_Penalty>  (57) 
0.000217858

>  <r_epik_Charging_Adjusted_Penalty>  (57) 
0.000217858

>  <i_epik_Tot_Q>  (57) 
0

>  <i_epik_Tot_abs_Q>  (57) 
0

>  <s_lp_Force_Field>  (57) 
OPLS3e

>  <r_lp_Energy>  (57) 
26.0907

>  <b_lp_Chiralities_Consistent>  (57) 
1

>  <s_lp_Variant>  (57) 
22:0-2

>  <s_i_glide_gridfile>  (57) 
pfpi4k_grid

>  <i_i_glide_lignum>  (57) 
28

>  <i_i_glide_rotatable_bonds>  (57) 
5

>  <r_i_docking_score>  (57) 
-3.40746

>  <r_i_glide_ligand_efficiency>  (57) 
-0.16226

>  <r_i_glide_ligand_efficiency_sa>  (57) 
-0.447662

>  <r_i_glide_ligand_efficiency_ln>  (57) 
-0.842486

>  <r_i_glide_gscore>  (57) 
-3.40746

>  <r_i_glide_lipo>  (57) 
-0.683063

>  <r_i_glide_hbond>  (57) 
0

>  <r_i_glide_metal>  (57) 
-0

>  <r_i_glide_rewards>  (57) 
-1.58561

>  <r_i_glide_evdw>  (57) 
-21.6294

>  <r_i_glide_ecoul>  (57) 
-3.26423

>  <r_i_glide_erotb>  (57) 
0.432324

>  <r_i_glide_esite>  (57) 
0

>  <r_i_glide_emodel>  (57) 
-30.237

>  <r_i_glide_energy>  (57) 
-24.8936

>  <r_i_glide_einternal>  (57) 
0.6372

>  <r_i_glide_intrahb_reward>  (57) 
-0

>  <i_i_glide_confnum>  (57) 
2

>  <i_i_glide_posenum>  (57) 
2

>  <r_i_glide_eff_state_penalty>  (57) 
0

>  <ligand_id>  (57) 
22

>  <original_smiles>  (57) 
CCCC=C1C=C2CC(=O)C(O)(CC(C)C)C(=O)C2=CO1

>  <smiles>  (57) 
[H]OC1(C([H])([H])C([H])(C([H])([H])[H])C([H])([H])[H])C(=O)C2=C([H])OC(=C([H])C([H])([H])C([H])([H])C([H])([H])[H])C([H])=C2C([H])([H])C1=O

$$$$
22:1:1
     RDKit          3D

 43 44  0  0  1  0  0  0  0  0999 V2000
   -0.7765   -8.5553    4.0621 C   0  0  0  0  0  0  0  0  0  0  0  0
   -0.9385   -7.0528    4.3286 C   0  0  0  0  0  0  0  0  0  0  0  0
    0.3918   -6.3174    4.5618 C   0  0  0  0  0  0  0  0  0  0  0  0
    1.3169   -6.3641    3.3520 C   0  0  0  0  0  0  0  0  0  0  0  0
    1.8193   -5.2901    2.7198 C   0  0  0  0  0  0  0  0  0  0  0  0
    2.7068   -5.4345    1.5745 C   0  0  0  0  0  0  0  0  0  0  0  0
    3.2665   -4.3525    0.9912 C   0  0  0  0  0  0  0  0  0  0  0  0
    4.1875   -4.5175   -0.2109 C   0  0  0  0  0  0  0  0  0  0  0  0
    5.1030   -3.3037   -0.3763 C   0  0  0  0  0  0  0  0  0  0  0  0
    6.3070   -3.4538   -0.6029 O   0  0  0  0  0  0  0  0  0  0  0  0
    4.4442   -1.9084   -0.2996 C   0  0  1  0  0  0  0  0  0  0  0  0
    5.4445   -0.8974   -0.3152 O   0  0  0  0  0  0  0  0  0  0  0  0
    3.5009   -1.6304   -1.4862 C   0  0  0  0  0  0  0  0  0  0  0  0
    4.1281   -1.6941   -2.9012 C   0  0  0  0  0  0  0  0  0  0  0  0
    4.0003   -0.3496   -3.6360 C   0  0  0  0  0  0  0  0  0  0  0  0
    3.4773   -2.8119   -3.7204 C   0  0  0  0  0  0  0  0  0  0  0  0
    3.6390   -1.8262    1.0216 C   0  0  0  0  0  0  0  0  0  0  0  0
    3.5512   -0.7251    1.5811 O   0  0  0  0  0  0  0  0  0  0  0  0
    2.9572   -3.0407    1.5533 C   0  0  0  0  0  0  0  0  0  0  0  0
    2.0979   -2.9429    2.5883 C   0  0  0  0  0  0  0  0  0  0  0  0
    1.4889   -4.0320    3.1717 O   0  0  0  0  0  0  0  0  0  0  0  0
   -1.7466   -9.0307    3.9198 H   0  0  0  0  0  0  0  0  0  0  0  0
   -0.2819   -9.0538    4.8965 H   0  0  0  0  0  0  0  0  0  0  0  0
   -0.1933   -8.7467    3.1614 H   0  0  0  0  0  0  0  0  0  0  0  0
   -1.4809   -6.5999    3.5009 H   0  0  0  0  0  0  0  0  0  0  0  0
   -1.5586   -6.9071    5.2124 H   0  0  0  0  0  0  0  0  0  0  0  0
    0.1912   -5.2852    4.8440 H   0  0  0  0  0  0  0  0  0  0  0  0
    0.9183   -6.7589    5.4089 H   0  0  0  0  0  0  0  0  0  0  0  0
    1.6084   -7.3472    3.0131 H   0  0  0  0  0  0  0  0  0  0  0  0
    2.9122   -6.4171    1.1668 H   0  0  0  0  0  0  0  0  0  0  0  0
    4.7946   -5.4167   -0.0866 H   0  0  0  0  0  0  0  0  0  0  0  0
    3.5873   -4.6449   -1.1100 H   0  0  0  0  0  0  0  0  0  0  0  0
    5.0229   -0.0544   -0.2115 H   0  0  0  0  0  0  0  0  0  0  0  0
    2.6605   -2.3234   -1.4179 H   0  0  0  0  0  0  0  0  0  0  0  0
    3.0345   -0.6601   -1.3339 H   0  0  0  0  0  0  0  0  0  0  0  0
    5.1962   -1.9116   -2.8305 H   0  0  0  0  0  0  0  0  0  0  0  0
    2.9651   -0.0072   -3.6688 H   0  0  0  0  0  0  0  0  0  0  0  0
    4.3470   -0.4264   -4.6664 H   0  0  0  0  0  0  0  0  0  0  0  0
    4.5823    0.4277   -3.1352 H   0  0  0  0  0  0  0  0  0  0  0  0
    2.4094   -2.6384   -3.8435 H   0  0  0  0  0  0  0  0  0  0  0  0
    3.6078   -3.7842   -3.2505 H   0  0  0  0  0  0  0  0  0  0  0  0
    3.9145   -2.8824   -4.7155 H   0  0  0  0  0  0  0  0  0  0  0  0
    1.8140   -2.0141    3.0675 H   0  0  0  0  0  0  0  0  0  0  0  0
  1  2  1  0
  1 22  1  0
  1 23  1  0
  1 24  1  0
  2  3  1  0
  2 25  1  0
  2 26  1  0
  3  4  1  0
  3 27  1  0
  3 28  1  0
  4  5  2  3
  4 29  1  0
  5 21  1  0
  5  6  1  0
  6  7  2  0
  6 30  1  0
  7 19  1  0
  7  8  1  0
  8  9  1  0
  8 31  1  0
  8 32  1  0
  9 10  2  0
  9 11  1  0
 11 12  1  1
 11 13  1  0
 11 17  1  0
 12 33  1  0
 13 14  1  0
 13 34  1  0
 13 35  1  0
 14 15  1  0
 14 16  1  0
 14 36  1  0
 15 37  1  0
 15 38  1  0
 15 39  1  0
 16 40  1  0
 16 41  1  0
 16 42  1  0
 17 18  2  0
 17 19  1  0
 19 20  2  0
 20 21  1  0
 20 43  1  0
M  END
>  <i_m_ct_stereo_status>  (58) 
1

>  <s_m_source_file>  (58) 
/var/tmp/pbs.5076255.sched01/tmphrtf3o8j/0_qqz9eae.sdf

>  <i_m_source_file_index>  (58) 
28

>  <i_lp_mmshare_version>  (58) 
48012

>  <i_f3d_flags>  (58) 
0

>  <s_epik_input>  (58) 
W0NIM11bQ0gyXVtDSDJdL1tDSF09QyhcW0NIXT0xKU9bQ0hdPUMoQzEyKUMoPU8pW0NAQF0oW09IXSkoQyg9TylbQ0gyXTIpW0NIMl1bQ0hdKFtDSDNdKVtDSDNd

>  <s_epik_cmdline>  (58) 
J2VwaWtfcHl0aG9uJywgJy1waHQnLCAnMi4wJywgJy1waCcsICc3LjAnLCAnLXRuJywgJzgnLCAnLW1hJywgJzIwMCcsICctaW1hZScsICc8aW5maWxlLm1hZT4nLCAnLW9tYWUnLCAnPG91dGZpbGUubWFlPic=

>  <r_epik_Ionization_Penalty>  (58) 
0.000360349

>  <r_epik_Ionization_Penalty_Charging>  (58) 
0

>  <r_epik_Ionization_Penalty_Neutral>  (58) 
0.000360349

>  <r_epik_State_Penalty>  (58) 
0.000217858

>  <r_epik_Charging_Adjusted_Penalty>  (58) 
0.000217858

>  <i_epik_Tot_Q>  (58) 
0

>  <i_epik_Tot_abs_Q>  (58) 
0

>  <s_lp_Force_Field>  (58) 
OPLS3e

>  <r_lp_Energy>  (58) 
26.0907

>  <b_lp_Chiralities_Consistent>  (58) 
1

>  <s_lp_Variant>  (58) 
22:0-2

>  <s_i_glide_gridfile>  (58) 
pfpi4k_grid

>  <i_i_glide_lignum>  (58) 
28

>  <i_i_glide_rotatable_bonds>  (58) 
5

>  <r_i_docking_score>  (58) 
-3.16175

>  <r_i_glide_ligand_efficiency>  (58) 
-0.15056

>  <r_i_glide_ligand_efficiency_sa>  (58) 
-0.415382

>  <r_i_glide_ligand_efficiency_ln>  (58) 
-0.781736

>  <r_i_glide_gscore>  (58) 
-3.16175

>  <r_i_glide_lipo>  (58) 
-0.469394

>  <r_i_glide_hbond>  (58) 
0

>  <r_i_glide_metal>  (58) 
-0

>  <r_i_glide_rewards>  (58) 
-1.48767

>  <r_i_glide_evdw>  (58) 
-23.2838

>  <r_i_glide_ecoul>  (58) 
-2.98313

>  <r_i_glide_erotb>  (58) 
0.432324

>  <r_i_glide_esite>  (58) 
-0.0253519

>  <r_i_glide_emodel>  (58) 
-29.6101

>  <r_i_glide_energy>  (58) 
-26.2669

>  <r_i_glide_einternal>  (58) 
4.13878

>  <r_i_glide_intrahb_reward>  (58) 
-0

>  <i_i_glide_confnum>  (58) 
1

>  <i_i_glide_posenum>  (58) 
1

>  <r_i_glide_eff_state_penalty>  (58) 
0

>  <ligand_id>  (58) 
22

>  <original_smiles>  (58) 
CCCC=C1C=C2CC(=O)C(O)(CC(C)C)C(=O)C2=CO1

>  <smiles>  (58) 
[H]OC1(C([H])([H])C([H])(C([H])([H])[H])C([H])([H])[H])C(=O)C2=C([H])OC(=C([H])C([H])([H])C([H])([H])C([H])([H])[H])C([H])=C2C([H])([H])C1=O

$$$$
22:1:2
     RDKit          3D

 43 44  0  0  1  0  0  0  0  0999 V2000
   -1.3854   -8.3468    2.0779 C   0  0  0  0  0  0  0  0  0  0  0  0
   -0.7555   -8.9377    3.3425 C   0  0  0  0  0  0  0  0  0  0  0  0
    0.3668   -8.0679    3.9208 C   0  0  0  0  0  0  0  0  0  0  0  0
    1.5728   -7.9955    2.9967 C   0  0  0  0  0  0  0  0  0  0  0  0
    2.0102   -6.8818    2.4080 C   0  0  0  0  0  0  0  0  0  0  0  0
    3.1712   -6.8786    1.5273 C   0  0  0  0  0  0  0  0  0  0  0  0
    3.6232   -5.7404    0.9911 C   0  0  0  0  0  0  0  0  0  0  0  0
    4.8585   -5.7558    0.0774 C   0  0  0  0  0  0  0  0  0  0  0  0
    5.5407   -4.3893    0.0632 C   0  0  0  0  0  0  0  0  0  0  0  0
    6.7724   -4.3349    0.1306 O   0  0  0  0  0  0  0  0  0  0  0  0
    4.6363   -3.1344   -0.1408 C   0  0  1  0  0  0  0  0  0  0  0  0
    5.4525   -2.0079    0.1150 O   0  0  0  0  0  0  0  0  0  0  0  0
    4.1011   -3.0656   -1.5956 C   0  0  0  0  0  0  0  0  0  0  0  0
    3.5244   -1.7151   -2.1010 C   0  0  0  0  0  0  0  0  0  0  0  0
    2.9223   -1.8951   -3.5093 C   0  0  0  0  0  0  0  0  0  0  0  0
    4.5358   -0.5662   -2.1523 C   0  0  0  0  0  0  0  0  0  0  0  0
    3.4886   -3.1884    0.9053 C   0  0  0  0  0  0  0  0  0  0  0  0
    3.0071   -2.1214    1.3100 O   0  0  0  0  0  0  0  0  0  0  0  0
    2.9455   -4.5012    1.3392 C   0  0  0  0  0  0  0  0  0  0  0  0
    1.8584   -4.5314    2.1348 C   0  0  0  0  0  0  0  0  0  0  0  0
    1.3249   -5.6973    2.6359 O   0  0  0  0  0  0  0  0  0  0  0  0
   -2.1832   -8.9923    1.7113 H   0  0  0  0  0  0  0  0  0  0  0  0
   -0.6512   -8.2456    1.2766 H   0  0  0  0  0  0  0  0  0  0  0  0
   -1.8053   -7.3640    2.2781 H   0  0  0  0  0  0  0  0  0  0  0  0
   -1.5282   -9.0458    4.1044 H   0  0  0  0  0  0  0  0  0  0  0  0
   -0.3826   -9.9416    3.1454 H   0  0  0  0  0  0  0  0  0  0  0  0
   -0.0019   -7.0709    4.1485 H   0  0  0  0  0  0  0  0  0  0  0  0
    0.7136   -8.4853    4.8645 H   0  0  0  0  0  0  0  0  0  0  0  0
    2.1044   -8.9214    2.8194 H   0  0  0  0  0  0  0  0  0  0  0  0
    3.6750   -7.8139    1.2843 H   0  0  0  0  0  0  0  0  0  0  0  0
    5.5805   -6.4873    0.4481 H   0  0  0  0  0  0  0  0  0  0  0  0
    4.6026   -6.0317   -0.9393 H   0  0  0  0  0  0  0  0  0  0  0  0
    4.9122   -1.2286    0.0916 H   0  0  0  0  0  0  0  0  0  0  0  0
    4.8526   -3.4538   -2.2773 H   0  0  0  0  0  0  0  0  0  0  0  0
    3.2990   -3.7990   -1.6658 H   0  0  0  0  0  0  0  0  0  0  0  0
    2.7148   -1.4282   -1.4569 H   0  0  0  0  0  0  0  0  0  0  0  0
    3.6373   -2.3154   -4.2195 H   0  0  0  0  0  0  0  0  0  0  0  0
    2.6071   -0.9318   -3.9217 H   0  0  0  0  0  0  0  0  0  0  0  0
    2.0373   -2.5394   -3.5181 H   0  0  0  0  0  0  0  0  0  0  0  0
    5.4004   -0.9048   -2.7035 H   0  0  0  0  0  0  0  0  0  0  0  0
    4.8889   -0.2572   -1.1746 H   0  0  0  0  0  0  0  0  0  0  0  0
    4.1468    0.2884   -2.7197 H   0  0  0  0  0  0  0  0  0  0  0  0
    1.3076   -3.6583    2.4622 H   0  0  0  0  0  0  0  0  0  0  0  0
  1  2  1  0
  1 22  1  0
  1 23  1  0
  1 24  1  0
  2  3  1  0
  2 25  1  0
  2 26  1  0
  3  4  1  0
  3 27  1  0
  3 28  1  0
  4  5  2  3
  4 29  1  0
  5 21  1  0
  5  6  1  0
  6  7  2  0
  6 30  1  0
  7 19  1  0
  7  8  1  0
  8  9  1  0
  8 31  1  0
  8 32  1  0
  9 10  2  0
  9 11  1  0
 11 12  1  1
 11 13  1  0
 11 17  1  0
 12 33  1  0
 13 14  1  0
 13 34  1  0
 13 35  1  0
 14 15  1  0
 14 16  1  0
 14 36  1  0
 15 37  1  0
 15 38  1  0
 15 39  1  0
 16 40  1  0
 16 41  1  0
 16 42  1  0
 17 18  2  0
 17 19  1  0
 19 20  2  0
 20 21  1  0
 20 43  1  0
M  END
>  <i_m_ct_stereo_status>  (59) 
1

>  <s_m_source_file>  (59) 
/var/tmp/pbs.5076255.sched01/tmphrtf3o8j/0_qqz9eae.sdf

>  <i_m_source_file_index>  (59) 
28

>  <i_lp_mmshare_version>  (59) 
48012

>  <i_f3d_flags>  (59) 
0

>  <s_epik_input>  (59) 
W0NIM11bQ0gyXVtDSDJdL1tDSF09QyhcW0NIXT0xKU9bQ0hdPUMoQzEyKUMoPU8pW0NAQF0oW09IXSkoQyg9TylbQ0gyXTIpW0NIMl1bQ0hdKFtDSDNdKVtDSDNd

>  <s_epik_cmdline>  (59) 
J2VwaWtfcHl0aG9uJywgJy1waHQnLCAnMi4wJywgJy1waCcsICc3LjAnLCAnLXRuJywgJzgnLCAnLW1hJywgJzIwMCcsICctaW1hZScsICc8aW5maWxlLm1hZT4nLCAnLW9tYWUnLCAnPG91dGZpbGUubWFlPic=

>  <r_epik_Ionization_Penalty>  (59) 
0.000360349

>  <r_epik_Ionization_Penalty_Charging>  (59) 
0

>  <r_epik_Ionization_Penalty_Neutral>  (59) 
0.000360349

>  <r_epik_State_Penalty>  (59) 
0.000217858

>  <r_epik_Charging_Adjusted_Penalty>  (59) 
0.000217858

>  <i_epik_Tot_Q>  (59) 
0

>  <i_epik_Tot_abs_Q>  (59) 
0

>  <s_lp_Force_Field>  (59) 
OPLS3e

>  <r_lp_Energy>  (59) 
26.0907

>  <b_lp_Chiralities_Consistent>  (59) 
1

>  <s_lp_Variant>  (59) 
22:0-2

>  <s_i_glide_gridfile>  (59) 
pfpi4k_grid

>  <i_i_glide_lignum>  (59) 
28

>  <i_i_glide_rotatable_bonds>  (59) 
5

>  <r_i_docking_score>  (59) 
-2.97077

>  <r_i_glide_ligand_efficiency>  (59) 
-0.141465

>  <r_i_glide_ligand_efficiency_sa>  (59) 
-0.390292

>  <r_i_glide_ligand_efficiency_ln>  (59) 
-0.734518

>  <r_i_glide_gscore>  (59) 
-2.97077

>  <r_i_glide_lipo>  (59) 
-0.339138

>  <r_i_glide_hbond>  (59) 
0

>  <r_i_glide_metal>  (59) 
-0

>  <r_i_glide_rewards>  (59) 
-1.51567

>  <r_i_glide_evdw>  (59) 
-22.705

>  <r_i_glide_ecoul>  (59) 
-2.72159

>  <r_i_glide_erotb>  (59) 
0.432324

>  <r_i_glide_esite>  (59) 
-0.00479696

>  <r_i_glide_emodel>  (59) 
-28.1263

>  <r_i_glide_energy>  (59) 
-25.4266

>  <r_i_glide_einternal>  (59) 
3.24918

>  <r_i_glide_intrahb_reward>  (59) 
-0

>  <i_i_glide_confnum>  (59) 
5

>  <i_i_glide_posenum>  (59) 
29

>  <r_i_glide_eff_state_penalty>  (59) 
0

>  <ligand_id>  (59) 
22

>  <original_smiles>  (59) 
CCCC=C1C=C2CC(=O)C(O)(CC(C)C)C(=O)C2=CO1

>  <smiles>  (59) 
[H]OC1(C([H])([H])C([H])(C([H])([H])[H])C([H])([H])[H])C(=O)C2=C([H])OC(=C([H])C([H])([H])C([H])([H])C([H])([H])[H])C([H])=C2C([H])([H])C1=O

$$$$
23:0:0
     RDKit          3D

 62 70  0  0  1  0  0  0  0  0999 V2000
    0.0854   -6.6325    1.1044 C   0  0  0  0  0  0  0  0  0  0  0  0
    1.2009   -6.0803    2.0113 C   0  0  0  0  0  0  0  0  0  0  0  0
    2.6061   -6.1111    1.3802 C   0  0  2  0  0  0  0  0  0  0  0  0
    3.6274   -6.4408    2.4673 O   0  0  0  0  0  0  0  0  0  0  0  0
    5.1407   -6.4258    2.5842 C   0  0  2  0  0  0  0  0  0  0  0  0
    5.8258   -7.5595    1.7472 C   0  0  0  0  0  0  0  0  0  0  0  0
    5.1003   -8.7687    1.8755 O   0  0  0  0  0  0  0  0  0  0  0  0
    4.9230   -9.1875    3.2157 C   0  0  1  0  0  0  0  0  0  0  0  0
    6.1088   -9.8189    3.8807 C   0  0  2  0  0  0  0  0  0  0  0  0
    7.2733   -9.0472    4.2672 O   0  0  0  0  0  0  0  0  0  0  0  0
    6.0430   -8.7717    4.9678 C   0  0  1  0  0  0  0  0  0  0  0  0
    4.9038   -8.0874    4.2837 C   0  0  1  0  0  0  0  0  0  0  0  0
    5.3766   -6.8052    3.8980 O   0  0  0  0  0  0  0  0  0  0  0  0
    5.9227   -4.9213    2.5776 C   0  0  2  0  0  0  0  0  0  0  0  0
    4.9125   -4.0882    3.2091 C   0  0  0  0  0  0  0  0  0  0  0  0
    3.9651   -4.0133    2.0057 C   0  0  2  0  0  0  0  0  0  0  0  0
    4.1938   -4.8893    0.5635 C   0  0  2  0  0  0  0  0  0  0  0  0
    5.1879   -4.3839   -0.5365 C   0  0  2  0  0  0  0  0  0  0  0  0
    6.5947   -4.6029    0.0206 C   0  0  0  0  0  0  0  0  0  0  0  0
    6.3944   -3.9151    1.3441 C   0  0  1  0  0  0  0  0  0  0  0  0
    5.3888   -2.6598    0.8993 C   0  0  1  0  0  0  0  0  0  0  0  0
    5.0188   -2.8873   -0.5784 C   0  0  2  0  0  0  0  0  0  0  0  0
    3.5115   -2.5688   -0.8444 C   0  0  1  0  0  0  0  0  0  0  0  0
    3.0389   -3.0434   -2.1455 N   0  0  0  0  0  0  0  0  0  0  0  0
    3.3821   -2.5596   -3.3220 C   0  0  0  0  0  0  0  0  0  0  0  0
    4.2099   -1.6405   -3.4940 O   0  0  0  0  0  0  0  0  0  0  0  0
    2.8289   -3.2400    0.3790 C   0  0  1  0  0  0  0  0  0  0  0  0
    2.8164   -4.8831    0.2901 C   0  0  2  0  0  0  0  0  0  0  0  0
    3.9005   -2.7368    1.4216 C   0  0  1  0  0  0  0  0  0  0  0  0
    3.4834   -1.7409    2.3480 O   0  0  0  0  0  0  0  0  0  0  0  0
    3.2134   -0.4703    1.7794 C   0  0  0  0  0  0  0  0  0  0  0  0
   -0.8821   -6.5678    1.5969 H   0  0  0  0  0  0  0  0  0  0  0  0
    0.2452   -7.6918    0.8839 H   0  0  0  0  0  0  0  0  0  0  0  0
    0.0245   -6.1205    0.1421 H   0  0  0  0  0  0  0  0  0  0  0  0
    0.9735   -5.0681    2.3509 H   0  0  0  0  0  0  0  0  0  0  0  0
    1.2226   -6.6918    2.9155 H   0  0  0  0  0  0  0  0  0  0  0  0
    2.6542   -7.0345    0.7926 H   0  0  0  0  0  0  0  0  0  0  0  0
    5.8642   -7.3623    0.6841 H   0  0  0  0  0  0  0  0  0  0  0  0
    6.8603   -7.6835    2.0699 H   0  0  0  0  0  0  0  0  0  0  0  0
    4.0529   -9.8361    3.2675 H   0  0  0  0  0  0  0  0  0  0  0  0
    6.0725  -10.8856    4.1227 H   0  0  0  0  0  0  0  0  0  0  0  0
    5.9136   -9.0785    6.0110 H   0  0  0  0  0  0  0  0  0  0  0  0
    3.9766   -8.0627    4.8410 H   0  0  0  0  0  0  0  0  0  0  0  0
    6.7941   -5.0571    3.2214 H   0  0  0  0  0  0  0  0  0  0  0  0
    4.4588   -4.5479    4.0840 H   0  0  0  0  0  0  0  0  0  0  0  0
    5.3139   -3.1255    3.5260 H   0  0  0  0  0  0  0  0  0  0  0  0
    3.0026   -4.0969    2.5269 H   0  0  0  0  0  0  0  0  0  0  0  0
    4.5210   -5.9123    0.4327 H   0  0  0  0  0  0  0  0  0  0  0  0
    5.0501   -4.8577   -1.5068 H   0  0  0  0  0  0  0  0  0  0  0  0
    6.9273   -5.6344    0.0958 H   0  0  0  0  0  0  0  0  0  0  0  0
    7.3270   -4.0561   -0.5768 H   0  0  0  0  0  0  0  0  0  0  0  0
    7.3524   -3.4696    1.6420 H   0  0  0  0  0  0  0  0  0  0  0  0
    5.8222   -1.6698    1.0596 H   0  0  0  0  0  0  0  0  0  0  0  0
    5.7135   -2.4050   -1.2723 H   0  0  0  0  0  0  0  0  0  0  0  0
    3.3403   -1.4883   -0.8146 H   0  0  0  0  0  0  0  0  0  0  0  0
    2.3702   -3.8191   -2.1396 H   0  0  0  0  0  0  0  0  0  0  0  0
    2.8544   -3.0676   -4.1403 H   0  0  0  0  0  0  0  0  0  0  0  0
    1.8318   -2.8400    0.5675 H   0  0  0  0  0  0  0  0  0  0  0  0
    2.5449   -5.2223   -0.6849 H   0  0  0  0  0  0  0  0  0  0  0  0
    2.9694    0.2341    2.5752 H   0  0  0  0  0  0  0  0  0  0  0  0
    2.3640   -0.5077    1.1007 H   0  0  0  0  0  0  0  0  0  0  0  0
    4.0779   -0.0757    1.2399 H   0  0  0  0  0  0  0  0  0  0  0  0
  1  2  1  0
  1 32  1  0
  1 33  1  0
  1 34  1  0
  2  3  1  0
  2 35  1  0
  2 36  1  0
  3 28  1  0
  3  4  1  0
  3 37  1  6
  5  4  1  1
  5 13  1  0
  5  6  1  0
  5 14  1  0
  6  7  1  0
  6 38  1  0
  6 39  1  0
  7  8  1  0
  8 12  1  0
  8  9  1  0
  8 40  1  6
  9 11  1  0
  9 10  1  0
  9 41  1  1
 10 11  1  0
 11 12  1  0
 11 42  1  1
 12 13  1  0
 12 43  1  1
 14 20  1  0
 14 15  1  0
 14 44  1  1
 15 16  1  0
 15 45  1  0
 15 46  1  0
 16 29  1  0
 16 17  1  0
 16 47  1  1
 17 28  1  0
 17 18  1  0
 17 48  1  1
 18 22  1  0
 18 19  1  0
 18 49  1  6
 19 20  1  0
 19 50  1  0
 19 51  1  0
 20 21  1  0
 20 52  1  1
 21 29  1  0
 21 22  1  0
 21 53  1  6
 22 23  1  0
 22 54  1  6
 23 24  1  0
 23 27  1  0
 23 55  1  6
 24 25  1  0
 24 56  1  0
 25 26  2  0
 25 57  1  0
 27 28  1  0
 27 29  1  0
 27 58  1  1
 28 59  1  6
 29 30  1  1
 30 31  1  0
 31 60  1  0
 31 61  1  0
 31 62  1  0
M  END
>  <i_m_ct_stereo_status>  (60) 
1

>  <s_m_source_file>  (60) 
/var/tmp/pbs.5076255.sched01/tmphrtf3o8j/0_qqz9eae.sdf

>  <i_m_source_file_index>  (60) 
29

>  <i_lp_mmshare_version>  (60) 
48012

>  <i_f3d_flags>  (60) 
0

>  <s_epik_input>  (60) 
W0NIM11bQ0gyXVtDQEhdKE8xKVtDQEhdMltDQEhdKFtDQEBIXTNbTkhdW0NIXT1PKVtDQEBdNChPW0NIM10pW0NASF0oW0NIMl01KVtDQEBIXTJbQ0BIXShbQ0gyXTYpW0NAQEhdM1tDQEBIXTRbQ0BIXTZbQ0BASF01W0NAXTE3W0NIMl1PW0NASF04W0NAQEhdOVtDQEBIXShPOSlbQ0BIXThPNw==

>  <s_epik_cmdline>  (60) 
J2VwaWtfcHl0aG9uJywgJy1waHQnLCAnMi4wJywgJy1waCcsICc3LjAnLCAnLXRuJywgJzgnLCAnLW1hJywgJzIwMCcsICctaW1hZScsICc8aW5maWxlLm1hZT4nLCAnLW9tYWUnLCAnPG91dGZpbGUubWFlPic=

>  <r_lp_tautomer_probability>  (60) 
1

>  <r_epik_Ionization_Penalty>  (60) 
5.6733e-08

>  <r_epik_Ionization_Penalty_Charging>  (60) 
0

>  <r_epik_Ionization_Penalty_Neutral>  (60) 
5.6733e-08

>  <r_epik_State_Penalty>  (60) 
-0

>  <r_epik_Charging_Adjusted_Penalty>  (60) 
0

>  <i_epik_Tot_Q>  (60) 
0

>  <i_epik_Tot_abs_Q>  (60) 
0

>  <s_lp_Force_Field>  (60) 
OPLS3e

>  <r_lp_Energy>  (60) 
305.105

>  <b_lp_Chiralities_Consistent>  (60) 
1

>  <s_lp_Variant>  (60) 
23:0-1

>  <s_i_glide_gridfile>  (60) 
pfpi4k_grid

>  <i_i_glide_lignum>  (60) 
29

>  <i_i_glide_rotatable_bonds>  (60) 
4

>  <r_i_docking_score>  (60) 
-2.84286

>  <r_i_glide_ligand_efficiency>  (60) 
-0.0917052

>  <r_i_glide_ligand_efficiency_sa>  (60) 
-0.288081

>  <r_i_glide_ligand_efficiency_ln>  (60) 
-0.641152

>  <r_i_glide_gscore>  (60) 
-2.84286

>  <r_i_glide_lipo>  (60) 
-0.442107

>  <r_i_glide_hbond>  (60) 
-0.0129914

>  <r_i_glide_metal>  (60) 
-0

>  <r_i_glide_rewards>  (60) 
-0.677941

>  <r_i_glide_evdw>  (60) 
-24.9949

>  <r_i_glide_ecoul>  (60) 
-3.67813

>  <r_i_glide_erotb>  (60) 
0.107727

>  <r_i_glide_esite>  (60) 
-0.0160832

>  <r_i_glide_emodel>  (60) 
-32.5406

>  <r_i_glide_energy>  (60) 
-28.673

>  <r_i_glide_einternal>  (60) 
1.59138

>  <r_i_glide_intrahb_reward>  (60) 
-0

>  <i_i_glide_confnum>  (60) 
2

>  <i_i_glide_posenum>  (60) 
24

>  <r_i_glide_eff_state_penalty>  (60) 
0

>  <ligand_id>  (60) 
23

>  <original_smiles>  (60) 
CCC1OC2(COC3C4OC4C3O2)C2CC3C4C5CC2C2C5C(NC=O)C(C14)C32OC

>  <smiles>  (60) 
[H]C(=O)N([H])C1([H])C2([H])C3([H])C([H])([H])C4([H])C5([H])C([H])([H])C6([H])C3([H])C([H])(C([H])(C([H])([H])C([H])([H])[H])OC53OC5([H])C([H])(OC3([H])[H])C3([H])OC35[H])C1([H])C6(OC([H])([H])[H])C42[H]

$$$$
23:0:1
     RDKit          3D

 62 70  0  0  1  0  0  0  0  0999 V2000
    1.6368   -4.0172   -1.0370 C   0  0  0  0  0  0  0  0  0  0  0  0
    1.7296   -5.3933   -0.3198 C   0  0  0  0  0  0  0  0  0  0  0  0
    3.1319   -5.8000    0.1886 C   0  0  2  0  0  0  0  0  0  0  0  0
    2.9312   -6.6050    1.4824 O   0  0  0  0  0  0  0  0  0  0  0  0
    3.8088   -7.0867    2.6116 C   0  0  2  0  0  0  0  0  0  0  0  0
    4.7077   -8.2923    2.1929 C   0  0  0  0  0  0  0  0  0  0  0  0
    3.9448   -9.1739    1.3898 O   0  0  0  0  0  0  0  0  0  0  0  0
    2.7856   -9.6715    2.0157 C   0  0  1  0  0  0  0  0  0  0  0  0
    2.9543  -10.7048    3.0739 C   0  0  2  0  0  0  0  0  0  0  0  0
    3.5375  -10.3935    4.3558 O   0  0  0  0  0  0  0  0  0  0  0  0
    2.2589   -9.8214    4.0492 C   0  0  1  0  0  0  0  0  0  0  0  0
    2.1213   -8.7328    3.0497 C   0  0  1  0  0  0  0  0  0  0  0  0
    2.9053   -7.6355    3.5243 O   0  0  0  0  0  0  0  0  0  0  0  0
    4.5470   -5.9319    3.6212 C   0  0  2  0  0  0  0  0  0  0  0  0
    3.5334   -4.8833    3.5945 C   0  0  0  0  0  0  0  0  0  0  0  0
    3.8363   -4.3697    2.1812 C   0  0  2  0  0  0  0  0  0  0  0  0
    4.9374   -5.1269    1.1177 C   0  0  2  0  0  0  0  0  0  0  0  0
    6.4787   -4.8832    1.2368 C   0  0  2  0  0  0  0  0  0  0  0  0
    6.9376   -5.6043    2.5069 C   0  0  0  0  0  0  0  0  0  0  0  0
    5.9155   -5.0148    3.4414 C   0  0  1  0  0  0  0  0  0  0  0  0
    5.7808   -3.4656    2.8517 C   0  0  1  0  0  0  0  0  0  0  0  0
    6.6183   -3.4194    1.5471 C   0  0  2  0  0  0  0  0  0  0  0  0
    5.8971   -2.5836    0.4436 C   0  0  1  0  0  0  0  0  0  0  0  0
    6.4650   -2.7868   -0.8873 N   0  0  0  0  0  0  0  0  0  0  0  0
    5.8950   -2.4137   -2.0358 C   0  0  0  0  0  0  0  0  0  0  0  0
    4.8403   -1.7909   -2.1375 O   0  0  0  0  0  0  0  0  0  0  0  0
    4.4458   -3.0951    0.5846 C   0  0  1  0  0  0  0  0  0  0  0  0
    4.2577   -4.6216   -0.0017 C   0  0  2  0  0  0  0  0  0  0  0  0
    4.4209   -3.0912    2.1565 C   0  0  1  0  0  0  0  0  0  0  0  0
    3.6004   -2.1161    2.7832 O   0  0  0  0  0  0  0  0  0  0  0  0
    3.9969   -0.7743    2.5547 C   0  0  0  0  0  0  0  0  0  0  0  0
    0.6488   -3.8449   -1.4813 H   0  0  0  0  0  0  0  0  0  0  0  0
    2.3531   -3.9281   -1.8568 H   0  0  0  0  0  0  0  0  0  0  0  0
    1.8323   -3.2163   -0.3199 H   0  0  0  0  0  0  0  0  0  0  0  0
    1.0445   -5.4287    0.5188 H   0  0  0  0  0  0  0  0  0  0  0  0
    1.4127   -6.1619   -1.0087 H   0  0  0  0  0  0  0  0  0  0  0  0
    3.5486   -6.5418   -0.4643 H   0  0  0  0  0  0  0  0  0  0  0  0
    5.5730   -8.0311    1.5849 H   0  0  0  0  0  0  0  0  0  0  0  0
    5.1015   -8.7956    3.0740 H   0  0  0  0  0  0  0  0  0  0  0  0
    2.0828   -9.9800    1.2607 H   0  0  0  0  0  0  0  0  0  0  0  0
    2.5994  -11.7405    2.8778 H   0  0  0  0  0  0  0  0  0  0  0  0
    1.3419  -10.1707    4.5915 H   0  0  0  0  0  0  0  0  0  0  0  0
    1.1186   -8.4832    2.7882 H   0  0  0  0  0  0  0  0  0  0  0  0
    4.5885   -6.3844    4.6085 H   0  0  0  0  0  0  0  0  0  0  0  0
    2.5038   -5.2465    3.7107 H   0  0  0  0  0  0  0  0  0  0  0  0
    3.6862   -4.1275    4.3848 H   0  0  0  0  0  0  0  0  0  0  0  0
    2.8035   -4.1708    1.8437 H   0  0  0  0  0  0  0  0  0  0  0  0
    5.1110   -6.1962    0.9468 H   0  0  0  0  0  0  0  0  0  0  0  0
    7.0432   -5.1898    0.3520 H   0  0  0  0  0  0  0  0  0  0  0  0
    6.9413   -6.6939    2.4500 H   0  0  0  0  0  0  0  0  0  0  0  0
    7.9515   -5.2919    2.7616 H   0  0  0  0  0  0  0  0  0  0  0  0
    6.3718   -4.9458    4.4562 H   0  0  0  0  0  0  0  0  0  0  0  0
    6.0242   -2.6630    3.5519 H   0  0  0  0  0  0  0  0  0  0  0  0
    7.6591   -3.1385    1.6616 H   0  0  0  0  0  0  0  0  0  0  0  0
    5.9349   -1.5136    0.6771 H   0  0  0  0  0  0  0  0  0  0  0  0
    7.3674   -3.2413   -0.9313 H   0  0  0  0  0  0  0  0  0  0  0  0
    6.5205   -2.7262   -2.8844 H   0  0  0  0  0  0  0  0  0  0  0  0
    3.7379   -2.3874    0.1420 H   0  0  0  0  0  0  0  0  0  0  0  0
    4.8160   -4.7965   -0.9051 H   0  0  0  0  0  0  0  0  0  0  0  0
    3.3512   -0.1082    3.1269 H   0  0  0  0  0  0  0  0  0  0  0  0
    3.9013   -0.4952    1.5052 H   0  0  0  0  0  0  0  0  0  0  0  0
    5.0251   -0.6032    2.8712 H   0  0  0  0  0  0  0  0  0  0  0  0
  1  2  1  0
  1 32  1  0
  1 33  1  0
  1 34  1  0
  2  3  1  0
  2 35  1  0
  2 36  1  0
  3 28  1  0
  3  4  1  0
  3 37  1  6
  5  4  1  6
  5 13  1  0
  5  6  1  0
  5 14  1  0
  6  7  1  0
  6 38  1  0
  6 39  1  0
  7  8  1  0
  8 12  1  0
  8  9  1  0
  8 40  1  6
  9 11  1  0
  9 10  1  0
  9 41  1  6
 10 11  1  0
 11 12  1  0
 11 42  1  1
 12 13  1  0
 12 43  1  6
 14 20  1  0
 14 15  1  0
 14 44  1  1
 15 16  1  0
 15 45  1  0
 15 46  1  0
 16 29  1  0
 16 17  1  0
 16 47  1  6
 17 28  1  0
 17 18  1  0
 17 48  1  6
 18 22  1  0
 18 19  1  0
 18 49  1  6
 19 20  1  0
 19 50  1  0
 19 51  1  0
 20 21  1  0
 20 52  1  1
 21 29  1  0
 21 22  1  0
 21 53  1  1
 22 23  1  0
 22 54  1  1
 23 24  1  0
 23 27  1  0
 23 55  1  1
 24 25  1  0
 24 56  1  0
 25 26  2  0
 25 57  1  0
 27 28  1  0
 27 29  1  0
 27 58  1  6
 28 59  1  6
 29 30  1  1
 30 31  1  0
 31 60  1  0
 31 61  1  0
 31 62  1  0
M  END
>  <i_m_ct_stereo_status>  (61) 
1

>  <s_m_source_file>  (61) 
/var/tmp/pbs.5076255.sched01/tmphrtf3o8j/0_qqz9eae.sdf

>  <i_m_source_file_index>  (61) 
29

>  <i_lp_mmshare_version>  (61) 
48012

>  <i_f3d_flags>  (61) 
0

>  <s_epik_input>  (61) 
W0NIM11bQ0gyXVtDQEhdKE8xKVtDQEhdMltDQEhdKFtDQEBIXTNbTkhdW0NIXT1PKVtDQEBdNChPW0NIM10pW0NASF0oW0NIMl01KVtDQEBIXTJbQ0BIXShbQ0gyXTYpW0NAQEhdM1tDQEBIXTRbQ0BIXTZbQ0BASF01W0NAXTE3W0NIMl1PW0NASF04W0NAQEhdOVtDQEBIXShPOSlbQ0BIXThPNw==

>  <s_epik_cmdline>  (61) 
J2VwaWtfcHl0aG9uJywgJy1waHQnLCAnMi4wJywgJy1waCcsICc3LjAnLCAnLXRuJywgJzgnLCAnLW1hJywgJzIwMCcsICctaW1hZScsICc8aW5maWxlLm1hZT4nLCAnLW9tYWUnLCAnPG91dGZpbGUubWFlPic=

>  <r_lp_tautomer_probability>  (61) 
1

>  <r_epik_Ionization_Penalty>  (61) 
5.6733e-08

>  <r_epik_Ionization_Penalty_Charging>  (61) 
0

>  <r_epik_Ionization_Penalty_Neutral>  (61) 
5.6733e-08

>  <r_epik_State_Penalty>  (61) 
-0

>  <r_epik_Charging_Adjusted_Penalty>  (61) 
0

>  <i_epik_Tot_Q>  (61) 
0

>  <i_epik_Tot_abs_Q>  (61) 
0

>  <s_lp_Force_Field>  (61) 
OPLS3e

>  <r_lp_Energy>  (61) 
305.105

>  <b_lp_Chiralities_Consistent>  (61) 
1

>  <s_lp_Variant>  (61) 
23:0-1

>  <s_i_glide_gridfile>  (61) 
pfpi4k_grid

>  <i_i_glide_lignum>  (61) 
29

>  <i_i_glide_rotatable_bonds>  (61) 
4

>  <r_i_docking_score>  (61) 
-1.67387

>  <r_i_glide_ligand_efficiency>  (61) 
-0.0539958

>  <r_i_glide_ligand_efficiency_sa>  (61) 
-0.169621

>  <r_i_glide_ligand_efficiency_ln>  (61) 
-0.377509

>  <r_i_glide_gscore>  (61) 
-1.67387

>  <r_i_glide_lipo>  (61) 
-0.364457

>  <r_i_glide_hbond>  (61) 
0

>  <r_i_glide_metal>  (61) 
-0

>  <r_i_glide_rewards>  (61) 
-0.480641

>  <r_i_glide_evdw>  (61) 
-18.5588

>  <r_i_glide_ecoul>  (61) 
0.129347

>  <r_i_glide_erotb>  (61) 
0.107727

>  <r_i_glide_esite>  (61) 
-0.0279591

>  <r_i_glide_emodel>  (61) 
-17.333

>  <r_i_glide_energy>  (61) 
-18.4295

>  <r_i_glide_einternal>  (61) 
6.42935

>  <r_i_glide_intrahb_reward>  (61) 
-0

>  <i_i_glide_confnum>  (61) 
1

>  <i_i_glide_posenum>  (61) 
39

>  <r_i_glide_eff_state_penalty>  (61) 
0

>  <ligand_id>  (61) 
23

>  <original_smiles>  (61) 
CCC1OC2(COC3C4OC4C3O2)C2CC3C4C5CC2C2C5C(NC=O)C(C14)C32OC

>  <smiles>  (61) 
[H]C(=O)N([H])C1([H])C2([H])C3([H])C([H])([H])C4([H])C5([H])C([H])([H])C6([H])C3([H])C([H])(C([H])(C([H])([H])C([H])([H])[H])OC53OC5([H])C([H])(OC3([H])[H])C3([H])OC35[H])C1([H])C6(OC([H])([H])[H])C42[H]

$$$$
23:0:2
     RDKit          3D

 62 70  0  0  1  0  0  0  0  0999 V2000
    1.0370   -4.5208   -1.1286 C   0  0  0  0  0  0  0  0  0  0  0  0
    1.7052   -5.4127   -0.0465 C   0  0  0  0  0  0  0  0  0  0  0  0
    3.2113   -5.1349    0.1621 C   0  0  2  0  0  0  0  0  0  0  0  0
    3.5199   -5.3492    1.6532 O   0  0  0  0  0  0  0  0  0  0  0  0
    4.6734   -5.0397    2.5954 C   0  0  2  0  0  0  0  0  0  0  0  0
    5.8884   -5.9988    2.3567 C   0  0  0  0  0  0  0  0  0  0  0  0
    5.4259   -7.3238    2.1519 O   0  0  0  0  0  0  0  0  0  0  0  0
    4.6065   -7.8103    3.1973 C   0  0  1  0  0  0  0  0  0  0  0  0
    5.3136   -8.2539    4.4480 C   0  0  2  0  0  0  0  0  0  0  0  0
    5.9147   -7.2653    5.3275 O   0  0  0  0  0  0  0  0  0  0  0  0
    4.4736   -7.2883    5.2509 C   0  0  1  0  0  0  0  0  0  0  0  0
    3.8223   -6.7735    4.0038 C   0  0  1  0  0  0  0  0  0  0  0  0
    4.2054   -5.4161    3.8562 O   0  0  0  0  0  0  0  0  0  0  0  0
    5.0540   -3.4199    2.9160 C   0  0  2  0  0  0  0  0  0  0  0  0
    3.7308   -2.8279    2.8364 C   0  0  0  0  0  0  0  0  0  0  0  0
    3.6114   -2.8506    1.3141 C   0  0  2  0  0  0  0  0  0  0  0  0
    4.7551   -3.6199    0.2935 C   0  0  2  0  0  0  0  0  0  0  0  0
    6.0890   -2.9114   -0.1215 C   0  0  2  0  0  0  0  0  0  0  0  0
    6.9743   -2.8878    1.1161 C   0  0  0  0  0  0  0  0  0  0  0  0
    5.9637   -2.2926    2.0829 C   0  0  1  0  0  0  0  0  0  0  0  0
    5.1976   -1.2213    1.0750 C   0  0  1  0  0  0  0  0  0  0  0  0
    5.7301   -1.4700   -0.3485 C   0  0  2  0  0  0  0  0  0  0  0  0
    4.5848   -1.3872   -1.3879 C   0  0  1  0  0  0  0  0  0  0  0  0
    4.9516   -1.9250   -2.7083 N   0  0  0  0  0  0  0  0  0  0  0  0
    4.1977   -1.8154   -3.7951 C   0  0  0  0  0  0  0  0  0  0  0  0
    3.1968   -1.1021   -3.9077 O   0  0  0  0  0  0  0  0  0  0  0  0
    3.4854   -2.2162   -0.7020 C   0  0  1  0  0  0  0  0  0  0  0  0
    3.7957   -3.8410   -0.6920 C   0  0  2  0  0  0  0  0  0  0  0  0
    3.6937   -1.5659    0.7352 C   0  0  1  0  0  0  0  0  0  0  0  0
    2.6455   -0.7168    1.2111 O   0  0  0  0  0  0  0  0  0  0  0  0
    3.0118    0.4778    1.8906 C   0  0  0  0  0  0  0  0  0  0  0  0
   -0.0317   -4.6730   -1.2338 H   0  0  0  0  0  0  0  0  0  0  0  0
    1.4494   -4.6404   -2.1297 H   0  0  0  0  0  0  0  0  0  0  0  0
    1.1574   -3.4591   -0.9139 H   0  0  0  0  0  0  0  0  0  0  0  0
    1.2254   -5.2799    0.9234 H   0  0  0  0  0  0  0  0  0  0  0  0
    1.5289   -6.4581   -0.2824 H   0  0  0  0  0  0  0  0  0  0  0  0
    3.7210   -5.9917   -0.2870 H   0  0  0  0  0  0  0  0  0  0  0  0
    6.4856   -5.7579    1.4821 H   0  0  0  0  0  0  0  0  0  0  0  0
    6.5692   -5.9417    3.2056 H   0  0  0  0  0  0  0  0  0  0  0  0
    3.9839   -8.6010    2.8077 H   0  0  0  0  0  0  0  0  0  0  0  0
    5.3624   -9.3141    4.7193 H   0  0  0  0  0  0  0  0  0  0  0  0
    3.8687   -7.6463    6.0891 H   0  0  0  0  0  0  0  0  0  0  0  0
    2.7538   -6.9178    3.9604 H   0  0  0  0  0  0  0  0  0  0  0  0
    5.4233   -3.4070    3.9441 H   0  0  0  0  0  0  0  0  0  0  0  0
    2.9589   -3.4065    3.3435 H   0  0  0  0  0  0  0  0  0  0  0  0
    3.7222   -1.8463    3.2994 H   0  0  0  0  0  0  0  0  0  0  0  0
    2.5524   -3.1223    1.2149 H   0  0  0  0  0  0  0  0  0  0  0  0
    5.2633   -4.5628    0.4334 H   0  0  0  0  0  0  0  0  0  0  0  0
    6.5870   -3.3737   -0.9780 H   0  0  0  0  0  0  0  0  0  0  0  0
    7.3865   -3.8429    1.4353 H   0  0  0  0  0  0  0  0  0  0  0  0
    7.8046   -2.1965    0.9502 H   0  0  0  0  0  0  0  0  0  0  0  0
    6.4622   -1.6644    2.8300 H   0  0  0  0  0  0  0  0  0  0  0  0
    5.4071   -0.1787    1.3342 H   0  0  0  0  0  0  0  0  0  0  0  0
    6.5812   -0.8348   -0.5798 H   0  0  0  0  0  0  0  0  0  0  0  0
    4.2421   -0.3569   -1.5060 H   0  0  0  0  0  0  0  0  0  0  0  0
    5.7817   -2.5059   -2.7397 H   0  0  0  0  0  0  0  0  0  0  0  0
    4.6122   -2.4434   -4.6185 H   0  0  0  0  0  0  0  0  0  0  0  0
    2.5700   -1.9723   -1.2186 H   0  0  0  0  0  0  0  0  0  0  0  0
    4.2122   -4.1882   -1.6404 H   0  0  0  0  0  0  0  0  0  0  0  0
    2.1277    1.0072    2.2427 H   0  0  0  0  0  0  0  0  0  0  0  0
    3.5641    1.1453    1.2293 H   0  0  0  0  0  0  0  0  0  0  0  0
    3.6328    0.2685    2.7683 H   0  0  0  0  0  0  0  0  0  0  0  0
  1  2  1  0
  1 32  1  0
  1 33  1  0
  1 34  1  0
  2  3  1  0
  2 35  1  0
  2 36  1  0
  3 28  1  0
  3  4  1  0
  3 37  1  6
  5  4  1  6
  5 13  1  0
  5  6  1  0
  5 14  1  0
  6  7  1  0
  6 38  1  0
  6 39  1  0
  7  8  1  0
  8 12  1  0
  8  9  1  0
  8 40  1  6
  9 11  1  0
  9 10  1  0
  9 41  1  1
 10 11  1  0
 11 12  1  0
 11 42  1  1
 12 13  1  0
 12 43  1  1
 14 20  1  0
 14 15  1  0
 14 44  1  1
 15 16  1  0
 15 45  1  0
 15 46  1  0
 16 29  1  0
 16 17  1  0
 16 47  1  1
 17 28  1  0
 17 18  1  0
 17 48  1  1
 18 22  1  0
 18 19  1  0
 18 49  1  6
 19 20  1  0
 19 50  1  0
 19 51  1  0
 20 21  1  0
 20 52  1  1
 21 29  1  0
 21 22  1  0
 21 53  1  1
 22 23  1  0
 22 54  1  6
 23 24  1  0
 23 27  1  0
 23 55  1  6
 24 25  1  0
 24 56  1  0
 25 26  2  0
 25 57  1  0
 27 28  1  0
 27 29  1  0
 27 58  1  6
 28 59  1  6
 29 30  1  1
 30 31  1  0
 31 60  1  0
 31 61  1  0
 31 62  1  0
M  END
>  <i_m_ct_stereo_status>  (62) 
1

>  <s_m_source_file>  (62) 
/var/tmp/pbs.5076255.sched01/tmphrtf3o8j/0_qqz9eae.sdf

>  <i_m_source_file_index>  (62) 
29

>  <i_lp_mmshare_version>  (62) 
48012

>  <i_f3d_flags>  (62) 
0

>  <s_epik_input>  (62) 
W0NIM11bQ0gyXVtDQEhdKE8xKVtDQEhdMltDQEhdKFtDQEBIXTNbTkhdW0NIXT1PKVtDQEBdNChPW0NIM10pW0NASF0oW0NIMl01KVtDQEBIXTJbQ0BIXShbQ0gyXTYpW0NAQEhdM1tDQEBIXTRbQ0BIXTZbQ0BASF01W0NAXTE3W0NIMl1PW0NASF04W0NAQEhdOVtDQEBIXShPOSlbQ0BIXThPNw==

>  <s_epik_cmdline>  (62) 
J2VwaWtfcHl0aG9uJywgJy1waHQnLCAnMi4wJywgJy1waCcsICc3LjAnLCAnLXRuJywgJzgnLCAnLW1hJywgJzIwMCcsICctaW1hZScsICc8aW5maWxlLm1hZT4nLCAnLW9tYWUnLCAnPG91dGZpbGUubWFlPic=

>  <r_lp_tautomer_probability>  (62) 
1

>  <r_epik_Ionization_Penalty>  (62) 
5.6733e-08

>  <r_epik_Ionization_Penalty_Charging>  (62) 
0

>  <r_epik_Ionization_Penalty_Neutral>  (62) 
5.6733e-08

>  <r_epik_State_Penalty>  (62) 
-0

>  <r_epik_Charging_Adjusted_Penalty>  (62) 
0

>  <i_epik_Tot_Q>  (62) 
0

>  <i_epik_Tot_abs_Q>  (62) 
0

>  <s_lp_Force_Field>  (62) 
OPLS3e

>  <r_lp_Energy>  (62) 
305.105

>  <b_lp_Chiralities_Consistent>  (62) 
1

>  <s_lp_Variant>  (62) 
23:0-1

>  <s_i_glide_gridfile>  (62) 
pfpi4k_grid

>  <i_i_glide_lignum>  (62) 
29

>  <i_i_glide_rotatable_bonds>  (62) 
4

>  <r_i_docking_score>  (62) 
-1.6181

>  <r_i_glide_ligand_efficiency>  (62) 
-0.0521968

>  <r_i_glide_ligand_efficiency_sa>  (62) 
-0.16397

>  <r_i_glide_ligand_efficiency_ln>  (62) 
-0.364931

>  <r_i_glide_gscore>  (62) 
-1.6181

>  <r_i_glide_lipo>  (62) 
-0.428196

>  <r_i_glide_hbond>  (62) 
0

>  <r_i_glide_metal>  (62) 
-0

>  <r_i_glide_rewards>  (62) 
-0.640714

>  <r_i_glide_evdw>  (62) 
-18.5788

>  <r_i_glide_ecoul>  (62) 
1.81349

>  <r_i_glide_erotb>  (62) 
0.107727

>  <r_i_glide_esite>  (62) 
0

>  <r_i_glide_emodel>  (62) 
-12.8806

>  <r_i_glide_energy>  (62) 
-16.7653

>  <r_i_glide_einternal>  (62) 
11.4756

>  <r_i_glide_intrahb_reward>  (62) 
-0

>  <i_i_glide_confnum>  (62) 
2

>  <i_i_glide_posenum>  (62) 
3

>  <r_i_glide_eff_state_penalty>  (62) 
0

>  <ligand_id>  (62) 
23

>  <original_smiles>  (62) 
CCC1OC2(COC3C4OC4C3O2)C2CC3C4C5CC2C2C5C(NC=O)C(C14)C32OC

>  <smiles>  (62) 
[H]C(=O)N([H])C1([H])C2([H])C3([H])C([H])([H])C4([H])C5([H])C([H])([H])C6([H])C3([H])C([H])(C([H])(C([H])([H])C([H])([H])[H])OC53OC5([H])C([H])(OC3([H])[H])C3([H])OC35[H])C1([H])C6(OC([H])([H])[H])C42[H]

$$$$
24:0:0
     RDKit          3D

 43 46  0  0  1  0  0  0  0  0999 V2000
    3.8071   -1.7184   -4.1847 C   0  0  0  0  0  0  0  0  0  0  0  0
    3.7585   -3.0366   -3.4044 C   0  0  0  0  0  0  0  0  0  0  0  0
    3.1374   -2.7083   -2.0485 C   0  0  1  0  0  0  0  0  0  0  0  0
    3.2524   -3.8509   -1.1063 N   0  0  0  0  0  0  0  0  0  0  0  0
    4.1740   -3.6595    0.0383 C   0  0  0  0  0  0  0  0  0  0  0  0
    4.2787   -4.8968    0.9514 C   0  0  2  0  0  0  0  0  0  0  0  0
    2.9137   -5.6275    1.0588 C   0  0  0  0  0  0  0  0  0  0  0  0
    3.0491   -6.8585    1.9744 C   0  0  1  0  0  0  0  0  0  0  0  0
    4.1150   -7.8085    1.3893 C   0  0  0  0  0  0  0  0  0  0  0  0
    5.4785   -7.0925    1.3305 C   0  0  2  0  0  0  0  0  0  0  0  0
    5.8969   -6.6349    2.7416 C   0  0  0  0  0  0  0  0  0  0  0  0
    4.8339   -5.6752    3.3042 C   0  0  2  0  0  0  0  0  0  0  0  0
    3.4672   -6.3903    3.3803 C   0  0  0  0  0  0  0  0  0  0  0  0
    4.7193   -4.4485    2.3733 C   0  0  0  0  0  0  0  0  0  0  0  0
    5.3529   -5.8648    0.4076 C   0  0  0  0  0  0  0  0  0  0  0  0
    3.7779   -1.3840   -1.5701 C   0  0  0  0  0  0  0  0  0  0  0  0
    4.1120   -0.3760   -3.0297 S   0  0  0  0  0  0  0  0  0  0  0  0
    2.8513   -1.5142   -4.6674 H   0  0  0  0  0  0  0  0  0  0  0  0
    4.6017   -1.7213   -4.9268 H   0  0  0  0  0  0  0  0  0  0  0  0
    3.1858   -3.7985   -3.9363 H   0  0  0  0  0  0  0  0  0  0  0  0
    4.7625   -3.4325   -3.2550 H   0  0  0  0  0  0  0  0  0  0  0  0
    2.0690   -2.5476   -2.2253 H   0  0  0  0  0  0  0  0  0  0  0  0
    2.3292   -3.9979   -0.7292 H   0  0  0  0  0  0  0  0  0  0  0  0
    5.1686   -3.3668   -0.3215 H   0  0  0  0  0  0  0  0  0  0  0  0
    3.8008   -2.8278    0.6455 H   0  0  0  0  0  0  0  0  0  0  0  0
    2.1544   -4.9425    1.4315 H   0  0  0  0  0  0  0  0  0  0  0  0
    2.5582   -5.9766    0.0904 H   0  0  0  0  0  0  0  0  0  0  0  0
    2.0886   -7.3704    2.0224 H   0  0  0  0  0  0  0  0  0  0  0  0
    4.1879   -8.7190    1.9837 H   0  0  0  0  0  0  0  0  0  0  0  0
    3.8268   -8.1237    0.3880 H   0  0  0  0  0  0  0  0  0  0  0  0
    6.2326   -7.7717    0.9320 H   0  0  0  0  0  0  0  0  0  0  0  0
    6.0094   -7.4982    3.4016 H   0  0  0  0  0  0  0  0  0  0  0  0
    6.8689   -6.1432    2.7054 H   0  0  0  0  0  0  0  0  0  0  0  0
    5.1291   -5.3507    4.3032 H   0  0  0  0  0  0  0  0  0  0  0  0
    2.7136   -5.7147    3.7870 H   0  0  0  0  0  0  0  0  0  0  0  0
    3.5214   -7.2420    4.0576 H   0  0  0  0  0  0  0  0  0  0  0  0
    5.6754   -3.9335    2.3172 H   0  0  0  0  0  0  0  0  0  0  0  0
    4.0228   -3.7272    2.7959 H   0  0  0  0  0  0  0  0  0  0  0  0
    5.1049   -6.1763   -0.6069 H   0  0  0  0  0  0  0  0  0  0  0  0
    6.3195   -5.3685    0.3429 H   0  0  0  0  0  0  0  0  0  0  0  0
    3.1249   -0.8517   -0.8727 H   0  0  0  0  0  0  0  0  0  0  0  0
    4.7429   -1.5374   -1.1019 H   0  0  0  0  0  0  0  0  0  0  0  0
    3.4765   -4.6854   -1.6357 H   0  0  0  0  0  0  0  0  0  0  0  0
  1 17  1  0
  1  2  1  0
  1 18  1  0
  1 19  1  0
  2  3  1  0
  2 20  1  0
  2 21  1  0
  3  4  1  0
  3 16  1  0
  3 22  1  6
  4  5  1  0
  4 23  1  0
  4 43  1  0
  6  5  1  6
  5 24  1  0
  5 25  1  0
  6 14  1  0
  6 15  1  0
  6  7  1  0
  7  8  1  0
  7 26  1  0
  7 27  1  0
  8 13  1  0
  8  9  1  0
  8 28  1  1
  9 10  1  0
  9 29  1  0
  9 30  1  0
 10 11  1  0
 10 15  1  0
 10 31  1  6
 11 12  1  0
 11 32  1  0
 11 33  1  0
 12 13  1  0
 12 14  1  0
 12 34  1  1
 13 35  1  0
 13 36  1  0
 14 37  1  0
 14 38  1  0
 15 39  1  0
 15 40  1  0
 16 17  1  0
 16 41  1  0
 16 42  1  0
M  CHG  1   4   1
M  END
>  <i_m_ct_stereo_status>  (63) 
1

>  <s_m_source_file>  (63) 
/var/tmp/pbs.5076255.sched01/tmphrtf3o8j/0_qqz9eae.sdf

>  <i_m_source_file_index>  (63) 
30

>  <i_lp_mmshare_version>  (63) 
48012

>  <i_f3d_flags>  (63) 
0

>  <s_epik_input>  (63) 
W0NIMl0xU1tDSDJdW0NIMl1bQ0BIXTFbTkhdW0NIMl1DMjNbQ0gyXVtDQEBIXTRbQ0gyXVtDQEhdKFtDSDJdMylbQ0gyXVtDQEBIXShbQ0gyXTQpW0NIMl0y

>  <s_epik_cmdline>  (63) 
J2VwaWtfcHl0aG9uJywgJy1waHQnLCAnMi4wJywgJy1waCcsICc3LjAnLCAnLXRuJywgJzgnLCAnLW1hJywgJzIwMCcsICctaW1hZScsICc8aW5maWxlLm1hZT4nLCAnLW9tYWUnLCAnPG91dGZpbGUubWFlPic=

>  <r_epik_Ionization_Penalty>  (63) 
0.000948919

>  <r_epik_Ionization_Penalty_Charging>  (63) 
0.000948919

>  <r_epik_Ionization_Penalty_Neutral>  (63) 
0

>  <r_epik_State_Penalty>  (63) 
0.000616389

>  <r_epik_Charging_Adjusted_Penalty>  (63) 
0.00156531

>  <i_epik_Tot_Q>  (63) 
1

>  <i_epik_Tot_abs_Q>  (63) 
1

>  <s_lp_Force_Field>  (63) 
OPLS3e

>  <r_lp_Energy>  (63) 
12.2516

>  <b_lp_Chiralities_Consistent>  (63) 
1

>  <s_lp_Variant>  (63) 
24:0-1

>  <s_i_glide_gridfile>  (63) 
pfpi4k_grid

>  <i_i_glide_lignum>  (63) 
30

>  <i_i_glide_rotatable_bonds>  (63) 
3

>  <r_i_docking_score>  (63) 
-3.35078

>  <r_i_glide_ligand_efficiency>  (63) 
-0.197105

>  <r_i_glide_ligand_efficiency_sa>  (63) 
-0.506812

>  <r_i_glide_ligand_efficiency_ln>  (63) 
-0.874144

>  <r_i_glide_gscore>  (63) 
-3.35078

>  <r_i_glide_lipo>  (63) 
-0.722467

>  <r_i_glide_hbond>  (63) 
0

>  <r_i_glide_metal>  (63) 
-0

>  <r_i_glide_rewards>  (63) 
-1.68791

>  <r_i_glide_evdw>  (63) 
-20.4146

>  <r_i_glide_ecoul>  (63) 
-4.93708

>  <r_i_glide_erotb>  (63) 
0.826124

>  <r_i_glide_esite>  (63) 
-0.00523575

>  <r_i_glide_emodel>  (63) 
-24.5085

>  <r_i_glide_energy>  (63) 
-25.3517

>  <r_i_glide_einternal>  (63) 
12.2208

>  <r_i_glide_intrahb_reward>  (63) 
-0

>  <i_i_glide_confnum>  (63) 
1

>  <i_i_glide_posenum>  (63) 
4

>  <r_i_glide_eff_state_penalty>  (63) 
0

>  <ligand_id>  (63) 
24

>  <original_smiles>  (63) 
C1CC(NCC23CC4CC(CC(C4)C2)C3)CS1

>  <smiles>  (63) 
[H]C1([H])SC([H])([H])C([H])([N+]([H])([H])C([H])([H])C23C([H])([H])C4([H])C([H])([H])C([H])(C([H])([H])C([H])(C4([H])[H])C2([H])[H])C3([H])[H])C1([H])[H]

$$$$
24:0:1
     RDKit          3D

 43 46  0  0  1  0  0  0  0  0999 V2000
    3.4837   -9.8334    2.5078 C   0  0  0  0  0  0  0  0  0  0  0  0
    3.1049   -8.3961    2.1375 C   0  0  0  0  0  0  0  0  0  0  0  0
    4.2437   -7.8516    1.2668 C   0  0  1  0  0  0  0  0  0  0  0  0
    4.1353   -6.3898    1.0773 N   0  0  0  0  0  0  0  0  0  0  0  0
    5.0934   -5.8088    0.1098 C   0  0  0  0  0  0  0  0  0  0  0  0
    5.0462   -4.2667    0.0835 C   0  0  2  0  0  0  0  0  0  0  0  0
    6.0618   -3.7360   -0.9606 C   0  0  0  0  0  0  0  0  0  0  0  0
    6.0470   -2.1956   -1.0071 C   0  0  1  0  0  0  0  0  0  0  0  0
    4.6365   -1.7128   -1.3972 C   0  0  0  0  0  0  0  0  0  0  0  0
    3.6301   -2.2132   -0.3431 C   0  0  2  0  0  0  0  0  0  0  0  0
    4.0058   -1.6670    1.0492 C   0  0  0  0  0  0  0  0  0  0  0  0
    5.4211   -2.1449    1.4277 C   0  0  2  0  0  0  0  0  0  0  0  0
    6.4341   -1.6387    0.3812 C   0  0  0  0  0  0  0  0  0  0  0  0
    5.4400   -3.6865    1.4688 C   0  0  0  0  0  0  0  0  0  0  0  0
    3.6381   -3.7527   -0.3133 C   0  0  0  0  0  0  0  0  0  0  0  0
    5.5478   -8.2591    1.9682 C   0  0  0  0  0  0  0  0  0  0  0  0
    5.2845   -9.8803    2.7222 S   0  0  0  0  0  0  0  0  0  0  0  0
    3.2125  -10.5107    1.6961 H   0  0  0  0  0  0  0  0  0  0  0  0
    2.9767  -10.1780    3.4109 H   0  0  0  0  0  0  0  0  0  0  0  0
    2.1374   -8.3615    1.6327 H   0  0  0  0  0  0  0  0  0  0  0  0
    3.0139   -7.8093    3.0543 H   0  0  0  0  0  0  0  0  0  0  0  0
    4.1996   -8.3485    0.2969 H   0  0  0  0  0  0  0  0  0  0  0  0
    3.2051   -6.1690    0.7551 H   0  0  0  0  0  0  0  0  0  0  0  0
    6.1066   -6.1146    0.3746 H   0  0  0  0  0  0  0  0  0  0  0  0
    4.8841   -6.2193   -0.8797 H   0  0  0  0  0  0  0  0  0  0  0  0
    7.0660   -4.0833   -0.7161 H   0  0  0  0  0  0  0  0  0  0  0  0
    5.8344   -4.1389   -1.9499 H   0  0  0  0  0  0  0  0  0  0  0  0
    6.7620   -1.8559   -1.7549 H   0  0  0  0  0  0  0  0  0  0  0  0
    4.6022   -0.6247   -1.4724 H   0  0  0  0  0  0  0  0  0  0  0  0
    4.3715   -2.0971   -2.3828 H   0  0  0  0  0  0  0  0  0  0  0  0
    2.6329   -1.8711   -0.6100 H   0  0  0  0  0  0  0  0  0  0  0  0
    3.9592   -0.5756    1.0560 H   0  0  0  0  0  0  0  0  0  0  0  0
    3.2847   -2.0120    1.7875 H   0  0  0  0  0  0  0  0  0  0  0  0
    5.6908   -1.7521    2.4082 H   0  0  0  0  0  0  0  0  0  0  0  0
    7.4427   -1.9596    0.6465 H   0  0  0  0  0  0  0  0  0  0  0  0
    6.4522   -0.5477    0.3727 H   0  0  0  0  0  0  0  0  0  0  0  0
    4.7458   -4.0258    2.2356 H   0  0  0  0  0  0  0  0  0  0  0  0
    6.4251   -4.0446    1.7716 H   0  0  0  0  0  0  0  0  0  0  0  0
    3.3514   -4.1469   -1.2877 H   0  0  0  0  0  0  0  0  0  0  0  0
    2.8785   -4.0929    0.3888 H   0  0  0  0  0  0  0  0  0  0  0  0
    6.3966   -8.2952    1.2857 H   0  0  0  0  0  0  0  0  0  0  0  0
    5.7931   -7.5606    2.7700 H   0  0  0  0  0  0  0  0  0  0  0  0
    4.2738   -5.9447    1.9733 H   0  0  0  0  0  0  0  0  0  0  0  0
  1 17  1  0
  1  2  1  0
  1 18  1  0
  1 19  1  0
  2  3  1  0
  2 20  1  0
  2 21  1  0
  3  4  1  0
  3 16  1  0
  3 22  1  6
  4  5  1  0
  4 23  1  0
  4 43  1  0
  6  5  1  1
  5 24  1  0
  5 25  1  0
  6 14  1  0
  6 15  1  0
  6  7  1  0
  7  8  1  0
  7 26  1  0
  7 27  1  0
  8 13  1  0
  8  9  1  0
  8 28  1  6
  9 10  1  0
  9 29  1  0
  9 30  1  0
 10 11  1  0
 10 15  1  0
 10 31  1  6
 11 12  1  0
 11 32  1  0
 11 33  1  0
 12 13  1  0
 12 14  1  0
 12 34  1  1
 13 35  1  0
 13 36  1  0
 14 37  1  0
 14 38  1  0
 15 39  1  0
 15 40  1  0
 16 17  1  0
 16 41  1  0
 16 42  1  0
M  CHG  1   4   1
M  END
>  <i_m_ct_stereo_status>  (64) 
1

>  <s_m_source_file>  (64) 
/var/tmp/pbs.5076255.sched01/tmphrtf3o8j/0_qqz9eae.sdf

>  <i_m_source_file_index>  (64) 
30

>  <i_lp_mmshare_version>  (64) 
48012

>  <i_f3d_flags>  (64) 
0

>  <s_epik_input>  (64) 
W0NIMl0xU1tDSDJdW0NIMl1bQ0BIXTFbTkhdW0NIMl1DMjNbQ0gyXVtDQEBIXTRbQ0gyXVtDQEhdKFtDSDJdMylbQ0gyXVtDQEBIXShbQ0gyXTQpW0NIMl0y

>  <s_epik_cmdline>  (64) 
J2VwaWtfcHl0aG9uJywgJy1waHQnLCAnMi4wJywgJy1waCcsICc3LjAnLCAnLXRuJywgJzgnLCAnLW1hJywgJzIwMCcsICctaW1hZScsICc8aW5maWxlLm1hZT4nLCAnLW9tYWUnLCAnPG91dGZpbGUubWFlPic=

>  <r_epik_Ionization_Penalty>  (64) 
0.000948919

>  <r_epik_Ionization_Penalty_Charging>  (64) 
0.000948919

>  <r_epik_Ionization_Penalty_Neutral>  (64) 
0

>  <r_epik_State_Penalty>  (64) 
0.000616389

>  <r_epik_Charging_Adjusted_Penalty>  (64) 
0.00156531

>  <i_epik_Tot_Q>  (64) 
1

>  <i_epik_Tot_abs_Q>  (64) 
1

>  <s_lp_Force_Field>  (64) 
OPLS3e

>  <r_lp_Energy>  (64) 
12.2516

>  <b_lp_Chiralities_Consistent>  (64) 
1

>  <s_lp_Variant>  (64) 
24:0-1

>  <s_i_glide_gridfile>  (64) 
pfpi4k_grid

>  <i_i_glide_lignum>  (64) 
30

>  <i_i_glide_rotatable_bonds>  (64) 
3

>  <r_i_docking_score>  (64) 
-2.61775

>  <r_i_glide_ligand_efficiency>  (64) 
-0.153985

>  <r_i_glide_ligand_efficiency_sa>  (64) 
-0.39594

>  <r_i_glide_ligand_efficiency_ln>  (64) 
-0.682913

>  <r_i_glide_gscore>  (64) 
-2.61775

>  <r_i_glide_lipo>  (64) 
-0.444518

>  <r_i_glide_hbond>  (64) 
0

>  <r_i_glide_metal>  (64) 
-0

>  <r_i_glide_rewards>  (64) 
-1.68791

>  <r_i_glide_evdw>  (64) 
-20.5561

>  <r_i_glide_ecoul>  (64) 
-1.89094

>  <r_i_glide_erotb>  (64) 
0.826124

>  <r_i_glide_esite>  (64) 
0

>  <r_i_glide_emodel>  (64) 
-26.7564

>  <r_i_glide_energy>  (64) 
-22.447

>  <r_i_glide_einternal>  (64) 
0.256363

>  <r_i_glide_intrahb_reward>  (64) 
-0

>  <i_i_glide_confnum>  (64) 
6

>  <i_i_glide_posenum>  (64) 
1

>  <r_i_glide_eff_state_penalty>  (64) 
0

>  <ligand_id>  (64) 
24

>  <original_smiles>  (64) 
C1CC(NCC23CC4CC(CC(C4)C2)C3)CS1

>  <smiles>  (64) 
[H]C1([H])SC([H])([H])C([H])([N+]([H])([H])C([H])([H])C23C([H])([H])C4([H])C([H])([H])C([H])(C([H])([H])C([H])(C4([H])[H])C2([H])[H])C3([H])[H])C1([H])[H]

$$$$
24:0:2
     RDKit          3D

 43 46  0  0  1  0  0  0  0  0999 V2000
    2.6201   -0.2575   -4.9935 C   0  0  0  0  0  0  0  0  0  0  0  0
    2.7879   -1.5751   -4.2420 C   0  0  0  0  0  0  0  0  0  0  0  0
    3.1184   -1.2263   -2.8008 C   0  0  1  0  0  0  0  0  0  0  0  0
    3.5614   -2.3953   -2.0183 N   0  0  0  0  0  0  0  0  0  0  0  0
    3.8834   -2.1050   -0.6029 C   0  0  0  0  0  0  0  0  0  0  0  0
    4.1845   -3.3854    0.1993 C   0  0  2  0  0  0  0  0  0  0  0  0
    2.9625   -4.3412    0.1359 C   0  0  0  0  0  0  0  0  0  0  0  0
    3.2467   -5.6196    0.9443 C   0  0  1  0  0  0  0  0  0  0  0  0
    4.4868   -6.3331    0.3674 C   0  0  0  0  0  0  0  0  0  0  0  0
    5.7055   -5.3989    0.4811 C   0  0  2  0  0  0  0  0  0  0  0  0
    5.9531   -5.0316    1.9552 C   0  0  0  0  0  0  0  0  0  0  0  0
    4.7076   -4.3155    2.5138 C   0  0  2  0  0  0  0  0  0  0  0  0
    3.4896   -5.2548    2.4214 C   0  0  0  0  0  0  0  0  0  0  0  0
    4.4444   -3.0300    1.6912 C   0  0  0  0  0  0  0  0  0  0  0  0
    5.4456   -4.1161   -0.3403 C   0  0  0  0  0  0  0  0  0  0  0  0
    4.2086   -0.1802   -2.9229 C   0  0  0  0  0  0  0  0  0  0  0  0
    3.8183    0.8621   -4.3603 S   0  0  0  0  0  0  0  0  0  0  0  0
    1.6291    0.1910   -4.8454 H   0  0  0  0  0  0  0  0  0  0  0  0
    2.8120   -0.2557   -6.0624 H   0  0  0  0  0  0  0  0  0  0  0  0
    1.8828   -2.1735   -4.3073 H   0  0  0  0  0  0  0  0  0  0  0  0
    3.5990   -2.1528   -4.6873 H   0  0  0  0  0  0  0  0  0  0  0  0
    2.2228   -0.7830   -2.3297 H   0  0  0  0  0  0  0  0  0  0  0  0
    2.8163   -3.0813   -2.0348 H   0  0  0  0  0  0  0  0  0  0  0  0
    4.7308   -1.4234   -0.5405 H   0  0  0  0  0  0  0  0  0  0  0  0
    3.0395   -1.5859   -0.1514 H   0  0  0  0  0  0  0  0  0  0  0  0
    2.0820   -3.8235    0.5251 H   0  0  0  0  0  0  0  0  0  0  0  0
    2.7210   -4.6136   -0.8948 H   0  0  0  0  0  0  0  0  0  0  0  0
    2.3879   -6.2853    0.8721 H   0  0  0  0  0  0  0  0  0  0  0  0
    4.6693   -7.2798    0.8808 H   0  0  0  0  0  0  0  0  0  0  0  0
    4.3108   -6.5842   -0.6777 H   0  0  0  0  0  0  0  0  0  0  0  0
    6.5841   -5.9045    0.0838 H   0  0  0  0  0  0  0  0  0  0  0  0
    6.1768   -5.9237    2.5417 H   0  0  0  0  0  0  0  0  0  0  0  0
    6.8255   -4.3818    2.0335 H   0  0  0  0  0  0  0  0  0  0  0  0
    4.8826   -4.0587    3.5584 H   0  0  0  0  0  0  0  0  0  0  0  0
    2.6076   -4.7664    2.8308 H   0  0  0  0  0  0  0  0  0  0  0  0
    3.6460   -6.1552    3.0203 H   0  0  0  0  0  0  0  0  0  0  0  0
    5.3032   -2.3616    1.7743 H   0  0  0  0  0  0  0  0  0  0  0  0
    3.6009   -2.4817    2.1191 H   0  0  0  0  0  0  0  0  0  0  0  0
    5.3233   -4.3867   -1.3887 H   0  0  0  0  0  0  0  0  0  0  0  0
    6.3214   -3.4659   -0.2917 H   0  0  0  0  0  0  0  0  0  0  0  0
    4.2404    0.4379   -2.0400 H   0  0  0  0  0  0  0  0  0  0  0  0
    5.1778   -0.6534   -3.0418 H   0  0  0  0  0  0  0  0  0  0  0  0
    4.3782   -2.8008   -2.4581 H   0  0  0  0  0  0  0  0  0  0  0  0
  1 17  1  0
  1  2  1  0
  1 18  1  0
  1 19  1  0
  2  3  1  0
  2 20  1  0
  2 21  1  0
  3  4  1  0
  3 16  1  0
  3 22  1  1
  4  5  1  0
  4 23  1  0
  4 43  1  0
  6  5  1  6
  5 24  1  0
  5 25  1  0
  6 14  1  0
  6 15  1  0
  6  7  1  0
  7  8  1  0
  7 26  1  0
  7 27  1  0
  8 13  1  0
  8  9  1  0
  8 28  1  1
  9 10  1  0
  9 29  1  0
  9 30  1  0
 10 11  1  0
 10 15  1  0
 10 31  1  6
 11 12  1  0
 11 32  1  0
 11 33  1  0
 12 13  1  0
 12 14  1  0
 12 34  1  1
 13 35  1  0
 13 36  1  0
 14 37  1  0
 14 38  1  0
 15 39  1  0
 15 40  1  0
 16 17  1  0
 16 41  1  0
 16 42  1  0
M  CHG  1   4   1
M  END
>  <i_m_ct_stereo_status>  (65) 
1

>  <s_m_source_file>  (65) 
/var/tmp/pbs.5076255.sched01/tmphrtf3o8j/0_qqz9eae.sdf

>  <i_m_source_file_index>  (65) 
30

>  <i_lp_mmshare_version>  (65) 
48012

>  <i_f3d_flags>  (65) 
0

>  <s_epik_input>  (65) 
W0NIMl0xU1tDSDJdW0NIMl1bQ0BIXTFbTkhdW0NIMl1DMjNbQ0gyXVtDQEBIXTRbQ0gyXVtDQEhdKFtDSDJdMylbQ0gyXVtDQEBIXShbQ0gyXTQpW0NIMl0y

>  <s_epik_cmdline>  (65) 
J2VwaWtfcHl0aG9uJywgJy1waHQnLCAnMi4wJywgJy1waCcsICc3LjAnLCAnLXRuJywgJzgnLCAnLW1hJywgJzIwMCcsICctaW1hZScsICc8aW5maWxlLm1hZT4nLCAnLW9tYWUnLCAnPG91dGZpbGUubWFlPic=

>  <r_epik_Ionization_Penalty>  (65) 
0.000948919

>  <r_epik_Ionization_Penalty_Charging>  (65) 
0.000948919

>  <r_epik_Ionization_Penalty_Neutral>  (65) 
0

>  <r_epik_State_Penalty>  (65) 
0.000616389

>  <r_epik_Charging_Adjusted_Penalty>  (65) 
0.00156531

>  <i_epik_Tot_Q>  (65) 
1

>  <i_epik_Tot_abs_Q>  (65) 
1

>  <s_lp_Force_Field>  (65) 
OPLS3e

>  <r_lp_Energy>  (65) 
12.2516

>  <b_lp_Chiralities_Consistent>  (65) 
1

>  <s_lp_Variant>  (65) 
24:0-1

>  <s_i_glide_gridfile>  (65) 
pfpi4k_grid

>  <i_i_glide_lignum>  (65) 
30

>  <i_i_glide_rotatable_bonds>  (65) 
3

>  <r_i_docking_score>  (65) 
-2.55831

>  <r_i_glide_ligand_efficiency>  (65) 
-0.150489

>  <r_i_glide_ligand_efficiency_sa>  (65) 
-0.386949

>  <r_i_glide_ligand_efficiency_ln>  (65) 
-0.667407

>  <r_i_glide_gscore>  (65) 
-2.55831

>  <r_i_glide_lipo>  (65) 
-0.656406

>  <r_i_glide_hbond>  (65) 
0

>  <r_i_glide_metal>  (65) 
-0

>  <r_i_glide_rewards>  (65) 
-1.68791

>  <r_i_glide_evdw>  (65) 
-9.96332

>  <r_i_glide_ecoul>  (65) 
-3.40812

>  <r_i_glide_erotb>  (65) 
0.826124

>  <r_i_glide_esite>  (65) 
-0.0307343

>  <r_i_glide_emodel>  (65) 
-17.3897

>  <r_i_glide_energy>  (65) 
-13.3714

>  <r_i_glide_einternal>  (65) 
0.257264

>  <r_i_glide_intrahb_reward>  (65) 
-0

>  <i_i_glide_confnum>  (65) 
1

>  <i_i_glide_posenum>  (65) 
7

>  <r_i_glide_eff_state_penalty>  (65) 
0

>  <ligand_id>  (65) 
24

>  <original_smiles>  (65) 
C1CC(NCC23CC4CC(CC(C4)C2)C3)CS1

>  <smiles>  (65) 
[H]C1([H])SC([H])([H])C([H])([N+]([H])([H])C([H])([H])C23C([H])([H])C4([H])C([H])([H])C([H])(C([H])([H])C([H])(C4([H])[H])C2([H])[H])C3([H])[H])C1([H])[H]

$$$$
25:0:0
     RDKit          3D

 52 57  0  0  1  0  0  0  0  0999 V2000
    8.3123   -5.8550    2.7048 C   0  0  0  0  0  0  0  0  0  0  0  0
    6.9078   -6.4690    2.7189 C   0  0  1  0  0  0  0  0  0  0  0  0
    5.8214   -5.5925    3.6052 C   0  0  0  0  0  0  0  0  0  0  0  0
    4.3158   -6.1501    4.0141 C   0  0  0  0  0  0  0  0  0  0  0  0
    3.6067   -7.3873    3.2251 C   0  0  1  0  0  0  0  0  0  0  0  0
    4.5965   -7.4561    2.2641 C   0  0  1  0  0  0  0  0  0  0  0  0
    5.1270   -6.6637    1.0364 C   0  0  1  0  0  0  0  0  0  0  0  0
    4.8296   -5.2352    0.9109 N   0  0  0  0  0  0  0  0  0  0  0  0
    3.5859   -4.6637    1.0755 C   0  0  0  0  0  0  0  0  0  0  0  0
    3.5229   -3.3768    0.8650 N   0  0  0  0  0  0  0  0  0  0  0  0
    4.8070   -3.0423    0.4566 C   0  0  0  0  0  0  0  0  0  0  0  0
    5.4298   -1.8328    0.0459 C   0  0  0  0  0  0  0  0  0  0  0  0
    4.7778   -0.6615    0.0114 N   0  0  0  0  0  0  0  0  0  0  0  0
    6.7307   -1.8576   -0.3260 N   0  0  0  0  0  0  0  0  0  0  0  0
    7.3969   -3.0197   -0.2908 C   0  0  0  0  0  0  0  0  0  0  0  0
    6.9493   -4.2266    0.0772 N   0  0  0  0  0  0  0  0  0  0  0  0
    5.6381   -4.1954    0.4522 C   0  0  0  0  0  0  0  0  0  0  0  0
    6.5312   -7.1522    1.2979 C   0  0  2  0  0  0  0  0  0  0  0  0
    6.3624   -8.8317    1.3956 C   0  0  0  0  0  0  0  0  0  0  0  0
    5.4748   -9.3906    2.7236 C   0  0  1  0  0  0  0  0  0  0  0  0
    6.1906  -10.6160    3.3505 C   0  0  0  0  0  0  0  0  0  0  0  0
    6.1885  -10.7600    4.5927 O   0  0  0  0  0  0  0  0  0  0  0  0
    6.7593  -11.3983    2.5522 O   0  0  0  0  0  0  0  0  0  0  0  0
    5.7015   -8.1633    3.3463 C   0  0  1  0  0  0  0  0  0  0  0  0
    7.0108   -7.6333    3.4475 O   0  0  0  0  0  0  0  0  0  0  0  0
    3.8949   -9.0499    3.3096 C   0  0  0  0  0  0  0  0  0  0  0  0
    3.5406   -9.5136    4.7664 C   0  0  0  0  0  0  0  0  0  0  0  0
    2.8736   -9.8843    2.4770 C   0  0  0  0  0  0  0  0  0  0  0  0
    5.2293    0.1913   -0.2955 H   0  0  0  0  0  0  0  0  0  0  0  0
    8.3393   -4.9081    2.1702 H   0  0  0  0  0  0  0  0  0  0  0  0
    9.0163   -6.5333    2.2181 H   0  0  0  0  0  0  0  0  0  0  0  0
    8.6701   -5.6762    3.7193 H   0  0  0  0  0  0  0  0  0  0  0  0
    6.3119   -5.3663    4.5509 H   0  0  0  0  0  0  0  0  0  0  0  0
    5.7151   -4.6023    3.1659 H   0  0  0  0  0  0  0  0  0  0  0  0
    4.3032   -6.3680    5.0823 H   0  0  0  0  0  0  0  0  0  0  0  0
    3.6464   -5.2951    3.9251 H   0  0  0  0  0  0  0  0  0  0  0  0
    2.6137   -7.1427    2.8517 H   0  0  0  0  0  0  0  0  0  0  0  0
    4.0761   -8.0381    1.4907 H   0  0  0  0  0  0  0  0  0  0  0  0
    4.8426   -7.0799    0.0611 H   0  0  0  0  0  0  0  0  0  0  0  0
    2.7214   -5.2452    1.3702 H   0  0  0  0  0  0  0  0  0  0  0  0
    3.8000   -0.6678    0.2617 H   0  0  0  0  0  0  0  0  0  0  0  0
    8.4329   -2.9916   -0.6035 H   0  0  0  0  0  0  0  0  0  0  0  0
    7.2301   -6.8643    0.5106 H   0  0  0  0  0  0  0  0  0  0  0  0
    5.9338   -9.2403    0.4831 H   0  0  0  0  0  0  0  0  0  0  0  0
    7.3742   -9.2285    1.4480 H   0  0  0  0  0  0  0  0  0  0  0  0
    5.5521   -8.1690    4.4311 H   0  0  0  0  0  0  0  0  0  0  0  0
    3.7013  -10.5836    4.9003 H   0  0  0  0  0  0  0  0  0  0  0  0
    2.4878   -9.3386    4.9905 H   0  0  0  0  0  0  0  0  0  0  0  0
    4.0978   -9.0153    5.5604 H   0  0  0  0  0  0  0  0  0  0  0  0
    2.9332  -10.9424    2.7380 H   0  0  0  0  0  0  0  0  0  0  0  0
    3.0396   -9.8476    1.3997 H   0  0  0  0  0  0  0  0  0  0  0  0
    1.8489   -9.5594    2.6640 H   0  0  0  0  0  0  0  0  0  0  0  0
  2  1  1  6
  1 30  1  0
  1 31  1  0
  1 32  1  0
  2 18  1  0
  2 25  1  0
  2  3  1  0
  3  4  1  0
  3 33  1  0
  3 34  1  0
  4  5  1  0
  4 35  1  0
  4 36  1  0
  5 26  1  0
  5  6  1  0
  5 37  1  6
  6 24  1  0
  6  7  1  0
  6 38  1  6
  7 18  1  0
  7 39  1  6
  7  8  1  0
  8  9  1  0
  8 17  1  0
  9 10  2  0
  9 40  1  0
 10 11  1  0
 11 12  1  0
 11 17  2  0
 12 14  2  0
 12 13  1  0
 13 41  1  0
 13 29  1  0
 14 15  1  0
 15 42  1  0
 15 16  2  0
 16 17  1  0
 18 19  1  0
 18 43  1  6
 19 20  1  0
 19 44  1  0
 19 45  1  0
 20 21  1  1
 20 24  1  0
 20 26  1  0
 21 22  2  0
 21 23  1  0
 24 25  1  0
 24 46  1  1
 26 27  1  0
 26 28  1  0
 27 47  1  0
 27 48  1  0
 27 49  1  0
 28 50  1  0
 28 51  1  0
 28 52  1  0
M  CHG  1  23  -1
M  END
>  <i_m_ct_stereo_status>  (66) 
1

>  <s_m_source_file>  (66) 
/var/tmp/pbs.5076255.sched01/tmphrtf3o8j/0_qqz9eae.sdf

>  <i_m_source_file_index>  (66) 
31

>  <i_lp_mmshare_version>  (66) 
48012

>  <i_f3d_flags>  (66) 
2

>  <s_epik_input>  (66) 
Tz1DKFtPSF0pW0NAQF0oW0NIMl0xKShbQ0hdMk8zKUMoW0NIM10pKFtDSDNdKVtDQEBIXShbQ0gyXVtDSDJdNClbQ0BIXTJbQ0BIXShbQ0BIXTFbQ0BdMzRbQ0gzXSluKFtjSF1uNSljKGM1NiluW2NIXVtuSF1jXDY9Ti9bSF0=

>  <s_epik_cmdline>  (66) 
J2VwaWtfcHl0aG9uJywgJy1waHQnLCAnMi4wJywgJy1waCcsICc3LjAnLCAnLXRuJywgJzgnLCAnLW1hJywgJzIwMCcsICctaW1hZScsICc8aW5maWxlLm1hZT4nLCAnLW9tYWUnLCAnPG91dGZpbGUubWFlPic=

>  <r_lp_tautomer_probability>  (66) 
1

>  <r_epik_Ionization_Penalty>  (66) 
0.00414123

>  <r_epik_Ionization_Penalty_Charging>  (66) 
0.00239703

>  <r_epik_Ionization_Penalty_Neutral>  (66) 
0.0017442

>  <r_epik_State_Penalty>  (66) 
-0

>  <r_epik_Charging_Adjusted_Penalty>  (66) 
0.00239703

>  <i_epik_Tot_Q>  (66) 
-1

>  <i_epik_Tot_abs_Q>  (66) 
1

>  <s_lp_Force_Field>  (66) 
OPLS3e

>  <r_lp_Energy>  (66) 
335.172

>  <b_lp_Chiralities_Consistent>  (66) 
0

>  <s_lp_Variant>  (66) 
25:0-1

>  <s_i_glide_gridfile>  (66) 
pfpi4k_grid

>  <i_i_glide_lignum>  (66) 
31

>  <i_i_glide_rotatable_bonds>  (66) 
2

>  <r_i_docking_score>  (66) 
-3.50714

>  <r_i_glide_ligand_efficiency>  (66) 
-0.125255

>  <r_i_glide_ligand_efficiency_sa>  (66) 
-0.380348

>  <r_i_glide_ligand_efficiency_ln>  (66) 
-0.809552

>  <r_i_glide_gscore>  (66) 
-3.50714

>  <r_i_glide_lipo>  (66) 
-0.360117

>  <r_i_glide_hbond>  (66) 
-0.438782

>  <r_i_glide_metal>  (66) 
-0

>  <r_i_glide_rewards>  (66) 
-1.11831

>  <r_i_glide_evdw>  (66) 
-25.7061

>  <r_i_glide_ecoul>  (66) 
-2.85216

>  <r_i_glide_erotb>  (66) 
0.132791

>  <r_i_glide_esite>  (66) 
-0.00959868

>  <r_i_glide_emodel>  (66) 
-36.2259

>  <r_i_glide_energy>  (66) 
-28.5582

>  <r_i_glide_einternal>  (66) 
0.34563

>  <r_i_glide_intrahb_reward>  (66) 
-0

>  <i_i_glide_confnum>  (66) 
1

>  <i_i_glide_posenum>  (66) 
38

>  <r_i_glide_eff_state_penalty>  (66) 
0

>  <ligand_id>  (66) 
25

>  <original_smiles>  (66) 
CC12CCC3C4C(n5cnc6c(=N)[nH]cnc65)C1CC(C(=O)O)(C4O2)C3(C)C

>  <smiles>  (66) 
[H]c1nc(N([H])[H])c2nc([H])n(C3([H])C4([H])C5([H])OC6(C([H])([H])[H])C([H])([H])C([H])([H])C4([H])C(C([H])([H])[H])(C([H])([H])[H])C5(C(=O)[O-])C([H])([H])C36[H])c2n1

$$$$
25:0:1
     RDKit          3D

 52 57  0  0  1  0  0  0  0  0999 V2000
    0.2716   -3.3382    5.6354 C   0  0  0  0  0  0  0  0  0  0  0  0
    0.7676   -4.7895    5.6958 C   0  0  1  0  0  0  0  0  0  0  0  0
    0.1101   -5.7488    4.5220 C   0  0  0  0  0  0  0  0  0  0  0  0
    0.2340   -7.3980    4.4982 C   0  0  0  0  0  0  0  0  0  0  0  0
    1.3785   -8.1809    5.3483 C   0  0  1  0  0  0  0  0  0  0  0  0
    2.0158   -7.0123    5.7358 C   0  0  1  0  0  0  0  0  0  0  0  0
    2.8965   -5.8801    5.1466 C   0  0  1  0  0  0  0  0  0  0  0  0
    2.8688   -5.6242    3.7051 N   0  0  0  0  0  0  0  0  0  0  0  0
    2.9344   -6.5862    2.7200 C   0  0  0  0  0  0  0  0  0  0  0  0
    2.9419   -6.1383    1.4889 N   0  0  0  0  0  0  0  0  0  0  0  0
    2.9681   -4.7601    1.6429 C   0  0  0  0  0  0  0  0  0  0  0  0
    3.0194   -3.6763    0.7372 C   0  0  0  0  0  0  0  0  0  0  0  0
    3.0392   -3.8468   -0.5888 N   0  0  0  0  0  0  0  0  0  0  0  0
    3.0448   -2.4174    1.2309 N   0  0  0  0  0  0  0  0  0  0  0  0
    3.0277   -2.2227    2.5548 C   0  0  0  0  0  0  0  0  0  0  0  0
    2.9848   -3.1399    3.5260 N   0  0  0  0  0  0  0  0  0  0  0  0
    2.9470   -4.4129    3.0263 C   0  0  0  0  0  0  0  0  0  0  0  0
    2.3253   -4.8901    6.1343 C   0  0  2  0  0  0  0  0  0  0  0  0
    2.5457   -5.6477    7.6376 C   0  0  0  0  0  0  0  0  0  0  0  0
    1.6338   -7.0479    7.8620 C   0  0  1  0  0  0  0  0  0  0  0  0
    1.0539   -7.0691    9.2869 C   0  0  0  0  0  0  0  0  0  0  0  0
   -0.1801   -7.1244    9.4513 O   0  0  0  0  0  0  0  0  0  0  0  0
    1.8822   -7.0262   10.2193 O   0  0  0  0  0  0  0  0  0  0  0  0
    0.7851   -6.6284    6.8439 C   0  0  1  0  0  0  0  0  0  0  0  0
    0.2318   -5.3282    6.8413 O   0  0  0  0  0  0  0  0  0  0  0  0
    1.4813   -8.5122    7.0009 C   0  0  0  0  0  0  0  0  0  0  0  0
    0.2764   -9.4400    7.3792 C   0  0  0  0  0  0  0  0  0  0  0  0
    2.6941   -9.4277    7.3589 C   0  0  0  0  0  0  0  0  0  0  0  0
    3.0551   -3.0389   -1.1878 H   0  0  0  0  0  0  0  0  0  0  0  0
    0.6148   -2.8274    4.7350 H   0  0  0  0  0  0  0  0  0  0  0  0
    0.6359   -2.7778    6.4977 H   0  0  0  0  0  0  0  0  0  0  0  0
   -0.8178   -3.2914    5.6530 H   0  0  0  0  0  0  0  0  0  0  0  0
   -0.9596   -5.5677    4.5472 H   0  0  0  0  0  0  0  0  0  0  0  0
    0.3896   -5.3606    3.5440 H   0  0  0  0  0  0  0  0  0  0  0  0
   -0.7370   -7.8292    4.7387 H   0  0  0  0  0  0  0  0  0  0  0  0
    0.3685   -7.6737    3.4526 H   0  0  0  0  0  0  0  0  0  0  0  0
    1.9719   -8.8609    4.7339 H   0  0  0  0  0  0  0  0  0  0  0  0
    2.9903   -7.4229    6.0463 H   0  0  0  0  0  0  0  0  0  0  0  0
    3.9645   -5.9518    5.3808 H   0  0  0  0  0  0  0  0  0  0  0  0
    2.9709   -7.6433    2.9345 H   0  0  0  0  0  0  0  0  0  0  0  0
    3.0263   -4.7814   -0.9760 H   0  0  0  0  0  0  0  0  0  0  0  0
    3.0466   -1.1939    2.8898 H   0  0  0  0  0  0  0  0  0  0  0  0
    2.8361   -3.9224    6.0971 H   0  0  0  0  0  0  0  0  0  0  0  0
    3.6077   -5.8505    7.8082 H   0  0  0  0  0  0  0  0  0  0  0  0
    2.2685   -4.9207    8.4053 H   0  0  0  0  0  0  0  0  0  0  0  0
   -0.1900   -7.1200    6.8371 H   0  0  0  0  0  0  0  0  0  0  0  0
    0.2747   -9.6832    8.4411 H   0  0  0  0  0  0  0  0  0  0  0  0
    0.3303  -10.3807    6.8351 H   0  0  0  0  0  0  0  0  0  0  0  0
   -0.7130   -9.0577    7.1426 H   0  0  0  0  0  0  0  0  0  0  0  0
    2.5987   -9.8246    8.3721 H   0  0  0  0  0  0  0  0  0  0  0  0
    3.6594   -8.9220    7.3312 H   0  0  0  0  0  0  0  0  0  0  0  0
    2.7528  -10.2872    6.6858 H   0  0  0  0  0  0  0  0  0  0  0  0
  2  1  1  6
  1 30  1  0
  1 31  1  0
  1 32  1  0
  2 18  1  0
  2 25  1  0
  2  3  1  0
  3  4  1  0
  3 33  1  0
  3 34  1  0
  4  5  1  0
  4 35  1  0
  4 36  1  0
  5 26  1  0
  5  6  1  0
  5 37  1  6
  6 24  1  0
  6  7  1  0
  6 38  1  1
  7 18  1  0
  7 39  1  1
  7  8  1  0
  8  9  1  0
  8 17  1  0
  9 10  2  0
  9 40  1  0
 10 11  1  0
 11 12  1  0
 11 17  2  0
 12 14  2  0
 12 13  1  0
 13 41  1  0
 13 29  1  0
 14 15  1  0
 15 42  1  0
 15 16  2  0
 16 17  1  0
 18 19  1  0
 18 43  1  1
 19 20  1  0
 19 44  1  0
 19 45  1  0
 20 21  1  1
 20 24  1  0
 20 26  1  0
 21 22  2  0
 21 23  1  0
 24 25  1  0
 24 46  1  6
 26 27  1  0
 26 28  1  0
 27 47  1  0
 27 48  1  0
 27 49  1  0
 28 50  1  0
 28 51  1  0
 28 52  1  0
M  CHG  1  23  -1
M  END
>  <i_m_ct_stereo_status>  (67) 
1

>  <s_m_source_file>  (67) 
/var/tmp/pbs.5076255.sched01/tmphrtf3o8j/0_qqz9eae.sdf

>  <i_m_source_file_index>  (67) 
31

>  <i_lp_mmshare_version>  (67) 
48012

>  <i_f3d_flags>  (67) 
2

>  <s_epik_input>  (67) 
Tz1DKFtPSF0pW0NAQF0oW0NIMl0xKShbQ0hdMk8zKUMoW0NIM10pKFtDSDNdKVtDQEBIXShbQ0gyXVtDSDJdNClbQ0BIXTJbQ0BIXShbQ0BIXTFbQ0BdMzRbQ0gzXSluKFtjSF1uNSljKGM1NiluW2NIXVtuSF1jXDY9Ti9bSF0=

>  <s_epik_cmdline>  (67) 
J2VwaWtfcHl0aG9uJywgJy1waHQnLCAnMi4wJywgJy1waCcsICc3LjAnLCAnLXRuJywgJzgnLCAnLW1hJywgJzIwMCcsICctaW1hZScsICc8aW5maWxlLm1hZT4nLCAnLW9tYWUnLCAnPG91dGZpbGUubWFlPic=

>  <r_lp_tautomer_probability>  (67) 
1

>  <r_epik_Ionization_Penalty>  (67) 
0.00414123

>  <r_epik_Ionization_Penalty_Charging>  (67) 
0.00239703

>  <r_epik_Ionization_Penalty_Neutral>  (67) 
0.0017442

>  <r_epik_State_Penalty>  (67) 
-0

>  <r_epik_Charging_Adjusted_Penalty>  (67) 
0.00239703

>  <i_epik_Tot_Q>  (67) 
-1

>  <i_epik_Tot_abs_Q>  (67) 
1

>  <s_lp_Force_Field>  (67) 
OPLS3e

>  <r_lp_Energy>  (67) 
335.172

>  <b_lp_Chiralities_Consistent>  (67) 
0

>  <s_lp_Variant>  (67) 
25:0-1

>  <s_i_glide_gridfile>  (67) 
pfpi4k_grid

>  <i_i_glide_lignum>  (67) 
31

>  <i_i_glide_rotatable_bonds>  (67) 
2

>  <r_i_docking_score>  (67) 
-3.08415

>  <r_i_glide_ligand_efficiency>  (67) 
-0.110148

>  <r_i_glide_ligand_efficiency_sa>  (67) 
-0.334474

>  <r_i_glide_ligand_efficiency_ln>  (67) 
-0.711911

>  <r_i_glide_gscore>  (67) 
-3.08415

>  <r_i_glide_lipo>  (67) 
0

>  <r_i_glide_hbond>  (67) 
-0.425098

>  <r_i_glide_metal>  (67) 
-0

>  <r_i_glide_rewards>  (67) 
-0.801571

>  <r_i_glide_evdw>  (67) 
-18.5396

>  <r_i_glide_ecoul>  (67) 
-6.88502

>  <r_i_glide_erotb>  (67) 
0.132791

>  <r_i_glide_esite>  (67) 
-0.0305359

>  <r_i_glide_emodel>  (67) 
-32.4503

>  <r_i_glide_energy>  (67) 
-25.4246

>  <r_i_glide_einternal>  (67) 
0.128901

>  <r_i_glide_intrahb_reward>  (67) 
-0

>  <i_i_glide_confnum>  (67) 
2

>  <i_i_glide_posenum>  (67) 
20

>  <r_i_glide_eff_state_penalty>  (67) 
0

>  <ligand_id>  (67) 
25

>  <original_smiles>  (67) 
CC12CCC3C4C(n5cnc6c(=N)[nH]cnc65)C1CC(C(=O)O)(C4O2)C3(C)C

>  <smiles>  (67) 
[H]c1nc(N([H])[H])c2nc([H])n(C3([H])C4([H])C5([H])OC6(C([H])([H])[H])C([H])([H])C([H])([H])C4([H])C(C([H])([H])[H])(C([H])([H])[H])C5(C(=O)[O-])C([H])([H])C36[H])c2n1

$$$$
25:0:2
     RDKit          3D

 52 57  0  0  1  0  0  0  0  0999 V2000
    2.2332    1.1554    1.9524 C   0  0  0  0  0  0  0  0  0  0  0  0
    2.5799   -0.1189    2.7242 C   0  0  1  0  0  0  0  0  0  0  0  0
    1.4348   -1.2961    2.5501 C   0  0  0  0  0  0  0  0  0  0  0  0
    1.3856   -2.6710    3.4811 C   0  0  0  0  0  0  0  0  0  0  0  0
    2.7029   -3.2072    4.2845 C   0  0  1  0  0  0  0  0  0  0  0  0
    3.5427   -2.2533    3.7347 C   0  0  1  0  0  0  0  0  0  0  0  0
    4.2423   -1.9069    2.3892 C   0  0  1  0  0  0  0  0  0  0  0  0
    3.7064   -2.4388    1.1308 N   0  0  0  0  0  0  0  0  0  0  0  0
    3.0736   -3.6552    0.9542 C   0  0  0  0  0  0  0  0  0  0  0  0
    2.6862   -3.9320   -0.2573 N   0  0  0  0  0  0  0  0  0  0  0  0
    3.2141   -2.8959   -1.0081 C   0  0  0  0  0  0  0  0  0  0  0  0
    3.2419   -2.6203   -2.3977 C   0  0  0  0  0  0  0  0  0  0  0  0
    2.6587   -3.4170   -3.2998 N   0  0  0  0  0  0  0  0  0  0  0  0
    3.9118   -1.5319   -2.8305 N   0  0  0  0  0  0  0  0  0  0  0  0
    4.5123   -0.7455   -1.9324 C   0  0  0  0  0  0  0  0  0  0  0  0
    4.5688   -0.8627   -0.5969 N   0  0  0  0  0  0  0  0  0  0  0  0
    3.8841   -1.9623   -0.1688 C   0  0  0  0  0  0  0  0  0  0  0  0
    4.1737   -0.4290    2.7126 C   0  0  2  0  0  0  0  0  0  0  0  0
    4.8730   -0.3170    4.2515 C   0  0  0  0  0  0  0  0  0  0  0  0
    3.9925   -1.0696    5.4893 C   0  0  1  0  0  0  0  0  0  0  0  0
    3.9683   -0.1777    6.7477 C   0  0  0  0  0  0  0  0  0  0  0  0
    2.8810    0.0220    7.3382 O   0  0  0  0  0  0  0  0  0  0  0  0
    5.0754    0.2828    7.1031 O   0  0  0  0  0  0  0  0  0  0  0  0
    2.8646   -1.0123    4.6766 C   0  0  1  0  0  0  0  0  0  0  0  0
    2.4723    0.1986    4.0592 O   0  0  0  0  0  0  0  0  0  0  0  0
    3.3942   -2.6588    5.7184 C   0  0  0  0  0  0  0  0  0  0  0  0
    2.3409   -2.8779    6.8584 C   0  0  0  0  0  0  0  0  0  0  0  0
    4.5665   -3.5601    6.2176 C   0  0  0  0  0  0  0  0  0  0  0  0
    2.6740   -3.1699   -4.2728 H   0  0  0  0  0  0  0  0  0  0  0  0
    2.2728    0.9821    0.8837 H   0  0  0  0  0  0  0  0  0  0  0  0
    2.9383    1.9530    2.2013 H   0  0  0  0  0  0  0  0  0  0  0  0
    1.2343    1.5152    2.2096 H   0  0  0  0  0  0  0  0  0  0  0  0
    0.4740   -0.8095    2.7095 H   0  0  0  0  0  0  0  0  0  0  0  0
    1.3821   -1.5694    1.4973 H   0  0  0  0  0  0  0  0  0  0  0  0
    0.5505   -2.5988    4.1798 H   0  0  0  0  0  0  0  0  0  0  0  0
    1.0542   -3.4731    2.8262 H   0  0  0  0  0  0  0  0  0  0  0  0
    2.9690   -4.2384    4.0598 H   0  0  0  0  0  0  0  0  0  0  0  0
    4.5227   -2.6978    3.9606 H   0  0  0  0  0  0  0  0  0  0  0  0
    5.3142   -2.1440    2.3463 H   0  0  0  0  0  0  0  0  0  0  0  0
    2.8874   -4.3444    1.7642 H   0  0  0  0  0  0  0  0  0  0  0  0
    2.2240   -4.2735   -2.9767 H   0  0  0  0  0  0  0  0  0  0  0  0
    4.9917    0.1318   -2.3400 H   0  0  0  0  0  0  0  0  0  0  0  0
    4.7117    0.1759    1.9789 H   0  0  0  0  0  0  0  0  0  0  0  0
    5.8949   -0.6979    4.2379 H   0  0  0  0  0  0  0  0  0  0  0  0
    4.9636    0.7458    4.4887 H   0  0  0  0  0  0  0  0  0  0  0  0
    1.9169   -1.1200    5.2153 H   0  0  0  0  0  0  0  0  0  0  0  0
    2.7108   -2.5259    7.8225 H   0  0  0  0  0  0  0  0  0  0  0  0
    2.1155   -3.9385    6.9750 H   0  0  0  0  0  0  0  0  0  0  0  0
    1.3782   -2.3918    6.6986 H   0  0  0  0  0  0  0  0  0  0  0  0
    4.8208   -3.3297    7.2542 H   0  0  0  0  0  0  0  0  0  0  0  0
    5.4919   -3.4398    5.6532 H   0  0  0  0  0  0  0  0  0  0  0  0
    4.2931   -4.6159    6.1765 H   0  0  0  0  0  0  0  0  0  0  0  0
  2  1  1  6
  1 30  1  0
  1 31  1  0
  1 32  1  0
  2 18  1  0
  2 25  1  0
  2  3  1  0
  3  4  1  0
  3 33  1  0
  3 34  1  0
  4  5  1  0
  4 35  1  0
  4 36  1  0
  5 26  1  0
  5  6  1  0
  5 37  1  6
  6 24  1  0
  6  7  1  0
  6 38  1  1
  7 18  1  0
  7 39  1  1
  7  8  1  0
  8  9  1  0
  8 17  1  0
  9 10  2  0
  9 40  1  0
 10 11  1  0
 11 12  1  0
 11 17  2  0
 12 14  2  0
 12 13  1  0
 13 41  1  0
 13 29  1  0
 14 15  1  0
 15 42  1  0
 15 16  2  0
 16 17  1  0
 18 19  1  0
 18 43  1  6
 19 20  1  0
 19 44  1  0
 19 45  1  0
 20 21  1  1
 20 24  1  0
 20 26  1  0
 21 22  2  0
 21 23  1  0
 24 25  1  0
 24 46  1  1
 26 27  1  0
 26 28  1  0
 27 47  1  0
 27 48  1  0
 27 49  1  0
 28 50  1  0
 28 51  1  0
 28 52  1  0
M  CHG  1  23  -1
M  END
>  <i_m_ct_stereo_status>  (68) 
1

>  <s_m_source_file>  (68) 
/var/tmp/pbs.5076255.sched01/tmphrtf3o8j/0_qqz9eae.sdf

>  <i_m_source_file_index>  (68) 
31

>  <i_lp_mmshare_version>  (68) 
48012

>  <i_f3d_flags>  (68) 
2

>  <s_epik_input>  (68) 
Tz1DKFtPSF0pW0NAQF0oW0NIMl0xKShbQ0hdMk8zKUMoW0NIM10pKFtDSDNdKVtDQEBIXShbQ0gyXVtDSDJdNClbQ0BIXTJbQ0BIXShbQ0BIXTFbQ0BdMzRbQ0gzXSluKFtjSF1uNSljKGM1NiluW2NIXVtuSF1jXDY9Ti9bSF0=

>  <s_epik_cmdline>  (68) 
J2VwaWtfcHl0aG9uJywgJy1waHQnLCAnMi4wJywgJy1waCcsICc3LjAnLCAnLXRuJywgJzgnLCAnLW1hJywgJzIwMCcsICctaW1hZScsICc8aW5maWxlLm1hZT4nLCAnLW9tYWUnLCAnPG91dGZpbGUubWFlPic=

>  <r_lp_tautomer_probability>  (68) 
1

>  <r_epik_Ionization_Penalty>  (68) 
0.00414123

>  <r_epik_Ionization_Penalty_Charging>  (68) 
0.00239703

>  <r_epik_Ionization_Penalty_Neutral>  (68) 
0.0017442

>  <r_epik_State_Penalty>  (68) 
-0

>  <r_epik_Charging_Adjusted_Penalty>  (68) 
0.00239703

>  <i_epik_Tot_Q>  (68) 
-1

>  <i_epik_Tot_abs_Q>  (68) 
1

>  <s_lp_Force_Field>  (68) 
OPLS3e

>  <r_lp_Energy>  (68) 
335.172

>  <b_lp_Chiralities_Consistent>  (68) 
0

>  <s_lp_Variant>  (68) 
25:0-1

>  <s_i_glide_gridfile>  (68) 
pfpi4k_grid

>  <i_i_glide_lignum>  (68) 
31

>  <i_i_glide_rotatable_bonds>  (68) 
2

>  <r_i_docking_score>  (68) 
-2.85022

>  <r_i_glide_ligand_efficiency>  (68) 
-0.101793

>  <r_i_glide_ligand_efficiency_sa>  (68) 
-0.309105

>  <r_i_glide_ligand_efficiency_ln>  (68) 
-0.657913

>  <r_i_glide_gscore>  (68) 
-2.85022

>  <r_i_glide_lipo>  (68) 
-0.183481

>  <r_i_glide_hbond>  (68) 
-0.210447

>  <r_i_glide_metal>  (68) 
-0

>  <r_i_glide_rewards>  (68) 
-0.801571

>  <r_i_glide_evdw>  (68) 
-26.3393

>  <r_i_glide_ecoul>  (68) 
-2.5534

>  <r_i_glide_erotb>  (68) 
0.132791

>  <r_i_glide_esite>  (68) 
-0.0875332

>  <r_i_glide_emodel>  (68) 
-34.8213

>  <r_i_glide_energy>  (68) 
-28.8927

>  <r_i_glide_einternal>  (68) 
0.648523

>  <r_i_glide_intrahb_reward>  (68) 
-0

>  <i_i_glide_confnum>  (68) 
1

>  <i_i_glide_posenum>  (68) 
11

>  <r_i_glide_eff_state_penalty>  (68) 
0

>  <ligand_id>  (68) 
25

>  <original_smiles>  (68) 
CC12CCC3C4C(n5cnc6c(=N)[nH]cnc65)C1CC(C(=O)O)(C4O2)C3(C)C

>  <smiles>  (68) 
[H]c1nc(N([H])[H])c2nc([H])n(C3([H])C4([H])C5([H])OC6(C([H])([H])[H])C([H])([H])C([H])([H])C4([H])C(C([H])([H])[H])(C([H])([H])[H])C5(C(=O)[O-])C([H])([H])C36[H])c2n1

$$$$
26:0:0
     RDKit          3D

 37 41  0  0  1  0  0  0  0  0999 V2000
    0.5796   -6.7800    6.5313 C   0  0  0  0  0  0  0  0  0  0  0  0
   -0.0143   -5.4176    6.4810 C   0  0  0  0  0  0  0  0  0  0  0  0
    0.3450   -4.4229    5.6711 N   0  0  0  0  0  0  0  0  0  0  0  0
   -0.5201   -3.4523    6.0698 C   0  0  0  0  0  0  0  0  0  0  0  0
   -0.5273   -2.1202    5.4333 C   0  0  0  0  0  0  0  0  0  0  0  0
   -1.5423   -1.2623    5.6794 N   0  0  0  0  0  0  0  0  0  0  0  0
   -1.3174   -0.0573    4.9475 O   0  0  0  0  0  0  0  0  0  0  0  0
   -0.1534   -0.2420    4.2730 C   0  0  0  0  0  0  0  0  0  0  0  0
    0.5173    0.6320    3.4057 C   0  0  0  0  0  0  0  0  0  0  0  0
    1.7263    0.2452    2.8392 C   0  0  0  0  0  0  0  0  0  0  0  0
    2.2846   -1.0343    3.0837 C   0  0  0  0  0  0  0  0  0  0  0  0
    1.5928   -1.9191    3.9495 C   0  0  0  0  0  0  0  0  0  0  0  0
    0.3745   -1.4870    4.5351 C   0  0  0  0  0  0  0  0  0  0  0  0
    2.2774    1.3675    1.9936 C   0  0  0  0  0  0  0  0  0  0  0  0
    1.4149    2.5406    2.3517 N   0  0  2  0  0  0  0  0  0  0  0  0
    2.0336    3.5150    3.3056 C   0  0  1  0  0  0  0  0  0  0  0  0
    2.6074    4.7720    2.6353 C   0  0  0  0  0  0  0  0  0  0  0  0
    0.8926    3.8372    4.2335 C   0  0  0  0  0  0  0  0  0  0  0  0
   -0.1274    3.0034    4.0653 C   0  0  0  0  0  0  0  0  0  0  0  0
    0.1461    2.0233    2.9623 C   0  0  2  0  0  0  0  0  0  0  0  0
   -1.3730   -3.7737    7.0389 N   0  0  0  0  0  0  0  0  0  0  0  0
   -1.0261   -5.1025    7.3295 O   0  0  0  0  0  0  0  0  0  0  0  0
    1.3804   -6.8524    5.7971 H   0  0  0  0  0  0  0  0  0  0  0  0
   -0.1739   -7.5322    6.2987 H   0  0  0  0  0  0  0  0  0  0  0  0
    0.9938   -6.9719    7.5206 H   0  0  0  0  0  0  0  0  0  0  0  0
    3.2159   -1.3385    2.6215 H   0  0  0  0  0  0  0  0  0  0  0  0
    1.9886   -2.8989    4.1595 H   0  0  0  0  0  0  0  0  0  0  0  0
    3.3439    1.5417    2.1511 H   0  0  0  0  0  0  0  0  0  0  0  0
    2.1189    1.0986    0.9509 H   0  0  0  0  0  0  0  0  0  0  0  0
    2.8063    3.0359    3.9070 H   0  0  0  0  0  0  0  0  0  0  0  0
    3.0057    5.4537    3.3898 H   0  0  0  0  0  0  0  0  0  0  0  0
    1.8498    5.3271    2.0789 H   0  0  0  0  0  0  0  0  0  0  0  0
    3.4343    4.5302    1.9670 H   0  0  0  0  0  0  0  0  0  0  0  0
    0.9276    4.6511    4.9456 H   0  0  0  0  0  0  0  0  0  0  0  0
   -1.0579    3.0195    4.6173 H   0  0  0  0  0  0  0  0  0  0  0  0
   -0.6588    1.9950    2.2255 H   0  0  0  0  0  0  0  0  0  0  0  0
    1.1273    3.0854    1.5370 H   0  0  0  0  0  0  0  0  0  0  0  0
  1  2  1  0
  1 23  1  0
  1 24  1  0
  1 25  1  0
  2 22  1  0
  2  3  2  0
  3  4  1  0
  4  5  1  0
  4 21  2  0
  5 13  1  0
  5  6  2  0
  6  7  1  0
  7  8  1  0
  8 13  2  0
  8  9  1  0
  9 20  1  0
  9 10  2  0
 10 11  1  0
 10 14  1  0
 11 12  2  0
 11 26  1  0
 12 13  1  0
 12 27  1  0
 14 15  1  0
 14 28  1  0
 14 29  1  0
 15 20  1  0
 15 16  1  0
 15 37  1  6
 16 17  1  0
 16 18  1  0
 16 30  1  1
 17 31  1  0
 17 32  1  0
 17 33  1  0
 18 19  2  0
 18 34  1  0
 19 20  1  0
 19 35  1  0
 20 36  1  6
 21 22  1  0
M  CHG  1  15   1
M  END
>  <i_m_ct_stereo_status>  (69) 
1

>  <s_m_source_file>  (69) 
/var/tmp/pbs.5076255.sched01/tmphrtf3o8j/0_qqz9eae.sdf

>  <i_m_source_file_index>  (69) 
32

>  <i_lp_mmshare_version>  (69) 
48012

>  <i_f3d_flags>  (69) 
0

>  <s_epik_input>  (69) 
W0NIM11jMW5jKG5vMSktYyhubzIpYzNbY0hdW2NIXWMoYzRjMjMpW0NIMl1ONVtDQEBIXTRbQ0hdPVtDSF1bQ0BASF01W0NIM10=

>  <s_epik_cmdline>  (69) 
J2VwaWtfcHl0aG9uJywgJy1waHQnLCAnMi4wJywgJy1waCcsICc3LjAnLCAnLXRuJywgJzgnLCAnLW1hJywgJzIwMCcsICctaW1hZScsICc8aW5maWxlLm1hZT4nLCAnLW9tYWUnLCAnPG91dGZpbGUubWFlPic=

>  <r_lp_tautomer_probability>  (69) 
1

>  <r_epik_Ionization_Penalty>  (69) 
0.0122512

>  <r_epik_Ionization_Penalty_Charging>  (69) 
0.0122512

>  <r_epik_Ionization_Penalty_Neutral>  (69) 
2.99953e-13

>  <r_epik_State_Penalty>  (69) 
0.00947341

>  <r_epik_Charging_Adjusted_Penalty>  (69) 
0.0217247

>  <i_epik_Tot_Q>  (69) 
1

>  <i_epik_Tot_abs_Q>  (69) 
1

>  <s_lp_Force_Field>  (69) 
OPLS3e

>  <r_lp_Energy>  (69) 
15.9747

>  <b_lp_Chiralities_Consistent>  (69) 
1

>  <s_lp_Variant>  (69) 
26:0-1

>  <s_i_glide_gridfile>  (69) 
pfpi4k_grid

>  <i_i_glide_lignum>  (69) 
32

>  <i_i_glide_rotatable_bonds>  (69) 
1

>  <r_i_docking_score>  (69) 
-3.74705

>  <r_i_glide_ligand_efficiency>  (69) 
-0.17032

>  <r_i_glide_ligand_efficiency_sa>  (69) 
-0.477244

>  <r_i_glide_ligand_efficiency_ln>  (69) 
-0.915915

>  <r_i_glide_gscore>  (69) 
-3.74705

>  <r_i_glide_lipo>  (69) 
-0.0142722

>  <r_i_glide_hbond>  (69) 
-0.2

>  <r_i_glide_metal>  (69) 
-0

>  <r_i_glide_rewards>  (69) 
-1.39557

>  <r_i_glide_evdw>  (69) 
-21.6499

>  <r_i_glide_ecoul>  (69) 
-6.79215

>  <r_i_glide_erotb>  (69) 
0.209863

>  <r_i_glide_esite>  (69) 
-0.24575

>  <r_i_glide_emodel>  (69) 
-37.6486

>  <r_i_glide_energy>  (69) 
-28.442

>  <r_i_glide_einternal>  (69) 
0.215962

>  <r_i_glide_intrahb_reward>  (69) 
-0

>  <i_i_glide_confnum>  (69) 
3

>  <i_i_glide_posenum>  (69) 
30

>  <r_i_glide_eff_state_penalty>  (69) 
0

>  <ligand_id>  (69) 
26

>  <original_smiles>  (69) 
Cc1nc(-c2noc3c4c(ccc23)CN2C(C)C=CC42)no1

>  <smiles>  (69) 
[H]C1=C([H])C([H])(C([H])([H])[H])[N+]2([H])C([H])([H])c3c([H])c([H])c4c(-c5noc(C([H])([H])[H])n5)noc4c3C12[H]

$$$$
26:0:1
     RDKit          3D

 37 41  0  0  1  0  0  0  0  0999 V2000
   -2.1690    3.3088    6.0798 C   0  0  0  0  0  0  0  0  0  0  0  0
   -1.6695    1.9360    5.8194 C   0  0  0  0  0  0  0  0  0  0  0  0
   -0.7424    1.5784    4.9337 N   0  0  0  0  0  0  0  0  0  0  0  0
   -0.7215    0.2315    5.1214 C   0  0  0  0  0  0  0  0  0  0  0  0
    0.1920   -0.6425    4.3616 C   0  0  0  0  0  0  0  0  0  0  0  0
    0.1078   -1.9837    4.4874 N   0  0  0  0  0  0  0  0  0  0  0  0
    1.0916   -2.5932    3.6531 O   0  0  0  0  0  0  0  0  0  0  0  0
    1.7540   -1.5719    3.0516 C   0  0  0  0  0  0  0  0  0  0  0  0
    2.8207   -1.6198    2.1447 C   0  0  0  0  0  0  0  0  0  0  0  0
    3.3403   -0.4358    1.6348 C   0  0  0  0  0  0  0  0  0  0  0  0
    2.8437    0.8227    2.0457 C   0  0  0  0  0  0  0  0  0  0  0  0
    1.7707    0.8687    2.9646 C   0  0  0  0  0  0  0  0  0  0  0  0
    1.2421   -0.3551    3.4477 C   0  0  0  0  0  0  0  0  0  0  0  0
    4.4310   -0.7372    0.6388 C   0  0  0  0  0  0  0  0  0  0  0  0
    4.3127   -2.2133    0.4249 N   0  0  2  0  0  0  0  0  0  0  0  0
    3.6318   -2.6197   -0.8474 C   0  0  1  0  0  0  0  0  0  0  0  0
    4.5932   -3.0353   -1.9748 C   0  0  0  0  0  0  0  0  0  0  0  0
    2.7529   -3.7590   -0.4033 C   0  0  0  0  0  0  0  0  0  0  0  0
    2.6920   -3.8461    0.9210 C   0  0  0  0  0  0  0  0  0  0  0  0
    3.5507   -2.8059    1.5738 C   0  0  2  0  0  0  0  0  0  0  0  0
   -1.5373   -0.2507    6.0587 N   0  0  0  0  0  0  0  0  0  0  0  0
   -2.1850    0.9024    6.5329 O   0  0  0  0  0  0  0  0  0  0  0  0
   -1.6627    4.0054    5.4148 H   0  0  0  0  0  0  0  0  0  0  0  0
   -1.9620    3.5915    7.1112 H   0  0  0  0  0  0  0  0  0  0  0  0
   -3.2417    3.3556    5.8949 H   0  0  0  0  0  0  0  0  0  0  0  0
    3.2749    1.7398    1.6788 H   0  0  0  0  0  0  0  0  0  0  0  0
    1.3705    1.8158    3.2866 H   0  0  0  0  0  0  0  0  0  0  0  0
    4.3616   -0.1585   -0.2844 H   0  0  0  0  0  0  0  0  0  0  0  0
    5.3921   -0.5246    1.1067 H   0  0  0  0  0  0  0  0  0  0  0  0
    2.9717   -1.8276   -1.2003 H   0  0  0  0  0  0  0  0  0  0  0  0
    4.0165   -3.3425   -2.8512 H   0  0  0  0  0  0  0  0  0  0  0  0
    5.2319   -3.8805   -1.7063 H   0  0  0  0  0  0  0  0  0  0  0  0
    5.2273   -2.2052   -2.2905 H   0  0  0  0  0  0  0  0  0  0  0  0
    2.2380   -4.4080   -1.1014 H   0  0  0  0  0  0  0  0  0  0  0  0
    2.1225   -4.5715    1.4862 H   0  0  0  0  0  0  0  0  0  0  0  0
    4.2221   -3.2384    2.3165 H   0  0  0  0  0  0  0  0  0  0  0  0
    5.2276   -2.6409    0.4246 H   0  0  0  0  0  0  0  0  0  0  0  0
  1  2  1  0
  1 23  1  0
  1 24  1  0
  1 25  1  0
  2 22  1  0
  2  3  2  0
  3  4  1  0
  4  5  1  0
  4 21  2  0
  5 13  1  0
  5  6  2  0
  6  7  1  0
  7  8  1  0
  8 13  2  0
  8  9  1  0
  9 20  1  0
  9 10  2  0
 10 11  1  0
 10 14  1  0
 11 12  2  0
 11 26  1  0
 12 13  1  0
 12 27  1  0
 14 15  1  0
 14 28  1  0
 14 29  1  0
 15 20  1  0
 15 16  1  0
 15 37  1  6
 16 17  1  0
 16 18  1  0
 16 30  1  6
 17 31  1  0
 17 32  1  0
 17 33  1  0
 18 19  2  0
 18 34  1  0
 19 20  1  0
 19 35  1  0
 20 36  1  1
 21 22  1  0
M  CHG  1  15   1
M  END
>  <i_m_ct_stereo_status>  (70) 
1

>  <s_m_source_file>  (70) 
/var/tmp/pbs.5076255.sched01/tmphrtf3o8j/0_qqz9eae.sdf

>  <i_m_source_file_index>  (70) 
32

>  <i_lp_mmshare_version>  (70) 
48012

>  <i_f3d_flags>  (70) 
0

>  <s_epik_input>  (70) 
W0NIM11jMW5jKG5vMSktYyhubzIpYzNbY0hdW2NIXWMoYzRjMjMpW0NIMl1ONVtDQEBIXTRbQ0hdPVtDSF1bQ0BASF01W0NIM10=

>  <s_epik_cmdline>  (70) 
J2VwaWtfcHl0aG9uJywgJy1waHQnLCAnMi4wJywgJy1waCcsICc3LjAnLCAnLXRuJywgJzgnLCAnLW1hJywgJzIwMCcsICctaW1hZScsICc8aW5maWxlLm1hZT4nLCAnLW9tYWUnLCAnPG91dGZpbGUubWFlPic=

>  <r_lp_tautomer_probability>  (70) 
1

>  <r_epik_Ionization_Penalty>  (70) 
0.0122512

>  <r_epik_Ionization_Penalty_Charging>  (70) 
0.0122512

>  <r_epik_Ionization_Penalty_Neutral>  (70) 
2.99953e-13

>  <r_epik_State_Penalty>  (70) 
0.00947341

>  <r_epik_Charging_Adjusted_Penalty>  (70) 
0.0217247

>  <i_epik_Tot_Q>  (70) 
1

>  <i_epik_Tot_abs_Q>  (70) 
1

>  <s_lp_Force_Field>  (70) 
OPLS3e

>  <r_lp_Energy>  (70) 
15.9747

>  <b_lp_Chiralities_Consistent>  (70) 
1

>  <s_lp_Variant>  (70) 
26:0-1

>  <s_i_glide_gridfile>  (70) 
pfpi4k_grid

>  <i_i_glide_lignum>  (70) 
32

>  <i_i_glide_rotatable_bonds>  (70) 
1

>  <r_i_docking_score>  (70) 
-3.36723

>  <r_i_glide_ligand_efficiency>  (70) 
-0.153056

>  <r_i_glide_ligand_efficiency_sa>  (70) 
-0.428869

>  <r_i_glide_ligand_efficiency_ln>  (70) 
-0.823075

>  <r_i_glide_gscore>  (70) 
-3.36723

>  <r_i_glide_lipo>  (70) 
-0.205179

>  <r_i_glide_hbond>  (70) 
0

>  <r_i_glide_metal>  (70) 
-0

>  <r_i_glide_rewards>  (70) 
-1.39557

>  <r_i_glide_evdw>  (70) 
-21.4646

>  <r_i_glide_ecoul>  (70) 
-4.66362

>  <r_i_glide_erotb>  (70) 
0.209863

>  <r_i_glide_esite>  (70) 
-0.203575

>  <r_i_glide_emodel>  (70) 
-34.4712

>  <r_i_glide_energy>  (70) 
-26.1282

>  <r_i_glide_einternal>  (70) 
0.0865744

>  <r_i_glide_intrahb_reward>  (70) 
-0

>  <i_i_glide_confnum>  (70) 
3

>  <i_i_glide_posenum>  (70) 
4

>  <r_i_glide_eff_state_penalty>  (70) 
0

>  <ligand_id>  (70) 
26

>  <original_smiles>  (70) 
Cc1nc(-c2noc3c4c(ccc23)CN2C(C)C=CC42)no1

>  <smiles>  (70) 
[H]C1=C([H])C([H])(C([H])([H])[H])[N+]2([H])C([H])([H])c3c([H])c([H])c4c(-c5noc(C([H])([H])[H])n5)noc4c3C12[H]

$$$$
26:0:2
     RDKit          3D

 37 41  0  0  1  0  0  0  0  0999 V2000
    2.0993    2.4423    2.2662 C   0  0  0  0  0  0  0  0  0  0  0  0
    2.3160    0.9677    2.2196 C   0  0  0  0  0  0  0  0  0  0  0  0
    1.6743    0.0342    2.9218 N   0  0  0  0  0  0  0  0  0  0  0  0
    2.3017   -1.0902    2.4725 C   0  0  0  0  0  0  0  0  0  0  0  0
    1.9215   -2.4296    2.9648 C   0  0  0  0  0  0  0  0  0  0  0  0
    1.1367   -2.5425    4.0582 N   0  0  0  0  0  0  0  0  0  0  0  0
    0.9177   -3.9210    4.3415 O   0  0  0  0  0  0  0  0  0  0  0  0
    1.5786   -4.6081    3.3743 C   0  0  0  0  0  0  0  0  0  0  0  0
    1.6574   -5.9942    3.1724 C   0  0  0  0  0  0  0  0  0  0  0  0
    2.3409   -6.4887    2.0687 C   0  0  0  0  0  0  0  0  0  0  0  0
    2.9987   -5.6284    1.1529 C   0  0  0  0  0  0  0  0  0  0  0  0
    2.9316   -4.2267    1.3768 C   0  0  0  0  0  0  0  0  0  0  0  0
    2.2091   -3.7485    2.4982 C   0  0  0  0  0  0  0  0  0  0  0  0
    2.2521   -7.9952    2.0439 C   0  0  0  0  0  0  0  0  0  0  0  0
    1.2181   -8.3036    3.0817 N   0  0  2  0  0  0  0  0  0  0  0  0
   -0.1381   -8.6358    2.5394 C   0  0  1  0  0  0  0  0  0  0  0  0
   -0.4396  -10.1361    2.4905 C   0  0  0  0  0  0  0  0  0  0  0  0
   -1.0639   -7.8985    3.4700 C   0  0  0  0  0  0  0  0  0  0  0  0
   -0.4008   -7.0479    4.2456 C   0  0  0  0  0  0  0  0  0  0  0  0
    1.0779   -7.1162    3.9925 C   0  0  2  0  0  0  0  0  0  0  0  0
    3.2580   -0.9185    1.5677 N   0  0  0  0  0  0  0  0  0  0  0  0
    3.2788    0.4756    1.4003 O   0  0  0  0  0  0  0  0  0  0  0  0
    1.3053    2.6898    2.9708 H   0  0  0  0  0  0  0  0  0  0  0  0
    1.8172    2.8121    1.2821 H   0  0  0  0  0  0  0  0  0  0  0  0
    3.0159    2.9501    2.5682 H   0  0  0  0  0  0  0  0  0  0  0  0
    3.5456   -6.0193    0.3046 H   0  0  0  0  0  0  0  0  0  0  0  0
    3.4033   -3.5383    0.6935 H   0  0  0  0  0  0  0  0  0  0  0  0
    2.0189   -8.4071    1.0626 H   0  0  0  0  0  0  0  0  0  0  0  0
    3.2092   -8.3968    2.3701 H   0  0  0  0  0  0  0  0  0  0  0  0
   -0.2806   -8.2026    1.5500 H   0  0  0  0  0  0  0  0  0  0  0  0
   -1.4506  -10.2617    2.1007 H   0  0  0  0  0  0  0  0  0  0  0  0
   -0.3938  -10.6183    3.4701 H   0  0  0  0  0  0  0  0  0  0  0  0
    0.2312  -10.6695    1.8173 H   0  0  0  0  0  0  0  0  0  0  0  0
   -2.1333   -8.0648    3.4900 H   0  0  0  0  0  0  0  0  0  0  0  0
   -0.8386   -6.4043    4.9972 H   0  0  0  0  0  0  0  0  0  0  0  0
    1.6452   -7.2561    4.9131 H   0  0  0  0  0  0  0  0  0  0  0  0
    1.5149   -9.0894    3.6429 H   0  0  0  0  0  0  0  0  0  0  0  0
  1  2  1  0
  1 23  1  0
  1 24  1  0
  1 25  1  0
  2 22  1  0
  2  3  2  0
  3  4  1  0
  4  5  1  0
  4 21  2  0
  5 13  1  0
  5  6  2  0
  6  7  1  0
  7  8  1  0
  8 13  2  0
  8  9  1  0
  9 20  1  0
  9 10  2  0
 10 11  1  0
 10 14  1  0
 11 12  2  0
 11 26  1  0
 12 13  1  0
 12 27  1  0
 14 15  1  0
 14 28  1  0
 14 29  1  0
 15 20  1  0
 15 16  1  0
 15 37  1  1
 16 17  1  0
 16 18  1  0
 16 30  1  6
 17 31  1  0
 17 32  1  0
 17 33  1  0
 18 19  2  0
 18 34  1  0
 19 20  1  0
 19 35  1  0
 20 36  1  1
 21 22  1  0
M  CHG  1  15   1
M  END
>  <i_m_ct_stereo_status>  (71) 
1

>  <s_m_source_file>  (71) 
/var/tmp/pbs.5076255.sched01/tmphrtf3o8j/0_qqz9eae.sdf

>  <i_m_source_file_index>  (71) 
32

>  <i_lp_mmshare_version>  (71) 
48012

>  <i_f3d_flags>  (71) 
0

>  <s_epik_input>  (71) 
W0NIM11jMW5jKG5vMSktYyhubzIpYzNbY0hdW2NIXWMoYzRjMjMpW0NIMl1ONVtDQEBIXTRbQ0hdPVtDSF1bQ0BASF01W0NIM10=

>  <s_epik_cmdline>  (71) 
J2VwaWtfcHl0aG9uJywgJy1waHQnLCAnMi4wJywgJy1waCcsICc3LjAnLCAnLXRuJywgJzgnLCAnLW1hJywgJzIwMCcsICctaW1hZScsICc8aW5maWxlLm1hZT4nLCAnLW9tYWUnLCAnPG91dGZpbGUubWFlPic=

>  <r_lp_tautomer_probability>  (71) 
1

>  <r_epik_Ionization_Penalty>  (71) 
0.0122512

>  <r_epik_Ionization_Penalty_Charging>  (71) 
0.0122512

>  <r_epik_Ionization_Penalty_Neutral>  (71) 
2.99953e-13

>  <r_epik_State_Penalty>  (71) 
0.00947341

>  <r_epik_Charging_Adjusted_Penalty>  (71) 
0.0217247

>  <i_epik_Tot_Q>  (71) 
1

>  <i_epik_Tot_abs_Q>  (71) 
1

>  <s_lp_Force_Field>  (71) 
OPLS3e

>  <r_lp_Energy>  (71) 
15.9747

>  <b_lp_Chiralities_Consistent>  (71) 
1

>  <s_lp_Variant>  (71) 
26:0-1

>  <s_i_glide_gridfile>  (71) 
pfpi4k_grid

>  <i_i_glide_lignum>  (71) 
32

>  <i_i_glide_rotatable_bonds>  (71) 
1

>  <r_i_docking_score>  (71) 
-2.92587

>  <r_i_glide_ligand_efficiency>  (71) 
-0.132994

>  <r_i_glide_ligand_efficiency_sa>  (71) 
-0.372655

>  <r_i_glide_ligand_efficiency_ln>  (71) 
-0.71519

>  <r_i_glide_gscore>  (71) 
-2.92587

>  <r_i_glide_lipo>  (71) 
-0.0721646

>  <r_i_glide_hbond>  (71) 
0

>  <r_i_glide_metal>  (71) 
-0

>  <r_i_glide_rewards>  (71) 
-1.39557

>  <r_i_glide_evdw>  (71) 
-23.0557

>  <r_i_glide_ecoul>  (71) 
-3.02763

>  <r_i_glide_erotb>  (71) 
0.209863

>  <r_i_glide_esite>  (71) 
-0.0610684

>  <r_i_glide_emodel>  (71) 
-33.0745

>  <r_i_glide_energy>  (71) 
-26.0834

>  <r_i_glide_einternal>  (71) 
0.37599

>  <r_i_glide_intrahb_reward>  (71) 
-0

>  <i_i_glide_confnum>  (71) 
4

>  <i_i_glide_posenum>  (71) 
26

>  <r_i_glide_eff_state_penalty>  (71) 
0

>  <ligand_id>  (71) 
26

>  <original_smiles>  (71) 
Cc1nc(-c2noc3c4c(ccc23)CN2C(C)C=CC42)no1

>  <smiles>  (71) 
[H]C1=C([H])C([H])(C([H])([H])[H])[N+]2([H])C([H])([H])c3c([H])c([H])c4c(-c5noc(C([H])([H])[H])n5)noc4c3C12[H]

$$$$
26:1:0
     RDKit          3D

 36 40  0  0  1  0  0  0  0  0999 V2000
   -1.4377    2.0470    3.9034 C   0  0  0  0  0  0  0  0  0  0  0  0
   -1.1590    0.6712    4.3965 C   0  0  0  0  0  0  0  0  0  0  0  0
   -0.2531   -0.1744    3.9162 N   0  0  0  0  0  0  0  0  0  0  0  0
   -0.4405   -1.2384    4.7399 C   0  0  0  0  0  0  0  0  0  0  0  0
    0.3489   -2.4720    4.5846 C   0  0  0  0  0  0  0  0  0  0  0  0
    0.1771   -3.4922    5.4492 N   0  0  0  0  0  0  0  0  0  0  0  0
    1.0416   -4.5651    5.0821 O   0  0  0  0  0  0  0  0  0  0  0  0
    1.7164   -4.1402    3.9810 C   0  0  0  0  0  0  0  0  0  0  0  0
    2.6843   -4.8062    3.2181 C   0  0  0  0  0  0  0  0  0  0  0  0
    3.2426   -4.1791    2.1160 C   0  0  0  0  0  0  0  0  0  0  0  0
    2.8733   -2.8672    1.7364 C   0  0  0  0  0  0  0  0  0  0  0  0
    1.8934   -2.1921    2.5108 C   0  0  0  0  0  0  0  0  0  0  0  0
    1.3331   -2.8628    3.6322 C   0  0  0  0  0  0  0  0  0  0  0  0
    4.2745   -5.0928    1.5083 C   0  0  0  0  0  0  0  0  0  0  0  0
    4.0884   -6.3951    2.1735 N   0  0  0  0  0  0  0  0  0  0  0  0
    3.3505   -7.3898    1.3773 C   0  0  1  0  0  0  0  0  0  0  0  0
    4.3248   -8.4096    0.7661 C   0  0  0  0  0  0  0  0  0  0  0  0
    2.3972   -8.0121    2.3615 C   0  0  0  0  0  0  0  0  0  0  0  0
    2.3591   -7.3087    3.4853 C   0  0  0  0  0  0  0  0  0  0  0  0
    3.3187   -6.1537    3.4167 C   0  0  2  0  0  0  0  0  0  0  0  0
   -1.3904   -1.1179    5.6651 N   0  0  0  0  0  0  0  0  0  0  0  0
   -1.8681    0.1834    5.4467 O   0  0  0  0  0  0  0  0  0  0  0  0
   -0.7948    2.2676    3.0508 H   0  0  0  0  0  0  0  0  0  0  0  0
   -1.2372    2.7742    4.6899 H   0  0  0  0  0  0  0  0  0  0  0  0
   -2.4782    2.1323    3.5857 H   0  0  0  0  0  0  0  0  0  0  0  0
    3.3283   -2.3813    0.8841 H   0  0  0  0  0  0  0  0  0  0  0  0
    1.5833   -1.1937    2.2429 H   0  0  0  0  0  0  0  0  0  0  0  0
    4.1778   -5.1602    0.4226 H   0  0  0  0  0  0  0  0  0  0  0  0
    5.2696   -4.7105    1.7395 H   0  0  0  0  0  0  0  0  0  0  0  0
    2.7523   -6.9071    0.6026 H   0  0  0  0  0  0  0  0  0  0  0  0
    3.7995   -9.1807    0.2031 H   0  0  0  0  0  0  0  0  0  0  0  0
    4.9159   -8.9173    1.5288 H   0  0  0  0  0  0  0  0  0  0  0  0
    5.0127   -7.9182    0.0822 H   0  0  0  0  0  0  0  0  0  0  0  0
    1.8227   -8.9043    2.1500 H   0  0  0  0  0  0  0  0  0  0  0  0
    1.7468   -7.5244    4.3500 H   0  0  0  0  0  0  0  0  0  0  0  0
    3.9820   -6.1372    4.2818 H   0  0  0  0  0  0  0  0  0  0  0  0
  1  2  1  0
  1 23  1  0
  1 24  1  0
  1 25  1  0
  2 22  1  0
  2  3  2  0
  3  4  1  0
  4  5  1  0
  4 21  2  0
  5 13  1  0
  5  6  2  0
  6  7  1  0
  7  8  1  0
  8 13  2  0
  8  9  1  0
  9 20  1  0
  9 10  2  0
 10 11  1  0
 10 14  1  0
 11 12  2  0
 11 26  1  0
 12 13  1  0
 12 27  1  0
 14 15  1  0
 14 28  1  0
 14 29  1  0
 15 20  1  0
 15 16  1  0
 16 17  1  0
 16 18  1  0
 16 30  1  6
 17 31  1  0
 17 32  1  0
 17 33  1  0
 18 19  2  0
 18 34  1  0
 19 20  1  0
 19 35  1  0
 20 36  1  1
 21 22  1  0
M  END
>  <i_m_ct_stereo_status>  (72) 
1

>  <s_m_source_file>  (72) 
/var/tmp/pbs.5076255.sched01/tmphrtf3o8j/0_qqz9eae.sdf

>  <i_m_source_file_index>  (72) 
33

>  <i_lp_mmshare_version>  (72) 
48012

>  <i_f3d_flags>  (72) 
0

>  <s_epik_input>  (72) 
W0NIM11jMW5jKG5vMSktYyhubzIpYzNbY0hdW2NIXWMoYzRjMjMpW0NIMl1ONVtDQEBIXTRbQ0hdPVtDSF1bQ0BASF01W0NIM10=

>  <s_epik_cmdline>  (72) 
J2VwaWtfcHl0aG9uJywgJy1waHQnLCAnMi4wJywgJy1waCcsICc3LjAnLCAnLXRuJywgJzgnLCAnLW1hJywgJzIwMCcsICctaW1hZScsICc8aW5maWxlLm1hZT4nLCAnLW9tYWUnLCAnPG91dGZpbGUubWFlPic=

>  <r_lp_tautomer_probability>  (72) 
1

>  <r_epik_Ionization_Penalty>  (72) 
2.30419

>  <r_epik_Ionization_Penalty_Charging>  (72) 
0

>  <r_epik_Ionization_Penalty_Neutral>  (72) 
2.30419

>  <r_epik_State_Penalty>  (72) 
2.45516

>  <r_epik_Charging_Adjusted_Penalty>  (72) 
2.45516

>  <i_epik_Tot_Q>  (72) 
0

>  <i_epik_Tot_abs_Q>  (72) 
0

>  <s_lp_Force_Field>  (72) 
OPLS3e

>  <r_lp_Energy>  (72) 
22.2225

>  <b_lp_Chiralities_Consistent>  (72) 
1

>  <s_lp_Variant>  (72) 
26:0-2

>  <s_i_glide_gridfile>  (72) 
pfpi4k_grid

>  <i_i_glide_lignum>  (72) 
33

>  <i_i_glide_rotatable_bonds>  (72) 
1

>  <r_i_docking_score>  (72) 
-3.00953

>  <r_i_glide_ligand_efficiency>  (72) 
-0.136797

>  <r_i_glide_ligand_efficiency_sa>  (72) 
-0.38331

>  <r_i_glide_ligand_efficiency_ln>  (72) 
-0.735638

>  <r_i_glide_gscore>  (72) 
-3.00953

>  <r_i_glide_lipo>  (72) 
-0.18212

>  <r_i_glide_hbond>  (72) 
0

>  <r_i_glide_metal>  (72) 
-0

>  <r_i_glide_rewards>  (72) 
-1.40245

>  <r_i_glide_evdw>  (72) 
-19.5863

>  <r_i_glide_ecoul>  (72) 
-3.40086

>  <r_i_glide_erotb>  (72) 
0.21112

>  <r_i_glide_esite>  (72) 
-0.146638

>  <r_i_glide_emodel>  (72) 
-28.0145

>  <r_i_glide_energy>  (72) 
-22.9871

>  <r_i_glide_einternal>  (72) 
0.0246672

>  <r_i_glide_intrahb_reward>  (72) 
-0

>  <i_i_glide_confnum>  (72) 
3

>  <i_i_glide_posenum>  (72) 
9

>  <r_i_glide_eff_state_penalty>  (72) 
0

>  <ligand_id>  (72) 
26

>  <original_smiles>  (72) 
Cc1nc(-c2noc3c4c(ccc23)CN2C(C)C=CC42)no1

>  <smiles>  (72) 
[H]C1=C([H])C([H])(C([H])([H])[H])N2C([H])([H])c3c([H])c([H])c4c(-c5noc(C([H])([H])[H])n5)noc4c3C12[H]

$$$$
26:1:1
     RDKit          3D

 36 40  0  0  1  0  0  0  0  0999 V2000
   -3.8608    2.9603    8.6792 C   0  0  0  0  0  0  0  0  0  0  0  0
   -2.9475    2.6018    7.5570 C   0  0  0  0  0  0  0  0  0  0  0  0
   -2.0860    1.5860    7.4999 N   0  0  0  0  0  0  0  0  0  0  0  0
   -1.5414    1.7935    6.2610 C   0  0  0  0  0  0  0  0  0  0  0  0
   -0.4794    0.9143    5.7368 C   0  0  0  0  0  0  0  0  0  0  0  0
   -0.0656   -0.1345    6.4757 N   0  0  0  0  0  0  0  0  0  0  0  0
    0.9574   -0.8276    5.7625 O   0  0  0  0  0  0  0  0  0  0  0  0
    1.1151   -0.1589    4.5905 C   0  0  0  0  0  0  0  0  0  0  0  0
    1.9873   -0.4229    3.5250 C   0  0  0  0  0  0  0  0  0  0  0  0
    1.9788    0.3997    2.4122 C   0  0  0  0  0  0  0  0  0  0  0  0
    1.1220    1.5224    2.3143 C   0  0  0  0  0  0  0  0  0  0  0  0
    0.2413    1.7885    3.3952 C   0  0  0  0  0  0  0  0  0  0  0  0
    0.2612    0.9230    4.5195 C   0  0  0  0  0  0  0  0  0  0  0  0
    3.0248   -0.0833    1.4437 C   0  0  0  0  0  0  0  0  0  0  0  0
    3.4641   -1.3955    1.9532 N   0  0  0  0  0  0  0  0  0  0  0  0
    2.8730   -2.5442    1.2454 C   0  0  1  0  0  0  0  0  0  0  0  0
    3.8931   -3.1465    0.2676 C   0  0  0  0  0  0  0  0  0  0  0  0
    2.4952   -3.4943    2.3484 C   0  0  0  0  0  0  0  0  0  0  0  0
    2.5597   -2.8936    3.5284 C   0  0  0  0  0  0  0  0  0  0  0  0
    3.0443   -1.4803    3.3725 C   0  0  2  0  0  0  0  0  0  0  0  0
   -2.0268    2.8073    5.5607 N   0  0  0  0  0  0  0  0  0  0  0  0
   -2.9852    3.3480    6.4257 O   0  0  0  0  0  0  0  0  0  0  0  0
   -3.6927    2.3040    9.5320 H   0  0  0  0  0  0  0  0  0  0  0  0
   -4.8997    2.8791    8.3564 H   0  0  0  0  0  0  0  0  0  0  0  0
   -3.6840    3.9871    8.9978 H   0  0  0  0  0  0  0  0  0  0  0  0
    1.1363    2.1721    1.4499 H   0  0  0  0  0  0  0  0  0  0  0  0
   -0.4230    2.6395    3.3553 H   0  0  0  0  0  0  0  0  0  0  0  0
    2.6320   -0.1467    0.4307 H   0  0  0  0  0  0  0  0  0  0  0  0
    3.8660    0.6095    1.4516 H   0  0  0  0  0  0  0  0  0  0  0  0
    1.9553   -2.2658    0.7233 H   0  0  0  0  0  0  0  0  0  0  0  0
    3.4830   -4.0198   -0.2415 H   0  0  0  0  0  0  0  0  0  0  0  0
    4.8061   -3.4582    0.7754 H   0  0  0  0  0  0  0  0  0  0  0  0
    4.1682   -2.4223   -0.4977 H   0  0  0  0  0  0  0  0  0  0  0  0
    2.1951   -4.5167    2.1753 H   0  0  0  0  0  0  0  0  0  0  0  0
    2.3171   -3.3396    4.4822 H   0  0  0  0  0  0  0  0  0  0  0  0
    3.8862   -1.2748    4.0342 H   0  0  0  0  0  0  0  0  0  0  0  0
  1  2  1  0
  1 23  1  0
  1 24  1  0
  1 25  1  0
  2 22  1  0
  2  3  2  0
  3  4  1  0
  4  5  1  0
  4 21  2  0
  5 13  1  0
  5  6  2  0
  6  7  1  0
  7  8  1  0
  8 13  2  0
  8  9  1  0
  9 20  1  0
  9 10  2  0
 10 11  1  0
 10 14  1  0
 11 12  2  0
 11 26  1  0
 12 13  1  0
 12 27  1  0
 14 15  1  0
 14 28  1  0
 14 29  1  0
 15 20  1  0
 15 16  1  0
 16 17  1  0
 16 18  1  0
 16 30  1  6
 17 31  1  0
 17 32  1  0
 17 33  1  0
 18 19  2  0
 18 34  1  0
 19 20  1  0
 19 35  1  0
 20 36  1  1
 21 22  1  0
M  END
>  <i_m_ct_stereo_status>  (73) 
1

>  <s_m_source_file>  (73) 
/var/tmp/pbs.5076255.sched01/tmphrtf3o8j/0_qqz9eae.sdf

>  <i_m_source_file_index>  (73) 
33

>  <i_lp_mmshare_version>  (73) 
48012

>  <i_f3d_flags>  (73) 
0

>  <s_epik_input>  (73) 
W0NIM11jMW5jKG5vMSktYyhubzIpYzNbY0hdW2NIXWMoYzRjMjMpW0NIMl1ONVtDQEBIXTRbQ0hdPVtDSF1bQ0BASF01W0NIM10=

>  <s_epik_cmdline>  (73) 
J2VwaWtfcHl0aG9uJywgJy1waHQnLCAnMi4wJywgJy1waCcsICc3LjAnLCAnLXRuJywgJzgnLCAnLW1hJywgJzIwMCcsICctaW1hZScsICc8aW5maWxlLm1hZT4nLCAnLW9tYWUnLCAnPG91dGZpbGUubWFlPic=

>  <r_lp_tautomer_probability>  (73) 
1

>  <r_epik_Ionization_Penalty>  (73) 
2.30419

>  <r_epik_Ionization_Penalty_Charging>  (73) 
0

>  <r_epik_Ionization_Penalty_Neutral>  (73) 
2.30419

>  <r_epik_State_Penalty>  (73) 
2.45516

>  <r_epik_Charging_Adjusted_Penalty>  (73) 
2.45516

>  <i_epik_Tot_Q>  (73) 
0

>  <i_epik_Tot_abs_Q>  (73) 
0

>  <s_lp_Force_Field>  (73) 
OPLS3e

>  <r_lp_Energy>  (73) 
22.2225

>  <b_lp_Chiralities_Consistent>  (73) 
1

>  <s_lp_Variant>  (73) 
26:0-2

>  <s_i_glide_gridfile>  (73) 
pfpi4k_grid

>  <i_i_glide_lignum>  (73) 
33

>  <i_i_glide_rotatable_bonds>  (73) 
1

>  <r_i_docking_score>  (73) 
-2.99437

>  <r_i_glide_ligand_efficiency>  (73) 
-0.136108

>  <r_i_glide_ligand_efficiency_sa>  (73) 
-0.381379

>  <r_i_glide_ligand_efficiency_ln>  (73) 
-0.731933

>  <r_i_glide_gscore>  (73) 
-2.99437

>  <r_i_glide_lipo>  (73) 
-0.168574

>  <r_i_glide_hbond>  (73) 
-0.0623707

>  <r_i_glide_metal>  (73) 
-0

>  <r_i_glide_rewards>  (73) 
-1.40245

>  <r_i_glide_evdw>  (73) 
-21.1652

>  <r_i_glide_ecoul>  (73) 
-3.08834

>  <r_i_glide_erotb>  (73) 
0.21112

>  <r_i_glide_esite>  (73) 
-0.0505865

>  <r_i_glide_emodel>  (73) 
-29.2076

>  <r_i_glide_energy>  (73) 
-24.2535

>  <r_i_glide_einternal>  (73) 
0.0457705

>  <r_i_glide_intrahb_reward>  (73) 
-0

>  <i_i_glide_confnum>  (73) 
2

>  <i_i_glide_posenum>  (73) 
14

>  <r_i_glide_eff_state_penalty>  (73) 
0

>  <ligand_id>  (73) 
26

>  <original_smiles>  (73) 
Cc1nc(-c2noc3c4c(ccc23)CN2C(C)C=CC42)no1

>  <smiles>  (73) 
[H]C1=C([H])C([H])(C([H])([H])[H])N2C([H])([H])c3c([H])c([H])c4c(-c5noc(C([H])([H])[H])n5)noc4c3C12[H]

$$$$
26:1:2
     RDKit          3D

 36 40  0  0  1  0  0  0  0  0999 V2000
   -1.3306   -5.0804    8.0936 C   0  0  0  0  0  0  0  0  0  0  0  0
   -0.7217   -4.3226    6.9677 C   0  0  0  0  0  0  0  0  0  0  0  0
    0.0699   -4.7900    6.0077 N   0  0  0  0  0  0  0  0  0  0  0  0
    0.2990   -3.6490    5.2938 C   0  0  0  0  0  0  0  0  0  0  0  0
    1.1707   -3.6488    4.1040 C   0  0  0  0  0  0  0  0  0  0  0  0
    1.4182   -4.8093    3.4660 N   0  0  0  0  0  0  0  0  0  0  0  0
    2.2680   -4.5551    2.3496 O   0  0  0  0  0  0  0  0  0  0  0  0
    2.5103   -3.2187    2.3612 C   0  0  0  0  0  0  0  0  0  0  0  0
    3.2868   -2.4481    1.4836 C   0  0  0  0  0  0  0  0  0  0  0  0
    3.4012   -1.0846    1.6877 C   0  0  0  0  0  0  0  0  0  0  0  0
    2.7642   -0.4322    2.7719 C   0  0  0  0  0  0  0  0  0  0  0  0
    1.9752   -1.2141    3.6566 C   0  0  0  0  0  0  0  0  0  0  0  0
    1.8649   -2.6084    3.4179 C   0  0  0  0  0  0  0  0  0  0  0  0
    4.3150   -0.5134    0.6353 C   0  0  0  0  0  0  0  0  0  0  0  0
    4.5126   -1.5904   -0.3529 N   0  0  0  0  0  0  0  0  0  0  0  0
    3.6953   -1.4544   -1.5717 C   0  0  1  0  0  0  0  0  0  0  0  0
    4.5572   -0.9300   -2.7254 C   0  0  0  0  0  0  0  0  0  0  0  0
    3.1712   -2.8422   -1.8205 C   0  0  0  0  0  0  0  0  0  0  0  0
    3.3812   -3.6149   -0.7647 C   0  0  0  0  0  0  0  0  0  0  0  0
    4.1206   -2.8611    0.3034 C   0  0  2  0  0  0  0  0  0  0  0  0
   -0.2742   -2.5410    5.7454 N   0  0  0  0  0  0  0  0  0  0  0  0
   -0.9811   -2.9951    6.8718 O   0  0  0  0  0  0  0  0  0  0  0  0
   -1.0007   -6.1177    8.0634 H   0  0  0  0  0  0  0  0  0  0  0  0
   -2.4186   -5.0475    8.0232 H   0  0  0  0  0  0  0  0  0  0  0  0
   -1.0259   -4.6491    9.0473 H   0  0  0  0  0  0  0  0  0  0  0  0
    2.8832    0.6306    2.9292 H   0  0  0  0  0  0  0  0  0  0  0  0
    1.4782   -0.7557    4.4996 H   0  0  0  0  0  0  0  0  0  0  0  0
    3.9041    0.3928    0.1941 H   0  0  0  0  0  0  0  0  0  0  0  0
    5.2727   -0.2634    1.0918 H   0  0  0  0  0  0  0  0  0  0  0  0
    2.8354   -0.8033   -1.4171 H   0  0  0  0  0  0  0  0  0  0  0  0
    3.9760   -0.8522   -3.6451 H   0  0  0  0  0  0  0  0  0  0  0  0
    5.4022   -1.5906   -2.9144 H   0  0  0  0  0  0  0  0  0  0  0  0
    4.9400    0.0632   -2.4973 H   0  0  0  0  0  0  0  0  0  0  0  0
    2.6727   -3.1409   -2.7320 H   0  0  0  0  0  0  0  0  0  0  0  0
    3.0853   -4.6508   -0.6735 H   0  0  0  0  0  0  0  0  0  0  0  0
    5.0014   -3.4115    0.6350 H   0  0  0  0  0  0  0  0  0  0  0  0
  1  2  1  0
  1 23  1  0
  1 24  1  0
  1 25  1  0
  2 22  1  0
  2  3  2  0
  3  4  1  0
  4  5  1  0
  4 21  2  0
  5 13  1  0
  5  6  2  0
  6  7  1  0
  7  8  1  0
  8 13  2  0
  8  9  1  0
  9 20  1  0
  9 10  2  0
 10 11  1  0
 10 14  1  0
 11 12  2  0
 11 26  1  0
 12 13  1  0
 12 27  1  0
 14 15  1  0
 14 28  1  0
 14 29  1  0
 15 20  1  0
 15 16  1  0
 16 17  1  0
 16 18  1  0
 16 30  1  1
 17 31  1  0
 17 32  1  0
 17 33  1  0
 18 19  2  0
 18 34  1  0
 19 20  1  0
 19 35  1  0
 20 36  1  1
 21 22  1  0
M  END
>  <i_m_ct_stereo_status>  (74) 
1

>  <s_m_source_file>  (74) 
/var/tmp/pbs.5076255.sched01/tmphrtf3o8j/0_qqz9eae.sdf

>  <i_m_source_file_index>  (74) 
33

>  <i_lp_mmshare_version>  (74) 
48012

>  <i_f3d_flags>  (74) 
0

>  <s_epik_input>  (74) 
W0NIM11jMW5jKG5vMSktYyhubzIpYzNbY0hdW2NIXWMoYzRjMjMpW0NIMl1ONVtDQEBIXTRbQ0hdPVtDSF1bQ0BASF01W0NIM10=

>  <s_epik_cmdline>  (74) 
J2VwaWtfcHl0aG9uJywgJy1waHQnLCAnMi4wJywgJy1waCcsICc3LjAnLCAnLXRuJywgJzgnLCAnLW1hJywgJzIwMCcsICctaW1hZScsICc8aW5maWxlLm1hZT4nLCAnLW9tYWUnLCAnPG91dGZpbGUubWFlPic=

>  <r_lp_tautomer_probability>  (74) 
1

>  <r_epik_Ionization_Penalty>  (74) 
2.30419

>  <r_epik_Ionization_Penalty_Charging>  (74) 
0

>  <r_epik_Ionization_Penalty_Neutral>  (74) 
2.30419

>  <r_epik_State_Penalty>  (74) 
2.45516

>  <r_epik_Charging_Adjusted_Penalty>  (74) 
2.45516

>  <i_epik_Tot_Q>  (74) 
0

>  <i_epik_Tot_abs_Q>  (74) 
0

>  <s_lp_Force_Field>  (74) 
OPLS3e

>  <r_lp_Energy>  (74) 
22.2225

>  <b_lp_Chiralities_Consistent>  (74) 
1

>  <s_lp_Variant>  (74) 
26:0-2

>  <s_i_glide_gridfile>  (74) 
pfpi4k_grid

>  <i_i_glide_lignum>  (74) 
33

>  <i_i_glide_rotatable_bonds>  (74) 
1

>  <r_i_docking_score>  (74) 
-2.88622

>  <r_i_glide_ligand_efficiency>  (74) 
-0.131192

>  <r_i_glide_ligand_efficiency_sa>  (74) 
-0.367605

>  <r_i_glide_ligand_efficiency_ln>  (74) 
-0.705498

>  <r_i_glide_gscore>  (74) 
-2.88622

>  <r_i_glide_lipo>  (74) 
-0.194947

>  <r_i_glide_hbond>  (74) 
0

>  <r_i_glide_metal>  (74) 
-0

>  <r_i_glide_rewards>  (74) 
-1.40245

>  <r_i_glide_evdw>  (74) 
-21.6798

>  <r_i_glide_ecoul>  (74) 
-2.06766

>  <r_i_glide_erotb>  (74) 
0.21112

>  <r_i_glide_esite>  (74) 
-0.105811

>  <r_i_glide_emodel>  (74) 
-28.1168

>  <r_i_glide_energy>  (74) 
-23.7475

>  <r_i_glide_einternal>  (74) 
0.734201

>  <r_i_glide_intrahb_reward>  (74) 
-0

>  <i_i_glide_confnum>  (74) 
2

>  <i_i_glide_posenum>  (74) 
10

>  <r_i_glide_eff_state_penalty>  (74) 
0

>  <ligand_id>  (74) 
26

>  <original_smiles>  (74) 
Cc1nc(-c2noc3c4c(ccc23)CN2C(C)C=CC42)no1

>  <smiles>  (74) 
[H]C1=C([H])C([H])(C([H])([H])[H])N2C([H])([H])c3c([H])c([H])c4c(-c5noc(C([H])([H])[H])n5)noc4c3C12[H]

$$$$
27:0:0
     RDKit          3D

 49 54  0  0  1  0  0  0  0  0999 V2000
    5.2740   -0.5537    0.8448 C   0  0  0  0  0  0  0  0  0  0  0  0
    4.3747   -1.5811    0.1852 C   0  0  0  0  0  0  0  0  0  0  0  0
    3.6836   -2.6473    0.7418 C   0  0  0  0  0  0  0  0  0  0  0  0
    3.5789   -3.1862    2.1513 C   0  0  2  0  0  0  0  0  0  0  0  0
    4.1347   -2.2826    3.0632 O   0  0  0  0  0  0  0  0  0  0  0  0
    4.0386   -4.6579    2.3759 C   0  0  2  0  0  0  0  0  0  0  0  0
    5.1718   -5.0939    1.6124 O   0  0  0  0  0  0  0  0  0  0  0  0
    3.9053   -5.6548    1.2029 C   0  0  1  0  0  0  0  0  0  0  0  0
    3.6197   -7.0348    1.4946 O   0  0  0  0  0  0  0  0  0  0  0  0
    2.5852   -7.3484    2.4495 C   0  0  2  0  0  0  0  0  0  0  0  0
    2.0514   -8.6896    1.9235 C   0  0  0  0  0  0  0  0  0  0  0  0
    1.4317   -6.2865    2.4116 C   0  0  0  0  0  0  0  0  0  0  0  0
    0.5325   -6.3117    1.5732 O   0  0  0  0  0  0  0  0  0  0  0  0
    1.5333   -5.2959    3.3431 O   0  0  0  0  0  0  0  0  0  0  0  0
    2.5126   -5.3522    4.3891 C   0  0  1  0  0  0  0  0  0  0  0  0
    2.4544   -6.7866    4.9482 C   0  0  0  0  0  0  0  0  0  0  0  0
    3.2730   -7.4806    3.8572 C   0  0  2  0  0  0  0  0  0  0  0  0
    4.5287   -6.6065    3.9572 C   0  0  0  0  0  0  0  0  0  0  0  0
    3.9809   -5.1614    3.8711 C   0  0  1  0  0  0  0  0  0  0  0  0
    4.8046   -4.3041    4.8775 C   0  0  0  0  0  0  0  0  0  0  0  0
    2.8842   -3.2647   -0.1942 O   0  0  0  0  0  0  0  0  0  0  0  0
    3.1523   -2.6831   -1.4048 C   0  0  0  0  0  0  0  0  0  0  0  0
    2.6528   -3.0455   -2.6564 C   0  0  0  0  0  0  0  0  0  0  0  0
    3.0077   -2.2712   -3.7697 C   0  0  0  0  0  0  0  0  0  0  0  0
    3.8598   -1.1505   -3.6213 C   0  0  0  0  0  0  0  0  0  0  0  0
    4.3778   -0.8239   -2.3577 C   0  0  0  0  0  0  0  0  0  0  0  0
    4.0447   -1.5975   -1.2142 C   0  0  0  0  0  0  0  0  0  0  0  0
    5.4590   -0.7015    1.9072 H   0  0  0  0  0  0  0  0  0  0  0  0
    4.8328    0.4425    0.7384 H   0  0  0  0  0  0  0  0  0  0  0  0
    6.2562   -0.5437    0.3693 H   0  0  0  0  0  0  0  0  0  0  0  0
    2.5127   -3.1606    2.3773 H   0  0  0  0  0  0  0  0  0  0  0  0
    3.7536   -1.4387    2.8693 H   0  0  0  0  0  0  0  0  0  0  0  0
    3.7163   -5.4274    0.1702 H   0  0  0  0  0  0  0  0  0  0  0  0
    1.2516   -9.0796    2.5518 H   0  0  0  0  0  0  0  0  0  0  0  0
    2.8382   -9.4413    1.8656 H   0  0  0  0  0  0  0  0  0  0  0  0
    1.6482   -8.5812    0.9158 H   0  0  0  0  0  0  0  0  0  0  0  0
    2.2641   -4.6211    5.1637 H   0  0  0  0  0  0  0  0  0  0  0  0
    2.9554   -6.8596    5.9162 H   0  0  0  0  0  0  0  0  0  0  0  0
    1.4458   -7.1875    5.0637 H   0  0  0  0  0  0  0  0  0  0  0  0
    3.4980   -8.5218    4.0952 H   0  0  0  0  0  0  0  0  0  0  0  0
    5.0029   -6.7860    4.9229 H   0  0  0  0  0  0  0  0  0  0  0  0
    5.3056   -6.8638    3.2393 H   0  0  0  0  0  0  0  0  0  0  0  0
    4.9106   -4.7888    5.8546 H   0  0  0  0  0  0  0  0  0  0  0  0
    4.3310   -3.3479    5.0963 H   0  0  0  0  0  0  0  0  0  0  0  0
    5.8034   -4.1099    4.4803 H   0  0  0  0  0  0  0  0  0  0  0  0
    1.9800   -3.8837   -2.7632 H   0  0  0  0  0  0  0  0  0  0  0  0
    2.5823   -2.5216   -4.7168 H   0  0  0  0  0  0  0  0  0  0  0  0
    4.0964   -0.5300   -4.4707 H   0  0  0  0  0  0  0  0  0  0  0  0
    5.0116    0.0379   -2.2301 H   0  0  0  0  0  0  0  0  0  0  0  0
  1  2  1  0
  1 28  1  0
  1 29  1  0
  1 30  1  0
  2 27  1  0
  2  3  2  0
  3  4  1  0
  3 21  1  0
  4  5  1  0
  4  6  1  0
  4 31  1  1
  5 32  1  0
  6  8  1  0
  6 19  1  0
  6  7  1  6
  7  8  1  0
  8  9  1  0
  8 33  1  6
  9 10  1  0
 10 17  1  0
 10 11  1  6
 10 12  1  0
 11 34  1  0
 11 35  1  0
 11 36  1  0
 12 13  2  0
 12 14  1  0
 14 15  1  0
 15 19  1  0
 15 16  1  0
 15 37  1  1
 16 17  1  0
 16 38  1  0
 16 39  1  0
 17 18  1  0
 17 40  1  1
 18 19  1  0
 18 41  1  0
 18 42  1  0
 19 20  1  1
 20 43  1  0
 20 44  1  0
 20 45  1  0
 21 22  1  0
 22 27  2  0
 22 23  1  0
 23 24  2  0
 23 46  1  0
 24 25  1  0
 24 47  1  0
 25 26  2  0
 25 48  1  0
 26 27  1  0
 26 49  1  0
M  END
>  <i_m_ct_stereo_status>  (75) 
1

>  <s_m_source_file>  (75) 
/var/tmp/pbs.5076255.sched01/tmphrtf3o8j/0_qqz9eae.sdf

>  <i_m_source_file_index>  (75) 
34

>  <i_lp_mmshare_version>  (75) 
48012

>  <i_f3d_flags>  (75) 
0

>  <s_epik_input>  (75) 
W2NIXTFbY0hdW2NIXVtjSF1jKGMxMiljKFtDSDNdKWMobzIpW0NASF0oW09IXSlbQ0BAXTM0W0NAQEhdKE8zKU9bQ0BAXTUoW0NIM10pW0NAQEhdNltDSDJdW0NASF0oT0M1PU8pW0NAXTQoW0NIMl02KVtDSDNd

>  <s_epik_cmdline>  (75) 
J2VwaWtfcHl0aG9uJywgJy1waHQnLCAnMi4wJywgJy1waCcsICc3LjAnLCAnLXRuJywgJzgnLCAnLW1hJywgJzIwMCcsICctaW1hZScsICc8aW5maWxlLm1hZT4nLCAnLW9tYWUnLCAnPG91dGZpbGUubWFlPic=

>  <r_lp_tautomer_probability>  (75) 
1

>  <r_epik_Ionization_Penalty>  (75) 
2.99354e-07

>  <r_epik_Ionization_Penalty_Charging>  (75) 
0

>  <r_epik_Ionization_Penalty_Neutral>  (75) 
2.99354e-07

>  <r_epik_State_Penalty>  (75) 
-0

>  <r_epik_Charging_Adjusted_Penalty>  (75) 
0

>  <i_epik_Tot_Q>  (75) 
0

>  <i_epik_Tot_abs_Q>  (75) 
0

>  <s_epik_Chemistry_Notes>  (75) 
This compound has an ester and may undergo hydrolysis at high or low pH. This compound contains an acetal/aminal-like group ( X-CH(R)-Y where X, Y are N, S, or O) that may be acid/base labile, releasing an aldehyde.

>  <s_lp_Force_Field>  (75) 
OPLS3e

>  <r_lp_Energy>  (75) 
63.4077

>  <b_lp_Chiralities_Consistent>  (75) 
1

>  <s_lp_Variant>  (75) 
27:0-1

>  <s_i_glide_gridfile>  (75) 
pfpi4k_grid

>  <i_i_glide_lignum>  (75) 
34

>  <i_i_glide_rotatable_bonds>  (75) 
3

>  <r_i_docking_score>  (75) 
-3.4574

>  <r_i_glide_ligand_efficiency>  (75) 
-0.128052

>  <r_i_glide_ligand_efficiency_sa>  (75) 
-0.384155

>  <r_i_glide_ligand_efficiency_ln>  (75) 
-0.804825

>  <r_i_glide_gscore>  (75) 
-3.4574

>  <r_i_glide_lipo>  (75) 
-0.580242

>  <r_i_glide_hbond>  (75) 
-0.162236

>  <r_i_glide_metal>  (75) 
-0

>  <r_i_glide_rewards>  (75) 
-0.931637

>  <r_i_glide_evdw>  (75) 
-26.0252

>  <r_i_glide_ecoul>  (75) 
-4.8444

>  <r_i_glide_erotb>  (75) 
0.281233

>  <r_i_glide_esite>  (75) 
-0.0365941

>  <r_i_glide_emodel>  (75) 
-36.3557

>  <r_i_glide_energy>  (75) 
-30.8696

>  <r_i_glide_einternal>  (75) 
1.80645

>  <r_i_glide_intrahb_reward>  (75) 
-0

>  <i_i_glide_confnum>  (75) 
3

>  <i_i_glide_posenum>  (75) 
27

>  <r_i_glide_eff_state_penalty>  (75) 
0

>  <ligand_id>  (75) 
27

>  <original_smiles>  (75) 
Cc1c(C(O)C23OC2OC2(C)C(=O)OC4CC2CC43C)oc2ccccc12

>  <smiles>  (75) 
[H]OC([H])(c1oc2c([H])c([H])c([H])c([H])c2c1C([H])([H])[H])C12OC1([H])OC1(C([H])([H])[H])C(=O)OC3([H])C([H])([H])C1([H])C([H])([H])C32C([H])([H])[H]

$$$$
27:0:1
     RDKit          3D

 49 54  0  0  1  0  0  0  0  0999 V2000
    4.6933   -8.7407    0.8846 C   0  0  0  0  0  0  0  0  0  0  0  0
    3.7043   -8.0529    1.7751 C   0  0  0  0  0  0  0  0  0  0  0  0
    3.6175   -6.7207    2.1070 C   0  0  0  0  0  0  0  0  0  0  0  0
    4.4586   -5.5207    1.7485 C   0  0  2  0  0  0  0  0  0  0  0  0
    5.3075   -5.1511    2.8220 O   0  0  0  0  0  0  0  0  0  0  0  0
    3.6465   -4.3580    1.1384 C   0  0  2  0  0  0  0  0  0  0  0  0
    2.4740   -4.7154    0.3826 O   0  0  0  0  0  0  0  0  0  0  0  0
    3.6205   -4.3071   -0.3944 C   0  0  1  0  0  0  0  0  0  0  0  0
    3.5314   -3.0274   -1.0293 O   0  0  0  0  0  0  0  0  0  0  0  0
    4.3898   -1.9549   -0.5773 C   0  0  2  0  0  0  0  0  0  0  0  0
    4.6252   -1.1119   -1.8436 C   0  0  0  0  0  0  0  0  0  0  0  0
    5.7649   -2.5084   -0.0999 C   0  0  0  0  0  0  0  0  0  0  0  0
    6.6610   -2.7579   -0.8997 O   0  0  0  0  0  0  0  0  0  0  0  0
    5.8500   -2.7348    1.2464 O   0  0  0  0  0  0  0  0  0  0  0  0
    4.8317   -2.2776    2.1503 C   0  0  1  0  0  0  0  0  0  0  0  0
    4.5308   -0.8314    1.7262 C   0  0  0  0  0  0  0  0  0  0  0  0
    3.6304   -1.1462    0.5296 C   0  0  2  0  0  0  0  0  0  0  0  0
    2.6140   -2.0235    1.2648 C   0  0  0  0  0  0  0  0  0  0  0  0
    3.4854   -3.0697    2.0046 C   0  0  1  0  0  0  0  0  0  0  0  0
    2.8122   -3.3592    3.3753 C   0  0  0  0  0  0  0  0  0  0  0  0
    2.5890   -6.4888    2.9862 O   0  0  0  0  0  0  0  0  0  0  0  0
    1.9658   -7.7009    3.2180 C   0  0  0  0  0  0  0  0  0  0  0  0
    0.8572   -7.9478    4.0336 C   0  0  0  0  0  0  0  0  0  0  0  0
    0.3607   -9.2654    4.1409 C   0  0  0  0  0  0  0  0  0  0  0  0
    1.0071  -10.3023    3.4349 C   0  0  0  0  0  0  0  0  0  0  0  0
    2.1313  -10.0259    2.6256 C   0  0  0  0  0  0  0  0  0  0  0  0
    2.6370   -8.7113    2.4830 C   0  0  0  0  0  0  0  0  0  0  0  0
    5.4340   -8.0495    0.4848 H   0  0  0  0  0  0  0  0  0  0  0  0
    4.1848   -9.2197    0.0506 H   0  0  0  0  0  0  0  0  0  0  0  0
    5.2259   -9.5294    1.4164 H   0  0  0  0  0  0  0  0  0  0  0  0
    5.1483   -5.8287    0.9589 H   0  0  0  0  0  0  0  0  0  0  0  0
    5.7713   -5.9161    3.1374 H   0  0  0  0  0  0  0  0  0  0  0  0
    4.0431   -5.0971   -1.0174 H   0  0  0  0  0  0  0  0  0  0  0  0
    5.2836   -0.2617   -1.6550 H   0  0  0  0  0  0  0  0  0  0  0  0
    3.6892   -0.7352   -2.2542 H   0  0  0  0  0  0  0  0  0  0  0  0
    5.0914   -1.7116   -2.6274 H   0  0  0  0  0  0  0  0  0  0  0  0
    5.1996   -2.3199    3.1766 H   0  0  0  0  0  0  0  0  0  0  0  0
    3.9827   -0.3039    2.5052 H   0  0  0  0  0  0  0  0  0  0  0  0
    5.4182   -0.2448    1.4824 H   0  0  0  0  0  0  0  0  0  0  0  0
    3.1474   -0.2574    0.1180 H   0  0  0  0  0  0  0  0  0  0  0  0
    2.0631   -1.4030    1.9732 H   0  0  0  0  0  0  0  0  0  0  0  0
    1.8356   -2.4259    0.6157 H   0  0  0  0  0  0  0  0  0  0  0  0
    2.6141   -2.4353    3.9238 H   0  0  0  0  0  0  0  0  0  0  0  0
    3.4232   -3.9612    4.0448 H   0  0  0  0  0  0  0  0  0  0  0  0
    1.8664   -3.8901    3.2452 H   0  0  0  0  0  0  0  0  0  0  0  0
    0.3929   -7.1367    4.5706 H   0  0  0  0  0  0  0  0  0  0  0  0
   -0.4997   -9.4770    4.7609 H   0  0  0  0  0  0  0  0  0  0  0  0
    0.6357  -11.3186    3.5164 H   0  0  0  0  0  0  0  0  0  0  0  0
    2.6242  -10.8271    2.0879 H   0  0  0  0  0  0  0  0  0  0  0  0
  1  2  1  0
  1 28  1  0
  1 29  1  0
  1 30  1  0
  2 27  1  0
  2  3  2  0
  3  4  1  0
  3 21  1  0
  4  5  1  0
  4  6  1  0
  4 31  1  6
  5 32  1  0
  6  8  1  0
  6 19  1  0
  6  7  1  1
  7  8  1  0
  8  9  1  0
  8 33  1  6
  9 10  1  0
 10 17  1  0
 10 11  1  6
 10 12  1  0
 11 34  1  0
 11 35  1  0
 11 36  1  0
 12 13  2  0
 12 14  1  0
 14 15  1  0
 15 19  1  0
 15 16  1  0
 15 37  1  1
 16 17  1  0
 16 38  1  0
 16 39  1  0
 17 18  1  0
 17 40  1  6
 18 19  1  0
 18 41  1  0
 18 42  1  0
 19 20  1  1
 20 43  1  0
 20 44  1  0
 20 45  1  0
 21 22  1  0
 22 27  2  0
 22 23  1  0
 23 24  2  0
 23 46  1  0
 24 25  1  0
 24 47  1  0
 25 26  2  0
 25 48  1  0
 26 27  1  0
 26 49  1  0
M  END
>  <i_m_ct_stereo_status>  (76) 
1

>  <s_m_source_file>  (76) 
/var/tmp/pbs.5076255.sched01/tmphrtf3o8j/0_qqz9eae.sdf

>  <i_m_source_file_index>  (76) 
34

>  <i_lp_mmshare_version>  (76) 
48012

>  <i_f3d_flags>  (76) 
0

>  <s_epik_input>  (76) 
W2NIXTFbY0hdW2NIXVtjSF1jKGMxMiljKFtDSDNdKWMobzIpW0NASF0oW09IXSlbQ0BAXTM0W0NAQEhdKE8zKU9bQ0BAXTUoW0NIM10pW0NAQEhdNltDSDJdW0NASF0oT0M1PU8pW0NAXTQoW0NIMl02KVtDSDNd

>  <s_epik_cmdline>  (76) 
J2VwaWtfcHl0aG9uJywgJy1waHQnLCAnMi4wJywgJy1waCcsICc3LjAnLCAnLXRuJywgJzgnLCAnLW1hJywgJzIwMCcsICctaW1hZScsICc8aW5maWxlLm1hZT4nLCAnLW9tYWUnLCAnPG91dGZpbGUubWFlPic=

>  <r_lp_tautomer_probability>  (76) 
1

>  <r_epik_Ionization_Penalty>  (76) 
2.99354e-07

>  <r_epik_Ionization_Penalty_Charging>  (76) 
0

>  <r_epik_Ionization_Penalty_Neutral>  (76) 
2.99354e-07

>  <r_epik_State_Penalty>  (76) 
-0

>  <r_epik_Charging_Adjusted_Penalty>  (76) 
0

>  <i_epik_Tot_Q>  (76) 
0

>  <i_epik_Tot_abs_Q>  (76) 
0

>  <s_epik_Chemistry_Notes>  (76) 
This compound has an ester and may undergo hydrolysis at high or low pH. This compound contains an acetal/aminal-like group ( X-CH(R)-Y where X, Y are N, S, or O) that may be acid/base labile, releasing an aldehyde.

>  <s_lp_Force_Field>  (76) 
OPLS3e

>  <r_lp_Energy>  (76) 
63.4077

>  <b_lp_Chiralities_Consistent>  (76) 
1

>  <s_lp_Variant>  (76) 
27:0-1

>  <s_i_glide_gridfile>  (76) 
pfpi4k_grid

>  <i_i_glide_lignum>  (76) 
34

>  <i_i_glide_rotatable_bonds>  (76) 
3

>  <r_i_docking_score>  (76) 
-2.55115

>  <r_i_glide_ligand_efficiency>  (76) 
-0.094487

>  <r_i_glide_ligand_efficiency_sa>  (76) 
-0.283461

>  <r_i_glide_ligand_efficiency_ln>  (76) 
-0.593865

>  <r_i_glide_gscore>  (76) 
-2.55115

>  <r_i_glide_lipo>  (76) 
-0.326471

>  <r_i_glide_hbond>  (76) 
0

>  <r_i_glide_metal>  (76) 
-0

>  <r_i_glide_rewards>  (76) 
-0.888965

>  <r_i_glide_evdw>  (76) 
-25.3262

>  <r_i_glide_ecoul>  (76) 
-2.1381

>  <r_i_glide_erotb>  (76) 
0.281233

>  <r_i_glide_esite>  (76) 
-0.0299196

>  <r_i_glide_emodel>  (76) 
-30.8459

>  <r_i_glide_energy>  (76) 
-27.4643

>  <r_i_glide_einternal>  (76) 
2.96632

>  <r_i_glide_intrahb_reward>  (76) 
-0

>  <i_i_glide_confnum>  (76) 
5

>  <i_i_glide_posenum>  (76) 
7

>  <r_i_glide_eff_state_penalty>  (76) 
0

>  <ligand_id>  (76) 
27

>  <original_smiles>  (76) 
Cc1c(C(O)C23OC2OC2(C)C(=O)OC4CC2CC43C)oc2ccccc12

>  <smiles>  (76) 
[H]OC([H])(c1oc2c([H])c([H])c([H])c([H])c2c1C([H])([H])[H])C12OC1([H])OC1(C([H])([H])[H])C(=O)OC3([H])C([H])([H])C1([H])C([H])([H])C32C([H])([H])[H]

$$$$
27:0:2
     RDKit          3D

 49 54  0  0  1  0  0  0  0  0999 V2000
    3.3622   -9.0402    1.3506 C   0  0  0  0  0  0  0  0  0  0  0  0
    2.4414   -8.0557    2.0068 C   0  0  0  0  0  0  0  0  0  0  0  0
    2.6317   -6.7152    2.2563 C   0  0  0  0  0  0  0  0  0  0  0  0
    3.7845   -5.7930    2.0216 C   0  0  2  0  0  0  0  0  0  0  0  0
    4.4522   -5.5020    3.2304 O   0  0  0  0  0  0  0  0  0  0  0  0
    3.4434   -4.5581    1.1597 C   0  0  2  0  0  0  0  0  0  0  0  0
    2.5033   -4.7692    0.0981 O   0  0  0  0  0  0  0  0  0  0  0  0
    3.8857   -4.6489   -0.3042 C   0  0  1  0  0  0  0  0  0  0  0  0
    4.2393   -3.4199   -0.9644 O   0  0  0  0  0  0  0  0  0  0  0  0
    5.1080   -2.4808   -0.2957 C   0  0  2  0  0  0  0  0  0  0  0  0
    5.8726   -1.8024   -1.4442 C   0  0  0  0  0  0  0  0  0  0  0  0
    6.1428   -3.2102    0.6189 C   0  0  0  0  0  0  0  0  0  0  0  0
    7.1746   -3.6868    0.1584 O   0  0  0  0  0  0  0  0  0  0  0  0
    5.7616   -3.3274    1.9245 O   0  0  0  0  0  0  0  0  0  0  0  0
    4.6260   -2.6184    2.4364 C   0  0  1  0  0  0  0  0  0  0  0  0
    4.7408   -1.1865    1.8975 C   0  0  0  0  0  0  0  0  0  0  0  0
    4.2121   -1.4460    0.4852 C   0  0  2  0  0  0  0  0  0  0  0  0
    2.8742   -2.0799    0.8840 C   0  0  0  0  0  0  0  0  0  0  0  0
    3.2754   -3.1904    1.8913 C   0  0  1  0  0  0  0  0  0  0  0  0
    2.1955   -3.2543    2.9940 C   0  0  0  0  0  0  0  0  0  0  0  0
    1.5628   -6.1662    2.9105 O   0  0  0  0  0  0  0  0  0  0  0  0
    0.6289   -7.1558    3.0789 C   0  0  0  0  0  0  0  0  0  0  0  0
   -0.6243   -7.0389    3.6778 C   0  0  0  0  0  0  0  0  0  0  0  0
   -1.4580   -8.1708    3.7224 C   0  0  0  0  0  0  0  0  0  0  0  0
   -0.9903   -9.3872    3.1871 C   0  0  0  0  0  0  0  0  0  0  0  0
    0.2919   -9.4889    2.6180 C   0  0  0  0  0  0  0  0  0  0  0  0
    1.1388   -8.3594    2.5248 C   0  0  0  0  0  0  0  0  0  0  0  0
    4.3139   -8.5967    1.0634 H   0  0  0  0  0  0  0  0  0  0  0  0
    2.8978   -9.4627    0.4618 H   0  0  0  0  0  0  0  0  0  0  0  0
    3.5699   -9.8831    2.0106 H   0  0  0  0  0  0  0  0  0  0  0  0
    4.5403   -6.3399    1.4632 H   0  0  0  0  0  0  0  0  0  0  0  0
    5.0861   -4.8231    3.0480 H   0  0  0  0  0  0  0  0  0  0  0  0
    4.2910   -5.5557   -0.7578 H   0  0  0  0  0  0  0  0  0  0  0  0
    6.5691   -1.0715   -1.0407 H   0  0  0  0  0  0  0  0  0  0  0  0
    5.2030   -1.2987   -2.1446 H   0  0  0  0  0  0  0  0  0  0  0  0
    6.4492   -2.5270   -2.0246 H   0  0  0  0  0  0  0  0  0  0  0  0
    4.6483   -2.6374    3.5265 H   0  0  0  0  0  0  0  0  0  0  0  0
    4.0869   -0.5134    2.4504 H   0  0  0  0  0  0  0  0  0  0  0  0
    5.7514   -0.7761    1.9350 H   0  0  0  0  0  0  0  0  0  0  0  0
    4.0608   -0.5185   -0.0768 H   0  0  0  0  0  0  0  0  0  0  0  0
    2.2500   -1.3225    1.3635 H   0  0  0  0  0  0  0  0  0  0  0  0
    2.2736   -2.4073    0.0348 H   0  0  0  0  0  0  0  0  0  0  0  0
    2.0067   -2.2776    3.4425 H   0  0  0  0  0  0  0  0  0  0  0  0
    2.4838   -3.9084    3.8158 H   0  0  0  0  0  0  0  0  0  0  0  0
    1.2486   -3.6252    2.5993 H   0  0  0  0  0  0  0  0  0  0  0  0
   -0.9458   -6.1013    4.1049 H   0  0  0  0  0  0  0  0  0  0  0  0
   -2.4361   -8.1280    4.1716 H   0  0  0  0  0  0  0  0  0  0  0  0
   -1.6207  -10.2498    3.2458 H   0  0  0  0  0  0  0  0  0  0  0  0
    0.6260  -10.4374    2.2158 H   0  0  0  0  0  0  0  0  0  0  0  0
  1  2  1  0
  1 28  1  0
  1 29  1  0
  1 30  1  0
  2 27  1  0
  2  3  2  0
  3  4  1  0
  3 21  1  0
  4  5  1  0
  4  6  1  0
  4 31  1  6
  5 32  1  0
  6  8  1  0
  6 19  1  0
  6  7  1  6
  7  8  1  0
  8  9  1  0
  8 33  1  1
  9 10  1  0
 10 17  1  0
 10 11  1  6
 10 12  1  0
 11 34  1  0
 11 35  1  0
 11 36  1  0
 12 13  2  0
 12 14  1  0
 14 15  1  0
 15 19  1  0
 15 16  1  0
 15 37  1  1
 16 17  1  0
 16 38  1  0
 16 39  1  0
 17 18  1  0
 17 40  1  6
 18 19  1  0
 18 41  1  0
 18 42  1  0
 19 20  1  1
 20 43  1  0
 20 44  1  0
 20 45  1  0
 21 22  1  0
 22 27  2  0
 22 23  1  0
 23 24  2  0
 23 46  1  0
 24 25  1  0
 24 47  1  0
 25 26  2  0
 25 48  1  0
 26 27  1  0
 26 49  1  0
M  END
>  <i_m_ct_stereo_status>  (77) 
1

>  <s_m_source_file>  (77) 
/var/tmp/pbs.5076255.sched01/tmphrtf3o8j/0_qqz9eae.sdf

>  <i_m_source_file_index>  (77) 
34

>  <i_lp_mmshare_version>  (77) 
48012

>  <i_f3d_flags>  (77) 
0

>  <s_epik_input>  (77) 
W2NIXTFbY0hdW2NIXVtjSF1jKGMxMiljKFtDSDNdKWMobzIpW0NASF0oW09IXSlbQ0BAXTM0W0NAQEhdKE8zKU9bQ0BAXTUoW0NIM10pW0NAQEhdNltDSDJdW0NASF0oT0M1PU8pW0NAXTQoW0NIMl02KVtDSDNd

>  <s_epik_cmdline>  (77) 
J2VwaWtfcHl0aG9uJywgJy1waHQnLCAnMi4wJywgJy1waCcsICc3LjAnLCAnLXRuJywgJzgnLCAnLW1hJywgJzIwMCcsICctaW1hZScsICc8aW5maWxlLm1hZT4nLCAnLW9tYWUnLCAnPG91dGZpbGUubWFlPic=

>  <r_lp_tautomer_probability>  (77) 
1

>  <r_epik_Ionization_Penalty>  (77) 
2.99354e-07

>  <r_epik_Ionization_Penalty_Charging>  (77) 
0

>  <r_epik_Ionization_Penalty_Neutral>  (77) 
2.99354e-07

>  <r_epik_State_Penalty>  (77) 
-0

>  <r_epik_Charging_Adjusted_Penalty>  (77) 
0

>  <i_epik_Tot_Q>  (77) 
0

>  <i_epik_Tot_abs_Q>  (77) 
0

>  <s_epik_Chemistry_Notes>  (77) 
This compound has an ester and may undergo hydrolysis at high or low pH. This compound contains an acetal/aminal-like group ( X-CH(R)-Y where X, Y are N, S, or O) that may be acid/base labile, releasing an aldehyde.

>  <s_lp_Force_Field>  (77) 
OPLS3e

>  <r_lp_Energy>  (77) 
63.4077

>  <b_lp_Chiralities_Consistent>  (77) 
1

>  <s_lp_Variant>  (77) 
27:0-1

>  <s_i_glide_gridfile>  (77) 
pfpi4k_grid

>  <i_i_glide_lignum>  (77) 
34

>  <i_i_glide_rotatable_bonds>  (77) 
3

>  <r_i_docking_score>  (77) 
-2.21662

>  <r_i_glide_ligand_efficiency>  (77) 
-0.0820969

>  <r_i_glide_ligand_efficiency_sa>  (77) 
-0.246291

>  <r_i_glide_ligand_efficiency_ln>  (77) 
-0.515992

>  <r_i_glide_gscore>  (77) 
-2.21662

>  <r_i_glide_lipo>  (77) 
-0.114171

>  <r_i_glide_hbond>  (77) 
0

>  <r_i_glide_metal>  (77) 
-0

>  <r_i_glide_rewards>  (77) 
-0.988894

>  <r_i_glide_evdw>  (77) 
-24.8548

>  <r_i_glide_ecoul>  (77) 
-0.816077

>  <r_i_glide_erotb>  (77) 
0.281233

>  <r_i_glide_esite>  (77) 
-0.0296314

>  <r_i_glide_emodel>  (77) 
-28.5828

>  <r_i_glide_energy>  (77) 
-25.6709

>  <r_i_glide_einternal>  (77) 
2.17927

>  <r_i_glide_intrahb_reward>  (77) 
-0

>  <i_i_glide_confnum>  (77) 
5

>  <i_i_glide_posenum>  (77) 
2

>  <r_i_glide_eff_state_penalty>  (77) 
0

>  <ligand_id>  (77) 
27

>  <original_smiles>  (77) 
Cc1c(C(O)C23OC2OC2(C)C(=O)OC4CC2CC43C)oc2ccccc12

>  <smiles>  (77) 
[H]OC([H])(c1oc2c([H])c([H])c([H])c([H])c2c1C([H])([H])[H])C12OC1([H])OC1(C([H])([H])[H])C(=O)OC3([H])C([H])([H])C1([H])C([H])([H])C32C([H])([H])[H]

$$$$
28:0:0
     RDKit          3D

 41 45  0  0  1  0  0  0  0  0999 V2000
    7.6496   -3.4633    0.2483 C   0  0  0  0  0  0  0  0  0  0  0  0
    6.2428   -3.7333    0.8144 C   0  0  2  0  0  0  0  0  0  0  0  0
    6.0712   -5.2325    1.1868 C   0  0  0  0  0  0  0  0  0  0  0  0
    4.5875   -5.6076    1.4610 C   0  0  1  0  0  0  0  0  0  0  0  0
    3.6883   -5.3512    0.2312 C   0  0  1  0  0  0  0  0  0  0  0  0
    2.3205   -5.3935    0.6199 O   0  0  0  0  0  0  0  0  0  0  0  0
    1.7990   -6.3504    1.4359 C   0  0  0  0  0  0  0  0  0  0  0  0
    0.6028   -6.2989    1.7247 O   0  0  0  0  0  0  0  0  0  0  0  0
    2.7870   -7.4197    1.9203 C   0  0  2  0  0  0  0  0  0  0  0  0
    2.3941   -8.7769    1.3321 C   0  0  0  0  0  0  0  0  0  0  0  0
    2.3434   -9.6644    2.4441 O   0  0  0  0  0  0  0  0  0  0  0  0
    2.4933   -9.0838    3.6479 C   0  0  0  0  0  0  0  0  0  0  0  0
    2.4160   -9.6874    4.7141 O   0  0  0  0  0  0  0  0  0  0  0  0
    2.7508   -7.6289    3.4217 C   0  0  1  0  0  0  0  0  0  0  0  0
    4.1925   -7.1448    3.5399 C   0  0  0  0  0  0  0  0  0  0  0  0
    4.3000   -7.0239    2.0085 C   0  0  2  0  0  0  0  0  0  0  0  0
    5.2763   -8.0457    1.3924 C   0  0  0  0  0  0  0  0  0  0  0  0
    4.0223   -4.0072   -0.3921 C   0  0  0  0  0  0  0  0  0  0  0  0
    3.1441   -3.2808   -1.3672 C   0  0  0  0  0  0  0  0  0  0  0  0
    3.8800   -2.0877   -1.5989 O   0  0  0  0  0  0  0  0  0  0  0  0
    5.0221   -2.0430   -0.8774 C   0  0  0  0  0  0  0  0  0  0  0  0
    5.8170   -1.1032   -0.8640 O   0  0  0  0  0  0  0  0  0  0  0  0
    5.1102   -3.2999   -0.1167 C   0  0  0  0  0  0  0  0  0  0  0  0
    7.8481   -2.3969    0.1471 H   0  0  0  0  0  0  0  0  0  0  0  0
    7.7797   -3.9207   -0.7312 H   0  0  0  0  0  0  0  0  0  0  0  0
    8.4184   -3.8657    0.9078 H   0  0  0  0  0  0  0  0  0  0  0  0
    6.1287   -3.1450    1.7253 H   0  0  0  0  0  0  0  0  0  0  0  0
    6.4416   -5.8387    0.3585 H   0  0  0  0  0  0  0  0  0  0  0  0
    6.6916   -5.4689    2.0537 H   0  0  0  0  0  0  0  0  0  0  0  0
    4.2682   -4.8929    2.2204 H   0  0  0  0  0  0  0  0  0  0  0  0
    3.8606   -6.1179   -0.5227 H   0  0  0  0  0  0  0  0  0  0  0  0
    1.4129   -8.7443    0.8730 H   0  0  0  0  0  0  0  0  0  0  0  0
    3.0948   -9.1454    0.5821 H   0  0  0  0  0  0  0  0  0  0  0  0
    2.0430   -6.9732    3.9290 H   0  0  0  0  0  0  0  0  0  0  0  0
    4.2513   -6.1896    4.0614 H   0  0  0  0  0  0  0  0  0  0  0  0
    4.8631   -7.8837    3.9857 H   0  0  0  0  0  0  0  0  0  0  0  0
    5.0699   -9.0627    1.7409 H   0  0  0  0  0  0  0  0  0  0  0  0
    6.3145   -7.8509    1.6696 H   0  0  0  0  0  0  0  0  0  0  0  0
    5.1968   -8.0647    0.3076 H   0  0  0  0  0  0  0  0  0  0  0  0
    2.1694   -3.0551   -0.9390 H   0  0  0  0  0  0  0  0  0  0  0  0
    3.0204   -3.8438   -2.2913 H   0  0  0  0  0  0  0  0  0  0  0  0
  1  2  1  0
  1 24  1  0
  1 25  1  0
  1 26  1  0
  2  3  1  0
  2 27  1  1
  2 23  1  0
  3  4  1  0
  3 28  1  0
  3 29  1  0
  4 16  1  0
  4  5  1  0
  4 30  1  1
  5  6  1  0
  5 31  1  6
  5 18  1  0
  6  7  1  0
  7  8  2  0
  7  9  1  0
  9 14  1  0
  9 16  1  0
  9 10  1  6
 10 11  1  0
 10 32  1  0
 10 33  1  0
 11 12  1  0
 12 13  2  0
 12 14  1  0
 14 15  1  0
 14 34  1  1
 15 16  1  0
 15 35  1  0
 15 36  1  0
 16 17  1  6
 17 37  1  0
 17 38  1  0
 17 39  1  0
 18 23  2  0
 18 19  1  0
 19 20  1  0
 19 40  1  0
 19 41  1  0
 20 21  1  0
 21 23  1  0
 21 22  2  0
M  END
>  <i_m_ct_stereo_status>  (78) 
1

>  <s_m_source_file>  (78) 
/var/tmp/pbs.5076255.sched01/tmphrtf3o8j/0_qqz9eae.sdf

>  <i_m_source_file_index>  (78) 
35

>  <i_lp_mmshare_version>  (78) 
48012

>  <i_f3d_flags>  (78) 
0

>  <s_epik_input>  (78) 
W2NIXTFvYyhbT0hdKWMoW0NASF0oW0NIM10pW0NIMl0yKWMxW0NASF0oT0MzPU8pW0NASF0yW0NAQF00KFtDSDNdKVtDSDJdW0NAQEhdKFtDQEBdMzQ1KUMoPU8pT1tDSDJdNQ==

>  <s_epik_cmdline>  (78) 
J2VwaWtfcHl0aG9uJywgJy1waHQnLCAnMi4wJywgJy1waCcsICc3LjAnLCAnLXRuJywgJzgnLCAnLW1hJywgJzIwMCcsICctaW1hZScsICc8aW5maWxlLm1hZT4nLCAnLW9tYWUnLCAnPG91dGZpbGUubWFlPic=

>  <r_lp_tautomer_probability>  (78) 
1

>  <r_epik_Ionization_Penalty>  (78) 
0

>  <r_epik_Ionization_Penalty_Charging>  (78) 
0

>  <r_epik_Ionization_Penalty_Neutral>  (78) 
0

>  <r_epik_State_Penalty>  (78) 
-0

>  <r_epik_Charging_Adjusted_Penalty>  (78) 
0

>  <i_epik_Tot_Q>  (78) 
0

>  <i_epik_Tot_abs_Q>  (78) 
0

>  <s_epik_Chemistry_Notes>  (78) 
This compound has an ester and may undergo hydrolysis at high or low pH.

>  <s_lp_Force_Field>  (78) 
OPLS3e

>  <r_lp_Energy>  (78) 
24.2024

>  <b_lp_Chiralities_Consistent>  (78) 
1

>  <s_lp_Variant>  (78) 
28:0-1

>  <s_i_glide_gridfile>  (78) 
pfpi4k_grid

>  <i_i_glide_lignum>  (78) 
35

>  <i_i_glide_rotatable_bonds>  (78) 
0

>  <r_i_docking_score>  (78) 
-3.81504

>  <r_i_glide_ligand_efficiency>  (78) 
-0.165871

>  <r_i_glide_ligand_efficiency_sa>  (78) 
-0.471716

>  <r_i_glide_ligand_efficiency_ln>  (78) 
-0.922511

>  <r_i_glide_gscore>  (78) 
-3.81504

>  <r_i_glide_lipo>  (78) 
-0.656993

>  <r_i_glide_hbond>  (78) 
-0.207188

>  <r_i_glide_metal>  (78) 
-0

>  <r_i_glide_rewards>  (78) 
-1.23872

>  <r_i_glide_evdw>  (78) 
-22.0716

>  <r_i_glide_ecoul>  (78) 
-3.58472

>  <r_i_glide_erotb>  (78) 
0

>  <r_i_glide_esite>  (78) 
-0.0708512

>  <r_i_glide_emodel>  (78) 
-32.3171

>  <r_i_glide_energy>  (78) 
-25.6563

>  <r_i_glide_einternal>  (78) 
0

>  <r_i_glide_intrahb_reward>  (78) 
-0

>  <i_i_glide_confnum>  (78) 
2

>  <i_i_glide_posenum>  (78) 
1

>  <r_i_glide_eff_state_penalty>  (78) 
0

>  <ligand_id>  (78) 
28

>  <original_smiles>  (78) 
CC1CC2C(OC(=O)C34COC(=O)C3CC24C)c2coc(O)c21

>  <smiles>  (78) 
[H]C1([H])OC(=O)C2=C1C1([H])OC(=O)C34C([H])([H])OC(=O)C3([H])C([H])([H])C4(C([H])([H])[H])C1([H])C([H])([H])C2([H])C([H])([H])[H]

$$$$
28:0:1
     RDKit          3D

 41 45  0  0  1  0  0  0  0  0999 V2000
    3.4848   -2.4142    2.0428 C   0  0  0  0  0  0  0  0  0  0  0  0
    2.1286   -2.0399    2.6639 C   0  0  2  0  0  0  0  0  0  0  0  0
    1.9231   -0.5022    2.6774 C   0  0  0  0  0  0  0  0  0  0  0  0
    0.7283   -0.0752    3.5724 C   0  0  1  0  0  0  0  0  0  0  0  0
    0.9101   -0.5201    5.0390 C   0  0  1  0  0  0  0  0  0  0  0  0
   -0.3320   -0.4158    5.7249 O   0  0  0  0  0  0  0  0  0  0  0  0
   -1.1436    0.6784    5.6456 C   0  0  0  0  0  0  0  0  0  0  0  0
   -2.1800    0.6948    6.3084 O   0  0  0  0  0  0  0  0  0  0  0  0
   -0.6589    1.8040    4.7174 C   0  0  2  0  0  0  0  0  0  0  0  0
   -0.3727    3.0523    5.5599 C   0  0  0  0  0  0  0  0  0  0  0  0
   -1.0631    4.1084    4.8961 O   0  0  0  0  0  0  0  0  0  0  0  0
   -1.8473    3.7328    3.8681 C   0  0  0  0  0  0  0  0  0  0  0  0
   -2.5683    4.5131    3.2504 O   0  0  0  0  0  0  0  0  0  0  0  0
   -1.6929    2.2552    3.6989 C   0  0  1  0  0  0  0  0  0  0  0  0
   -0.8130    1.7582    2.5583 C   0  0  0  0  0  0  0  0  0  0  0  0
    0.3149    1.4104    3.5469 C   0  0  2  0  0  0  0  0  0  0  0  0
    1.5588    2.3112    3.3942 C   0  0  0  0  0  0  0  0  0  0  0  0
    1.4214   -1.9471    5.0985 C   0  0  0  0  0  0  0  0  0  0  0  0
    1.3861   -2.8173    6.3209 C   0  0  0  0  0  0  0  0  0  0  0  0
    1.9147   -4.0436    5.8272 O   0  0  0  0  0  0  0  0  0  0  0  0
    2.2388   -3.9728    4.5119 C   0  0  0  0  0  0  0  0  0  0  0  0
    2.6943   -4.8917    3.8357 O   0  0  0  0  0  0  0  0  0  0  0  0
    1.9201   -2.6105    4.0621 C   0  0  0  0  0  0  0  0  0  0  0  0
    3.5654   -3.4860    1.8613 H   0  0  0  0  0  0  0  0  0  0  0  0
    4.3122   -2.1173    2.6882 H   0  0  0  0  0  0  0  0  0  0  0  0
    3.6175   -1.9230    1.0795 H   0  0  0  0  0  0  0  0  0  0  0  0
    1.3492   -2.4748    2.0439 H   0  0  0  0  0  0  0  0  0  0  0  0
    2.8330   -0.0403    3.0628 H   0  0  0  0  0  0  0  0  0  0  0  0
    1.7843   -0.1409    1.6554 H   0  0  0  0  0  0  0  0  0  0  0  0
   -0.1134   -0.6546    3.1902 H   0  0  0  0  0  0  0  0  0  0  0  0
    1.6440    0.1151    5.5410 H   0  0  0  0  0  0  0  0  0  0  0  0
   -0.7462    2.9750    6.5857 H   0  0  0  0  0  0  0  0  0  0  0  0
    0.6900    3.2818    5.6302 H   0  0  0  0  0  0  0  0  0  0  0  0
   -2.6328    1.7113    3.7828 H   0  0  0  0  0  0  0  0  0  0  0  0
   -1.2566    0.9010    2.0498 H   0  0  0  0  0  0  0  0  0  0  0  0
   -0.5576    2.5387    1.8417 H   0  0  0  0  0  0  0  0  0  0  0  0
    1.2927    3.3701    3.4016 H   0  0  0  0  0  0  0  0  0  0  0  0
    2.0684    2.1582    2.4423 H   0  0  0  0  0  0  0  0  0  0  0  0
    2.2786    2.1533    4.1946 H   0  0  0  0  0  0  0  0  0  0  0  0
    0.3697   -2.9559    6.6872 H   0  0  0  0  0  0  0  0  0  0  0  0
    2.0098   -2.4097    7.1173 H   0  0  0  0  0  0  0  0  0  0  0  0
  1  2  1  0
  1 24  1  0
  1 25  1  0
  1 26  1  0
  2  3  1  0
  2 27  1  6
  2 23  1  0
  3  4  1  0
  3 28  1  0
  3 29  1  0
  4 16  1  0
  4  5  1  0
  4 30  1  6
  5  6  1  0
  5 31  1  1
  5 18  1  0
  6  7  1  0
  7  8  2  0
  7  9  1  0
  9 14  1  0
  9 16  1  0
  9 10  1  1
 10 11  1  0
 10 32  1  0
 10 33  1  0
 11 12  1  0
 12 13  2  0
 12 14  1  0
 14 15  1  0
 14 34  1  1
 15 16  1  0
 15 35  1  0
 15 36  1  0
 16 17  1  6
 17 37  1  0
 17 38  1  0
 17 39  1  0
 18 23  2  0
 18 19  1  0
 19 20  1  0
 19 40  1  0
 19 41  1  0
 20 21  1  0
 21 23  1  0
 21 22  2  0
M  END
>  <i_m_ct_stereo_status>  (79) 
1

>  <s_m_source_file>  (79) 
/var/tmp/pbs.5076255.sched01/tmphrtf3o8j/0_qqz9eae.sdf

>  <i_m_source_file_index>  (79) 
35

>  <i_lp_mmshare_version>  (79) 
48012

>  <i_f3d_flags>  (79) 
0

>  <s_epik_input>  (79) 
W2NIXTFvYyhbT0hdKWMoW0NASF0oW0NIM10pW0NIMl0yKWMxW0NASF0oT0MzPU8pW0NASF0yW0NAQF00KFtDSDNdKVtDSDJdW0NAQEhdKFtDQEBdMzQ1KUMoPU8pT1tDSDJdNQ==

>  <s_epik_cmdline>  (79) 
J2VwaWtfcHl0aG9uJywgJy1waHQnLCAnMi4wJywgJy1waCcsICc3LjAnLCAnLXRuJywgJzgnLCAnLW1hJywgJzIwMCcsICctaW1hZScsICc8aW5maWxlLm1hZT4nLCAnLW9tYWUnLCAnPG91dGZpbGUubWFlPic=

>  <r_lp_tautomer_probability>  (79) 
1

>  <r_epik_Ionization_Penalty>  (79) 
0

>  <r_epik_Ionization_Penalty_Charging>  (79) 
0

>  <r_epik_Ionization_Penalty_Neutral>  (79) 
0

>  <r_epik_State_Penalty>  (79) 
-0

>  <r_epik_Charging_Adjusted_Penalty>  (79) 
0

>  <i_epik_Tot_Q>  (79) 
0

>  <i_epik_Tot_abs_Q>  (79) 
0

>  <s_epik_Chemistry_Notes>  (79) 
This compound has an ester and may undergo hydrolysis at high or low pH.

>  <s_lp_Force_Field>  (79) 
OPLS3e

>  <r_lp_Energy>  (79) 
24.2024

>  <b_lp_Chiralities_Consistent>  (79) 
1

>  <s_lp_Variant>  (79) 
28:0-1

>  <s_i_glide_gridfile>  (79) 
pfpi4k_grid

>  <i_i_glide_lignum>  (79) 
35

>  <i_i_glide_rotatable_bonds>  (79) 
0

>  <r_i_docking_score>  (79) 
-3.61815

>  <r_i_glide_ligand_efficiency>  (79) 
-0.157311

>  <r_i_glide_ligand_efficiency_sa>  (79) 
-0.447371

>  <r_i_glide_ligand_efficiency_ln>  (79) 
-0.874901

>  <r_i_glide_gscore>  (79) 
-3.61815

>  <r_i_glide_lipo>  (79) 
-0.00544904

>  <r_i_glide_hbond>  (79) 
-0.316867

>  <r_i_glide_metal>  (79) 
-0

>  <r_i_glide_rewards>  (79) 
-1.23872

>  <r_i_glide_evdw>  (79) 
-16.4912

>  <r_i_glide_ecoul>  (79) 
-7.54865

>  <r_i_glide_erotb>  (79) 
0

>  <r_i_glide_esite>  (79) 
-0.100256

>  <r_i_glide_emodel>  (79) 
-30.3384

>  <r_i_glide_energy>  (79) 
-24.0399

>  <r_i_glide_einternal>  (79) 
0

>  <r_i_glide_intrahb_reward>  (79) 
-0

>  <i_i_glide_confnum>  (79) 
2

>  <i_i_glide_posenum>  (79) 
13

>  <r_i_glide_eff_state_penalty>  (79) 
0

>  <ligand_id>  (79) 
28

>  <original_smiles>  (79) 
CC1CC2C(OC(=O)C34COC(=O)C3CC24C)c2coc(O)c21

>  <smiles>  (79) 
[H]C1([H])OC(=O)C2=C1C1([H])OC(=O)C34C([H])([H])OC(=O)C3([H])C([H])([H])C4(C([H])([H])[H])C1([H])C([H])([H])C2([H])C([H])([H])[H]

$$$$
28:0:2
     RDKit          3D

 41 45  0  0  1  0  0  0  0  0999 V2000
    1.7316   -7.6977    2.2314 C   0  0  0  0  0  0  0  0  0  0  0  0
    1.6459   -6.1988    1.9033 C   0  0  2  0  0  0  0  0  0  0  0  0
    2.6823   -5.7992    0.8169 C   0  0  0  0  0  0  0  0  0  0  0  0
    2.8529   -4.2624    0.6906 C   0  0  1  0  0  0  0  0  0  0  0  0
    3.3221   -3.6183    2.0099 C   0  0  1  0  0  0  0  0  0  0  0  0
    3.1324   -2.2104    1.9364 O   0  0  0  0  0  0  0  0  0  0  0  0
    3.4932   -1.4500    0.8626 C   0  0  0  0  0  0  0  0  0  0  0  0
    3.3429   -0.2300    0.8810 O   0  0  0  0  0  0  0  0  0  0  0  0
    4.1004   -2.2183   -0.3046 C   0  0  2  0  0  0  0  0  0  0  0  0
    5.5510   -1.7725   -0.4794 C   0  0  0  0  0  0  0  0  0  0  0  0
    5.6431   -1.4603   -1.8711 O   0  0  0  0  0  0  0  0  0  0  0  0
    4.4950   -1.4785   -2.5754 C   0  0  0  0  0  0  0  0  0  0  0  0
    4.4064   -1.1704   -3.7652 O   0  0  0  0  0  0  0  0  0  0  0  0
    3.4329   -1.9202   -1.6357 C   0  0  1  0  0  0  0  0  0  0  0  0
    2.9610   -3.3577   -1.7635 C   0  0  0  0  0  0  0  0  0  0  0  0
    3.7180   -3.7275   -0.4706 C   0  0  2  0  0  0  0  0  0  0  0  0
    4.9050   -4.6807   -0.7167 C   0  0  0  0  0  0  0  0  0  0  0  0
    2.5504   -4.2030    3.1868 C   0  0  0  0  0  0  0  0  0  0  0  0
    2.4880   -3.5783    4.5489 C   0  0  0  0  0  0  0  0  0  0  0  0
    1.6086   -4.4649    5.2316 O   0  0  0  0  0  0  0  0  0  0  0  0
    1.1775   -5.4909    4.4424 C   0  0  0  0  0  0  0  0  0  0  0  0
    0.3865   -6.3624    4.7677 O   0  0  0  0  0  0  0  0  0  0  0  0
    1.8117   -5.2922    3.1247 C   0  0  0  0  0  0  0  0  0  0  0  0
    0.9024   -8.0253    2.8585 H   0  0  0  0  0  0  0  0  0  0  0  0
    2.6597   -7.9382    2.7496 H   0  0  0  0  0  0  0  0  0  0  0  0
    1.6912   -8.2994    1.3240 H   0  0  0  0  0  0  0  0  0  0  0  0
    0.6498   -6.0021    1.5170 H   0  0  0  0  0  0  0  0  0  0  0  0
    3.6403   -6.2396    1.0890 H   0  0  0  0  0  0  0  0  0  0  0  0
    2.3879   -6.2333   -0.1406 H   0  0  0  0  0  0  0  0  0  0  0  0
    1.8467   -3.9002    0.5242 H   0  0  0  0  0  0  0  0  0  0  0  0
    4.3733   -3.8188    2.1809 H   0  0  0  0  0  0  0  0  0  0  0  0
    5.8089   -0.8863    0.1003 H   0  0  0  0  0  0  0  0  0  0  0  0
    6.2700   -2.5459   -0.2148 H   0  0  0  0  0  0  0  0  0  0  0  0
    2.6155   -1.2214   -1.5568 H   0  0  0  0  0  0  0  0  0  0  0  0
    1.8786   -3.4285   -1.6752 H   0  0  0  0  0  0  0  0  0  0  0  0
    3.3304   -3.8600   -2.6600 H   0  0  0  0  0  0  0  0  0  0  0  0
    5.5533   -4.3098   -1.5122 H   0  0  0  0  0  0  0  0  0  0  0  0
    4.6024   -5.6727   -1.0535 H   0  0  0  0  0  0  0  0  0  0  0  0
    5.5264   -4.8145    0.1727 H   0  0  0  0  0  0  0  0  0  0  0  0
    2.0688   -2.5716    4.5129 H   0  0  0  0  0  0  0  0  0  0  0  0
    3.4720   -3.5540    5.0183 H   0  0  0  0  0  0  0  0  0  0  0  0
  1  2  1  0
  1 24  1  0
  1 25  1  0
  1 26  1  0
  2  3  1  0
  2 27  1  6
  2 23  1  0
  3  4  1  0
  3 28  1  0
  3 29  1  0
  4 16  1  0
  4  5  1  0
  4 30  1  6
  5  6  1  0
  5 31  1  1
  5 18  1  0
  6  7  1  0
  7  8  2  0
  7  9  1  0
  9 14  1  0
  9 16  1  0
  9 10  1  6
 10 11  1  0
 10 32  1  0
 10 33  1  0
 11 12  1  0
 12 13  2  0
 12 14  1  0
 14 15  1  0
 14 34  1  1
 15 16  1  0
 15 35  1  0
 15 36  1  0
 16 17  1  6
 17 37  1  0
 17 38  1  0
 17 39  1  0
 18 23  2  0
 18 19  1  0
 19 20  1  0
 19 40  1  0
 19 41  1  0
 20 21  1  0
 21 23  1  0
 21 22  2  0
M  END
>  <i_m_ct_stereo_status>  (80) 
1

>  <s_m_source_file>  (80) 
/var/tmp/pbs.5076255.sched01/tmphrtf3o8j/0_qqz9eae.sdf

>  <i_m_source_file_index>  (80) 
35

>  <i_lp_mmshare_version>  (80) 
48012

>  <i_f3d_flags>  (80) 
0

>  <s_epik_input>  (80) 
W2NIXTFvYyhbT0hdKWMoW0NASF0oW0NIM10pW0NIMl0yKWMxW0NASF0oT0MzPU8pW0NASF0yW0NAQF00KFtDSDNdKVtDSDJdW0NAQEhdKFtDQEBdMzQ1KUMoPU8pT1tDSDJdNQ==

>  <s_epik_cmdline>  (80) 
J2VwaWtfcHl0aG9uJywgJy1waHQnLCAnMi4wJywgJy1waCcsICc3LjAnLCAnLXRuJywgJzgnLCAnLW1hJywgJzIwMCcsICctaW1hZScsICc8aW5maWxlLm1hZT4nLCAnLW9tYWUnLCAnPG91dGZpbGUubWFlPic=

>  <r_lp_tautomer_probability>  (80) 
1

>  <r_epik_Ionization_Penalty>  (80) 
0

>  <r_epik_Ionization_Penalty_Charging>  (80) 
0

>  <r_epik_Ionization_Penalty_Neutral>  (80) 
0

>  <r_epik_State_Penalty>  (80) 
-0

>  <r_epik_Charging_Adjusted_Penalty>  (80) 
0

>  <i_epik_Tot_Q>  (80) 
0

>  <i_epik_Tot_abs_Q>  (80) 
0

>  <s_epik_Chemistry_Notes>  (80) 
This compound has an ester and may undergo hydrolysis at high or low pH.

>  <s_lp_Force_Field>  (80) 
OPLS3e

>  <r_lp_Energy>  (80) 
24.2024

>  <b_lp_Chiralities_Consistent>  (80) 
1

>  <s_lp_Variant>  (80) 
28:0-1

>  <s_i_glide_gridfile>  (80) 
pfpi4k_grid

>  <i_i_glide_lignum>  (80) 
35

>  <i_i_glide_rotatable_bonds>  (80) 
0

>  <r_i_docking_score>  (80) 
-3.02079

>  <r_i_glide_ligand_efficiency>  (80) 
-0.131339

>  <r_i_glide_ligand_efficiency_sa>  (80) 
-0.37351

>  <r_i_glide_ligand_efficiency_ln>  (80) 
-0.730455

>  <r_i_glide_gscore>  (80) 
-3.02079

>  <r_i_glide_lipo>  (80) 
-0.109079

>  <r_i_glide_hbond>  (80) 
-0.0339086

>  <r_i_glide_metal>  (80) 
-0

>  <r_i_glide_rewards>  (80) 
-1.23872

>  <r_i_glide_evdw>  (80) 
-21.7699

>  <r_i_glide_ecoul>  (80) 
-3.11955

>  <r_i_glide_erotb>  (80) 
0

>  <r_i_glide_esite>  (80) 
-0.0826557

>  <r_i_glide_emodel>  (80) 
-30.1129

>  <r_i_glide_energy>  (80) 
-24.8895

>  <r_i_glide_einternal>  (80) 
0

>  <r_i_glide_intrahb_reward>  (80) 
-0

>  <i_i_glide_confnum>  (80) 
2

>  <i_i_glide_posenum>  (80) 
37

>  <r_i_glide_eff_state_penalty>  (80) 
0

>  <ligand_id>  (80) 
28

>  <original_smiles>  (80) 
CC1CC2C(OC(=O)C34COC(=O)C3CC24C)c2coc(O)c21

>  <smiles>  (80) 
[H]C1([H])OC(=O)C2=C1C1([H])OC(=O)C34C([H])([H])OC(=O)C3([H])C([H])([H])C4(C([H])([H])[H])C1([H])C([H])([H])C2([H])C([H])([H])[H]

$$$$
29:0:0
     RDKit          3D

 15 16  0  0  1  0  0  0  0  0999 V2000
   -4.1924   -8.4973   -5.2902 C   0  0  0  0  0  0  0  0  0  0  0  0
   -5.2175   -7.4911   -5.4631 N   0  0  0  0  0  0  0  0  0  0  0  0
   -6.3443   -7.5059   -6.3197 C   0  0  0  0  0  0  0  0  0  0  0  0
   -6.9459   -6.3596   -6.0294 C   0  0  0  0  0  0  0  0  0  0  0  0
   -8.3209   -5.5841   -6.6908 S   0  0  0  0  0  0  0  0  0  0  0  0
   -7.9587   -4.2767   -5.5252 C   0  0  0  0  0  0  0  0  0  0  0  0
   -6.8077   -4.4909   -4.7713 C   0  0  0  0  0  0  0  0  0  0  0  0
   -6.2388   -5.7391   -5.1263 C   0  0  0  0  0  0  0  0  0  0  0  0
   -5.1469   -6.3146   -4.7096 N   0  0  0  0  0  0  0  0  0  0  0  0
   -4.3649   -9.3428   -5.9602 H   0  0  0  0  0  0  0  0  0  0  0  0
   -4.1959   -8.8607   -4.2611 H   0  0  0  0  0  0  0  0  0  0  0  0
   -3.2183   -8.0641   -5.5081 H   0  0  0  0  0  0  0  0  0  0  0  0
   -6.5819   -8.2994   -7.0132 H   0  0  0  0  0  0  0  0  0  0  0  0
   -8.6075   -3.4149   -5.4748 H   0  0  0  0  0  0  0  0  0  0  0  0
   -6.3859   -3.8300   -4.0320 H   0  0  0  0  0  0  0  0  0  0  0  0
  1  2  1  0
  1 10  1  0
  1 11  1  0
  1 12  1  0
  2  9  1  0
  2  3  1  0
  3  4  2  0
  3 13  1  0
  4  8  1  0
  4  5  1  0
  5  6  1  0
  6  7  2  0
  6 14  1  0
  7  8  1  0
  7 15  1  0
  8  9  2  0
M  END
>  <i_m_ct_stereo_status>  (81) 
1

>  <s_m_source_file>  (81) 
/var/tmp/pbs.5076255.sched01/tmphrtf3o8j/0_qqz9eae.sdf

>  <i_m_source_file_index>  (81) 
36

>  <i_lp_mmshare_version>  (81) 
48012

>  <i_f3d_flags>  (81) 
0

>  <s_epik_input>  (81) 
W0NIM11uKFtjSF0xKW5jKGMxMilbY0hdW2NIXXMy

>  <s_epik_cmdline>  (81) 
J2VwaWtfcHl0aG9uJywgJy1waHQnLCAnMi4wJywgJy1waCcsICc3LjAnLCAnLXRuJywgJzgnLCAnLW1hJywgJzIwMCcsICctaW1hZScsICc8aW5maWxlLm1hZT4nLCAnLW9tYWUnLCAnPG91dGZpbGUubWFlPic=

>  <r_lp_tautomer_probability>  (81) 
1

>  <r_epik_Ionization_Penalty>  (81) 
2.15064e-05

>  <r_epik_Ionization_Penalty_Charging>  (81) 
0

>  <r_epik_Ionization_Penalty_Neutral>  (81) 
2.15064e-05

>  <r_epik_State_Penalty>  (81) 
-0

>  <r_epik_Charging_Adjusted_Penalty>  (81) 
0

>  <i_epik_Tot_Q>  (81) 
0

>  <i_epik_Tot_abs_Q>  (81) 
0

>  <s_lp_Force_Field>  (81) 
OPLS3e

>  <r_lp_Energy>  (81) 
0.713358

>  <b_lp_Chiralities_Consistent>  (81) 
1

>  <s_lp_Variant>  (81) 
29:0-1

>  <s_i_glide_gridfile>  (81) 
pfpi4k_grid

>  <i_i_glide_lignum>  (81) 
36

>  <i_i_glide_rotatable_bonds>  (81) 
0

>  <r_i_docking_score>  (81) 
-7.4023

>  <r_i_glide_ligand_efficiency>  (81) 
-0.822478

>  <r_i_glide_ligand_efficiency_sa>  (81) 
-1.71082

>  <r_i_glide_ligand_efficiency_ln>  (81) 
-2.31523

>  <r_i_glide_gscore>  (81) 
-7.4023

>  <r_i_glide_lipo>  (81) 
-1.72339

>  <r_i_glide_hbond>  (81) 
-0.275333

>  <r_i_glide_metal>  (81) 
-0

>  <r_i_glide_rewards>  (81) 
-3.93333

>  <r_i_glide_evdw>  (81) 
-20.9075

>  <r_i_glide_ecoul>  (81) 
-2.83248

>  <r_i_glide_erotb>  (81) 
0

>  <r_i_glide_esite>  (81) 
0

>  <r_i_glide_emodel>  (81) 
-34.4164

>  <r_i_glide_energy>  (81) 
-23.74

>  <r_i_glide_einternal>  (81) 
0

>  <r_i_glide_intrahb_reward>  (81) 
-0

>  <i_i_glide_confnum>  (81) 
1

>  <i_i_glide_posenum>  (81) 
6

>  <r_i_glide_eff_state_penalty>  (81) 
0

>  <ligand_id>  (81) 
29

>  <original_smiles>  (81) 
Cn1cc2sccc2n1

>  <smiles>  (81) 
[H]c1sc2c([H])n(C([H])([H])[H])nc2c1[H]

$$$$
29:0:1
     RDKit          3D

 15 16  0  0  1  0  0  0  0  0999 V2000
   -9.9357   -3.5032   -6.6188 C   0  0  0  0  0  0  0  0  0  0  0  0
   -8.8774   -4.4421   -6.3281 N   0  0  0  0  0  0  0  0  0  0  0  0
   -7.9042   -4.3883   -5.3011 C   0  0  0  0  0  0  0  0  0  0  0  0
   -7.2037   -5.4983   -5.5062 C   0  0  0  0  0  0  0  0  0  0  0  0
   -5.8388   -6.1599   -4.7128 S   0  0  0  0  0  0  0  0  0  0  0  0
   -5.9711   -7.4857   -5.9041 C   0  0  0  0  0  0  0  0  0  0  0  0
   -7.0112   -7.3246   -6.8160 C   0  0  0  0  0  0  0  0  0  0  0  0
   -7.7077   -6.1218   -6.5340 C   0  0  0  0  0  0  0  0  0  0  0  0
   -8.7319   -5.5781   -7.1356 N   0  0  0  0  0  0  0  0  0  0  0  0
   -9.9155   -2.6694   -5.9141 H   0  0  0  0  0  0  0  0  0  0  0  0
  -10.9045   -4.0013   -6.5483 H   0  0  0  0  0  0  0  0  0  0  0  0
   -9.7994   -3.1100   -7.6252 H   0  0  0  0  0  0  0  0  0  0  0  0
   -7.8212   -3.5977   -4.5708 H   0  0  0  0  0  0  0  0  0  0  0  0
   -5.2706   -8.3044   -5.8632 H   0  0  0  0  0  0  0  0  0  0  0  0
   -7.2722   -7.9886   -7.6232 H   0  0  0  0  0  0  0  0  0  0  0  0
  1  2  1  0
  1 10  1  0
  1 11  1  0
  1 12  1  0
  2  9  1  0
  2  3  1  0
  3  4  2  0
  3 13  1  0
  4  8  1  0
  4  5  1  0
  5  6  1  0
  6  7  2  0
  6 14  1  0
  7  8  1  0
  7 15  1  0
  8  9  2  0
M  END
>  <i_m_ct_stereo_status>  (82) 
1

>  <s_m_source_file>  (82) 
/var/tmp/pbs.5076255.sched01/tmphrtf3o8j/0_qqz9eae.sdf

>  <i_m_source_file_index>  (82) 
36

>  <i_lp_mmshare_version>  (82) 
48012

>  <i_f3d_flags>  (82) 
0

>  <s_epik_input>  (82) 
W0NIM11uKFtjSF0xKW5jKGMxMilbY0hdW2NIXXMy

>  <s_epik_cmdline>  (82) 
J2VwaWtfcHl0aG9uJywgJy1waHQnLCAnMi4wJywgJy1waCcsICc3LjAnLCAnLXRuJywgJzgnLCAnLW1hJywgJzIwMCcsICctaW1hZScsICc8aW5maWxlLm1hZT4nLCAnLW9tYWUnLCAnPG91dGZpbGUubWFlPic=

>  <r_lp_tautomer_probability>  (82) 
1

>  <r_epik_Ionization_Penalty>  (82) 
2.15064e-05

>  <r_epik_Ionization_Penalty_Charging>  (82) 
0

>  <r_epik_Ionization_Penalty_Neutral>  (82) 
2.15064e-05

>  <r_epik_State_Penalty>  (82) 
-0

>  <r_epik_Charging_Adjusted_Penalty>  (82) 
0

>  <i_epik_Tot_Q>  (82) 
0

>  <i_epik_Tot_abs_Q>  (82) 
0

>  <s_lp_Force_Field>  (82) 
OPLS3e

>  <r_lp_Energy>  (82) 
0.713358

>  <b_lp_Chiralities_Consistent>  (82) 
1

>  <s_lp_Variant>  (82) 
29:0-1

>  <s_i_glide_gridfile>  (82) 
pfpi4k_grid

>  <i_i_glide_lignum>  (82) 
36

>  <i_i_glide_rotatable_bonds>  (82) 
0

>  <r_i_docking_score>  (82) 
-6.25268

>  <r_i_glide_ligand_efficiency>  (82) 
-0.694742

>  <r_i_glide_ligand_efficiency_sa>  (82) 
-1.44512

>  <r_i_glide_ligand_efficiency_ln>  (82) 
-1.95566

>  <r_i_glide_gscore>  (82) 
-6.25268

>  <r_i_glide_lipo>  (82) 
-1.98612

>  <r_i_glide_hbond>  (82) 
0

>  <r_i_glide_metal>  (82) 
-0

>  <r_i_glide_rewards>  (82) 
-3.19036

>  <r_i_glide_evdw>  (82) 
-21.0144

>  <r_i_glide_ecoul>  (82) 
-0.169826

>  <r_i_glide_erotb>  (82) 
0

>  <r_i_glide_esite>  (82) 
0

>  <r_i_glide_emodel>  (82) 
-30.2059

>  <r_i_glide_energy>  (82) 
-21.1843

>  <r_i_glide_einternal>  (82) 
0

>  <r_i_glide_intrahb_reward>  (82) 
-0

>  <i_i_glide_confnum>  (82) 
1

>  <i_i_glide_posenum>  (82) 
5

>  <r_i_glide_eff_state_penalty>  (82) 
0

>  <ligand_id>  (82) 
29

>  <original_smiles>  (82) 
Cn1cc2sccc2n1

>  <smiles>  (82) 
[H]c1sc2c([H])n(C([H])([H])[H])nc2c1[H]

$$$$
29:0:2
     RDKit          3D

 15 16  0  0  1  0  0  0  0  0999 V2000
   -4.6759   -9.9809   -5.9993 C   0  0  0  0  0  0  0  0  0  0  0  0
   -5.2381   -8.6690   -5.7999 N   0  0  0  0  0  0  0  0  0  0  0  0
   -4.6692   -7.5566   -5.1340 C   0  0  0  0  0  0  0  0  0  0  0  0
   -5.6144   -6.6381   -5.2378 C   0  0  0  0  0  0  0  0  0  0  0  0
   -5.6901   -5.0022   -4.7309 S   0  0  0  0  0  0  0  0  0  0  0  0
   -7.3055   -4.9998   -5.4730 C   0  0  0  0  0  0  0  0  0  0  0  0
   -7.6620   -6.1991   -6.0736 C   0  0  0  0  0  0  0  0  0  0  0  0
   -6.6156   -7.1418   -5.9010 C   0  0  0  0  0  0  0  0  0  0  0  0
   -6.5159   -8.3792   -6.3026 N   0  0  0  0  0  0  0  0  0  0  0  0
   -3.6813  -10.0565   -5.5534 H   0  0  0  0  0  0  0  0  0  0  0  0
   -4.5984  -10.1907   -7.0642 H   0  0  0  0  0  0  0  0  0  0  0  0
   -5.3174  -10.7298   -5.5389 H   0  0  0  0  0  0  0  0  0  0  0  0
   -3.6873   -7.5361   -4.6836 H   0  0  0  0  0  0  0  0  0  0  0  0
   -7.9110   -4.1091   -5.4317 H   0  0  0  0  0  0  0  0  0  0  0  0
   -8.5727   -6.4400   -6.5945 H   0  0  0  0  0  0  0  0  0  0  0  0
  1  2  1  0
  1 10  1  0
  1 11  1  0
  1 12  1  0
  2  9  1  0
  2  3  1  0
  3  4  2  0
  3 13  1  0
  4  8  1  0
  4  5  1  0
  5  6  1  0
  6  7  2  0
  6 14  1  0
  7  8  1  0
  7 15  1  0
  8  9  2  0
M  END
>  <i_m_ct_stereo_status>  (83) 
1

>  <s_m_source_file>  (83) 
/var/tmp/pbs.5076255.sched01/tmphrtf3o8j/0_qqz9eae.sdf

>  <i_m_source_file_index>  (83) 
36

>  <i_lp_mmshare_version>  (83) 
48012

>  <i_f3d_flags>  (83) 
0

>  <s_epik_input>  (83) 
W0NIM11uKFtjSF0xKW5jKGMxMilbY0hdW2NIXXMy

>  <s_epik_cmdline>  (83) 
J2VwaWtfcHl0aG9uJywgJy1waHQnLCAnMi4wJywgJy1waCcsICc3LjAnLCAnLXRuJywgJzgnLCAnLW1hJywgJzIwMCcsICctaW1hZScsICc8aW5maWxlLm1hZT4nLCAnLW9tYWUnLCAnPG91dGZpbGUubWFlPic=

>  <r_lp_tautomer_probability>  (83) 
1

>  <r_epik_Ionization_Penalty>  (83) 
2.15064e-05

>  <r_epik_Ionization_Penalty_Charging>  (83) 
0

>  <r_epik_Ionization_Penalty_Neutral>  (83) 
2.15064e-05

>  <r_epik_State_Penalty>  (83) 
-0

>  <r_epik_Charging_Adjusted_Penalty>  (83) 
0

>  <i_epik_Tot_Q>  (83) 
0

>  <i_epik_Tot_abs_Q>  (83) 
0

>  <s_lp_Force_Field>  (83) 
OPLS3e

>  <r_lp_Energy>  (83) 
0.713358

>  <b_lp_Chiralities_Consistent>  (83) 
1

>  <s_lp_Variant>  (83) 
29:0-1

>  <s_i_glide_gridfile>  (83) 
pfpi4k_grid

>  <i_i_glide_lignum>  (83) 
36

>  <i_i_glide_rotatable_bonds>  (83) 
0

>  <r_i_docking_score>  (83) 
-5.81569

>  <r_i_glide_ligand_efficiency>  (83) 
-0.646188

>  <r_i_glide_ligand_efficiency_sa>  (83) 
-1.34413

>  <r_i_glide_ligand_efficiency_ln>  (83) 
-1.81898

>  <r_i_glide_gscore>  (83) 
-5.81569

>  <r_i_glide_lipo>  (83) 
-1.81263

>  <r_i_glide_hbond>  (83) 
0

>  <r_i_glide_metal>  (83) 
-0

>  <r_i_glide_rewards>  (83) 
-2.91284

>  <r_i_glide_evdw>  (83) 
-20.5395

>  <r_i_glide_ecoul>  (83) 
-0.421623

>  <r_i_glide_erotb>  (83) 
0

>  <r_i_glide_esite>  (83) 
0

>  <r_i_glide_emodel>  (83) 
-29.3495

>  <r_i_glide_energy>  (83) 
-20.9612

>  <r_i_glide_einternal>  (83) 
0

>  <r_i_glide_intrahb_reward>  (83) 
-0

>  <i_i_glide_confnum>  (83) 
1

>  <i_i_glide_posenum>  (83) 
1

>  <r_i_glide_eff_state_penalty>  (83) 
0

>  <ligand_id>  (83) 
29

>  <original_smiles>  (83) 
Cn1cc2sccc2n1

>  <smiles>  (83) 
[H]c1sc2c([H])n(C([H])([H])[H])nc2c1[H]

$$$$
30:0:0
     RDKit          3D

 36 38  0  0  1  0  0  0  0  0999 V2000
   -4.5609   -8.5606   -5.1518 C   0  0  0  0  0  0  0  0  0  0  0  0
   -5.8236   -8.0768   -5.8599 C   0  0  0  0  0  0  0  0  0  0  0  0
   -6.4650   -8.9266   -6.7792 C   0  0  0  0  0  0  0  0  0  0  0  0
   -7.6293   -8.5273   -7.4622 C   0  0  0  0  0  0  0  0  0  0  0  0
   -8.1968   -7.2291   -7.2424 C   0  0  0  0  0  0  0  0  0  0  0  0
   -7.5435   -6.3660   -6.3102 C   0  0  0  0  0  0  0  0  0  0  0  0
   -8.0361   -5.0609   -6.0160 C   0  0  0  0  0  0  0  0  0  0  0  0
   -7.3925   -4.2400   -5.0938 C   0  0  0  0  0  0  0  0  0  0  0  0
   -6.2387   -4.6587   -4.4268 C   0  0  0  0  0  0  0  0  0  0  0  0
   -5.7278   -5.9390   -4.6906 C   0  0  0  0  0  0  0  0  0  0  0  0
   -6.3675   -6.7963   -5.6198 C   0  0  0  0  0  0  0  0  0  0  0  0
   -9.4704   -6.8663   -7.9957 C   0  0  0  0  0  0  0  0  0  0  0  0
  -10.0503   -5.7767   -7.9928 O   0  0  0  0  0  0  0  0  0  0  0  0
  -10.1163   -7.9435   -8.8574 C   0  0  0  0  0  0  0  0  0  0  0  0
   -9.0994   -8.8592   -9.5440 C   0  0  0  0  0  0  0  0  0  0  0  0
   -9.8627   -9.9145  -10.3604 C   0  0  0  0  0  0  0  0  0  0  0  0
   -8.1974   -8.0549  -10.5079 C   0  0  0  0  0  0  0  0  0  0  0  0
   -8.2367   -9.5239   -8.4492 C   0  0  0  0  0  0  0  0  0  0  0  0
   -4.2610   -9.5723   -5.4379 H   0  0  0  0  0  0  0  0  0  0  0  0
   -4.7048   -8.5589   -4.0667 H   0  0  0  0  0  0  0  0  0  0  0  0
   -3.7261   -7.8920   -5.3793 H   0  0  0  0  0  0  0  0  0  0  0  0
   -6.0438   -9.9049   -6.9668 H   0  0  0  0  0  0  0  0  0  0  0  0
   -8.9057   -4.6181   -6.4627 H   0  0  0  0  0  0  0  0  0  0  0  0
   -7.7998   -3.2551   -4.9092 H   0  0  0  0  0  0  0  0  0  0  0  0
   -5.7754   -3.9833   -3.7233 H   0  0  0  0  0  0  0  0  0  0  0  0
   -4.8485   -6.2537   -4.1478 H   0  0  0  0  0  0  0  0  0  0  0  0
  -10.8354   -8.5029   -8.2525 H   0  0  0  0  0  0  0  0  0  0  0  0
  -10.6867   -7.4202   -9.6210 H   0  0  0  0  0  0  0  0  0  0  0  0
   -9.1860  -10.5584  -10.9205 H   0  0  0  0  0  0  0  0  0  0  0  0
  -10.5256   -9.4383  -11.0883 H   0  0  0  0  0  0  0  0  0  0  0  0
  -10.4909  -10.5437   -9.7251 H   0  0  0  0  0  0  0  0  0  0  0  0
   -7.4333   -8.7022  -10.9204 H   0  0  0  0  0  0  0  0  0  0  0  0
   -7.6595   -7.2372  -10.0290 H   0  0  0  0  0  0  0  0  0  0  0  0
   -8.7720   -7.6267  -11.3295 H   0  0  0  0  0  0  0  0  0  0  0  0
   -7.4453  -10.1164   -8.9143 H   0  0  0  0  0  0  0  0  0  0  0  0
   -8.8358  -10.2410   -7.8788 H   0  0  0  0  0  0  0  0  0  0  0  0
  1  2  1  0
  1 19  1  0
  1 20  1  0
  1 21  1  0
  2 11  2  0
  2  3  1  0
  3  4  2  0
  3 22  1  0
  4 18  1  0
  4  5  1  0
  5  6  2  0
  5 12  1  0
  6 11  1  0
  6  7  1  0
  7  8  2  0
  7 23  1  0
  8  9  1  0
  8 24  1  0
  9 10  2  0
  9 25  1  0
 10 11  1  0
 10 26  1  0
 12 13  2  0
 12 14  1  0
 14 15  1  0
 14 27  1  0
 14 28  1  0
 15 16  1  0
 15 17  1  0
 15 18  1  0
 16 29  1  0
 16 30  1  0
 16 31  1  0
 17 32  1  0
 17 33  1  0
 17 34  1  0
 18 35  1  0
 18 36  1  0
M  END
>  <i_m_ct_stereo_status>  (84) 
1

>  <s_m_source_file>  (84) 
/var/tmp/pbs.5076255.sched01/tmphrtf3o8j/0_qqz9eae.sdf

>  <i_m_source_file_index>  (84) 
37

>  <i_lp_mmshare_version>  (84) 
48012

>  <i_f3d_flags>  (84) 
0

>  <s_epik_input>  (84) 
W2NIXTFbY0hdW2NIXVtjSF1jKGMoW0NIM10pW2NIXTIpYzFjKGMyMylDKD1PKVtDSDJdQyhbQ0gzXSkoW0NIM10pW0NIMl0z

>  <s_epik_cmdline>  (84) 
J2VwaWtfcHl0aG9uJywgJy1waHQnLCAnMi4wJywgJy1waCcsICc3LjAnLCAnLXRuJywgJzgnLCAnLW1hJywgJzIwMCcsICctaW1hZScsICc8aW5maWxlLm1hZT4nLCAnLW9tYWUnLCAnPG91dGZpbGUubWFlPic=

>  <r_lp_tautomer_probability>  (84) 
1

>  <r_epik_Ionization_Penalty>  (84) 
1.30769e-13

>  <r_epik_Ionization_Penalty_Charging>  (84) 
0

>  <r_epik_Ionization_Penalty_Neutral>  (84) 
1.30769e-13

>  <r_epik_State_Penalty>  (84) 
-0

>  <r_epik_Charging_Adjusted_Penalty>  (84) 
0

>  <i_epik_Tot_Q>  (84) 
0

>  <i_epik_Tot_abs_Q>  (84) 
0

>  <s_lp_Force_Field>  (84) 
OPLS3e

>  <r_lp_Energy>  (84) 
27.5179

>  <b_lp_Chiralities_Consistent>  (84) 
1

>  <s_lp_Variant>  (84) 
30:0-1

>  <s_i_glide_gridfile>  (84) 
pfpi4k_grid

>  <i_i_glide_lignum>  (84) 
37

>  <i_i_glide_rotatable_bonds>  (84) 
0

>  <r_i_docking_score>  (84) 
-6.87113

>  <r_i_glide_ligand_efficiency>  (84) 
-0.381729

>  <r_i_glide_ligand_efficiency_sa>  (84) 
-1.00041

>  <r_i_glide_ligand_efficiency_ln>  (84) 
-1.76619

>  <r_i_glide_gscore>  (84) 
-6.87113

>  <r_i_glide_lipo>  (84) 
-2.98406

>  <r_i_glide_hbond>  (84) 
0

>  <r_i_glide_metal>  (84) 
-0

>  <r_i_glide_rewards>  (84) 
-2.5608

>  <r_i_glide_evdw>  (84) 
-24.3805

>  <r_i_glide_ecoul>  (84) 
-0.714914

>  <r_i_glide_erotb>  (84) 
0

>  <r_i_glide_esite>  (84) 
0

>  <r_i_glide_emodel>  (84) 
-35.5234

>  <r_i_glide_energy>  (84) 
-25.0954

>  <r_i_glide_einternal>  (84) 
0

>  <r_i_glide_intrahb_reward>  (84) 
-0

>  <i_i_glide_confnum>  (84) 
4

>  <i_i_glide_posenum>  (84) 
6

>  <r_i_glide_eff_state_penalty>  (84) 
0

>  <ligand_id>  (84) 
30

>  <original_smiles>  (84) 
Cc1cc2c(c3ccccc13)C(=O)CC(C)(C)C2

>  <smiles>  (84) 
[H]c1c([H])c([H])c2c(C([H])([H])[H])c([H])c3c(c2c1[H])C(=O)C([H])([H])C(C([H])([H])[H])(C([H])([H])[H])C3([H])[H]

$$$$
30:0:1
     RDKit          3D

 36 38  0  0  1  0  0  0  0  0999 V2000
   -6.1653   -4.7256   -4.6747 C   0  0  0  0  0  0  0  0  0  0  0  0
   -6.7851   -5.7430   -5.6268 C   0  0  0  0  0  0  0  0  0  0  0  0
   -7.9005   -5.3673   -6.3984 C   0  0  0  0  0  0  0  0  0  0  0  0
   -8.5039   -6.2623   -7.3032 C   0  0  0  0  0  0  0  0  0  0  0  0
   -8.0075   -7.6021   -7.4516 C   0  0  0  0  0  0  0  0  0  0  0  0
   -6.8721   -7.9862   -6.6569 C   0  0  0  0  0  0  0  0  0  0  0  0
   -6.3097   -9.2966   -6.7204 C   0  0  0  0  0  0  0  0  0  0  0  0
   -5.1885   -9.6522   -5.9515 C   0  0  0  0  0  0  0  0  0  0  0  0
   -4.5930   -8.7194   -5.0945 C   0  0  0  0  0  0  0  0  0  0  0  0
   -5.1289   -7.4250   -5.0035 C   0  0  0  0  0  0  0  0  0  0  0  0
   -6.2649   -7.0525   -5.7690 C   0  0  0  0  0  0  0  0  0  0  0  0
   -8.6966   -8.5171   -8.4441 C   0  0  0  0  0  0  0  0  0  0  0  0
   -8.3401   -9.6463   -8.7826 O   0  0  0  0  0  0  0  0  0  0  0  0
   -9.9613   -8.0057   -9.1190 C   0  0  0  0  0  0  0  0  0  0  0  0
   -9.9441   -6.5030   -9.4257 C   0  0  0  0  0  0  0  0  0  0  0  0
   -8.8439   -6.1522  -10.4549 C   0  0  0  0  0  0  0  0  0  0  0  0
  -11.3115   -6.1426  -10.0297 C   0  0  0  0  0  0  0  0  0  0  0  0
   -9.7010   -5.7473   -8.1035 C   0  0  0  0  0  0  0  0  0  0  0  0
   -6.6713   -3.7568   -4.6845 H   0  0  0  0  0  0  0  0  0  0  0  0
   -5.1151   -4.5536   -4.9315 H   0  0  0  0  0  0  0  0  0  0  0  0
   -6.2041   -5.1117   -3.6506 H   0  0  0  0  0  0  0  0  0  0  0  0
   -8.2944   -4.3637   -6.2955 H   0  0  0  0  0  0  0  0  0  0  0  0
   -6.6917  -10.0932   -7.3315 H   0  0  0  0  0  0  0  0  0  0  0  0
   -4.8076  -10.6603   -6.0184 H   0  0  0  0  0  0  0  0  0  0  0  0
   -3.7654   -9.0187   -4.4780 H   0  0  0  0  0  0  0  0  0  0  0  0
   -4.6582   -6.7409   -4.3134 H   0  0  0  0  0  0  0  0  0  0  0  0
  -10.0540   -8.5588  -10.0503 H   0  0  0  0  0  0  0  0  0  0  0  0
  -10.8135   -8.2859   -8.4957 H   0  0  0  0  0  0  0  0  0  0  0  0
   -8.8796   -5.1045  -10.7496 H   0  0  0  0  0  0  0  0  0  0  0  0
   -8.9497   -6.7486  -11.3613 H   0  0  0  0  0  0  0  0  0  0  0  0
   -7.8397   -6.3311  -10.0692 H   0  0  0  0  0  0  0  0  0  0  0  0
  -11.4092   -5.0703  -10.1888 H   0  0  0  0  0  0  0  0  0  0  0  0
  -12.1371   -6.4669   -9.3921 H   0  0  0  0  0  0  0  0  0  0  0  0
  -11.4501   -6.6302  -10.9974 H   0  0  0  0  0  0  0  0  0  0  0  0
  -10.5844   -5.8264   -7.4632 H   0  0  0  0  0  0  0  0  0  0  0  0
   -9.5884   -4.6762   -8.3035 H   0  0  0  0  0  0  0  0  0  0  0  0
  1  2  1  0
  1 19  1  0
  1 20  1  0
  1 21  1  0
  2 11  2  0
  2  3  1  0
  3  4  2  0
  3 22  1  0
  4 18  1  0
  4  5  1  0
  5  6  2  0
  5 12  1  0
  6 11  1  0
  6  7  1  0
  7  8  2  0
  7 23  1  0
  8  9  1  0
  8 24  1  0
  9 10  2  0
  9 25  1  0
 10 11  1  0
 10 26  1  0
 12 13  2  0
 12 14  1  0
 14 15  1  0
 14 27  1  0
 14 28  1  0
 15 16  1  0
 15 17  1  0
 15 18  1  0
 16 29  1  0
 16 30  1  0
 16 31  1  0
 17 32  1  0
 17 33  1  0
 17 34  1  0
 18 35  1  0
 18 36  1  0
M  END
>  <i_m_ct_stereo_status>  (85) 
1

>  <s_m_source_file>  (85) 
/var/tmp/pbs.5076255.sched01/tmphrtf3o8j/0_qqz9eae.sdf

>  <i_m_source_file_index>  (85) 
37

>  <i_lp_mmshare_version>  (85) 
48012

>  <i_f3d_flags>  (85) 
0

>  <s_epik_input>  (85) 
W2NIXTFbY0hdW2NIXVtjSF1jKGMoW0NIM10pW2NIXTIpYzFjKGMyMylDKD1PKVtDSDJdQyhbQ0gzXSkoW0NIM10pW0NIMl0z

>  <s_epik_cmdline>  (85) 
J2VwaWtfcHl0aG9uJywgJy1waHQnLCAnMi4wJywgJy1waCcsICc3LjAnLCAnLXRuJywgJzgnLCAnLW1hJywgJzIwMCcsICctaW1hZScsICc8aW5maWxlLm1hZT4nLCAnLW9tYWUnLCAnPG91dGZpbGUubWFlPic=

>  <r_lp_tautomer_probability>  (85) 
1

>  <r_epik_Ionization_Penalty>  (85) 
1.30769e-13

>  <r_epik_Ionization_Penalty_Charging>  (85) 
0

>  <r_epik_Ionization_Penalty_Neutral>  (85) 
1.30769e-13

>  <r_epik_State_Penalty>  (85) 
-0

>  <r_epik_Charging_Adjusted_Penalty>  (85) 
0

>  <i_epik_Tot_Q>  (85) 
0

>  <i_epik_Tot_abs_Q>  (85) 
0

>  <s_lp_Force_Field>  (85) 
OPLS3e

>  <r_lp_Energy>  (85) 
27.5179

>  <b_lp_Chiralities_Consistent>  (85) 
1

>  <s_lp_Variant>  (85) 
30:0-1

>  <s_i_glide_gridfile>  (85) 
pfpi4k_grid

>  <i_i_glide_lignum>  (85) 
37

>  <i_i_glide_rotatable_bonds>  (85) 
0

>  <r_i_docking_score>  (85) 
-6.71751

>  <r_i_glide_ligand_efficiency>  (85) 
-0.373195

>  <r_i_glide_ligand_efficiency_sa>  (85) 
-0.978047

>  <r_i_glide_ligand_efficiency_ln>  (85) 
-1.7267

>  <r_i_glide_gscore>  (85) 
-6.71751

>  <r_i_glide_lipo>  (85) 
-2.72081

>  <r_i_glide_hbond>  (85) 
0

>  <r_i_glide_metal>  (85) 
-0

>  <r_i_glide_rewards>  (85) 
-2.65358

>  <r_i_glide_evdw>  (85) 
-26.1402

>  <r_i_glide_ecoul>  (85) 
-0.240699

>  <r_i_glide_erotb>  (85) 
0

>  <r_i_glide_esite>  (85) 
0

>  <r_i_glide_emodel>  (85) 
-36.6108

>  <r_i_glide_energy>  (85) 
-26.3809

>  <r_i_glide_einternal>  (85) 
0

>  <r_i_glide_intrahb_reward>  (85) 
-0

>  <i_i_glide_confnum>  (85) 
3

>  <i_i_glide_posenum>  (85) 
4

>  <r_i_glide_eff_state_penalty>  (85) 
0

>  <ligand_id>  (85) 
30

>  <original_smiles>  (85) 
Cc1cc2c(c3ccccc13)C(=O)CC(C)(C)C2

>  <smiles>  (85) 
[H]c1c([H])c([H])c2c(C([H])([H])[H])c([H])c3c(c2c1[H])C(=O)C([H])([H])C(C([H])([H])[H])(C([H])([H])[H])C3([H])[H]

$$$$
30:0:2
     RDKit          3D

 36 38  0  0  1  0  0  0  0  0999 V2000
   -5.6622   -9.4191   -6.4523 C   0  0  0  0  0  0  0  0  0  0  0  0
   -6.7130   -8.3554   -6.7663 C   0  0  0  0  0  0  0  0  0  0  0  0
   -7.8011   -8.6862   -7.5949 C   0  0  0  0  0  0  0  0  0  0  0  0
   -8.7898   -7.7344   -7.9186 C   0  0  0  0  0  0  0  0  0  0  0  0
   -8.7136   -6.3941   -7.4248 C   0  0  0  0  0  0  0  0  0  0  0  0
   -7.6026   -6.0570   -6.5792 C   0  0  0  0  0  0  0  0  0  0  0  0
   -7.4350   -4.7531   -6.0331 C   0  0  0  0  0  0  0  0  0  0  0  0
   -6.3361   -4.4439   -5.2154 C   0  0  0  0  0  0  0  0  0  0  0  0
   -5.3827   -5.4138   -4.9139 C   0  0  0  0  0  0  0  0  0  0  0  0
   -5.5065   -6.7099   -5.4242 C   0  0  0  0  0  0  0  0  0  0  0  0
   -6.6152   -7.0410   -6.2555 C   0  0  0  0  0  0  0  0  0  0  0  0
   -9.8285   -5.4321   -7.7708 C   0  0  0  0  0  0  0  0  0  0  0  0
   -9.8934   -4.2338   -7.5039 O   0  0  0  0  0  0  0  0  0  0  0  0
  -11.0087   -5.9862   -8.5613 C   0  0  0  0  0  0  0  0  0  0  0  0
  -10.6238   -7.0665   -9.5779 C   0  0  0  0  0  0  0  0  0  0  0  0
  -11.9098   -7.5525  -10.2715 C   0  0  0  0  0  0  0  0  0  0  0  0
   -9.6711   -6.5051  -10.6593 C   0  0  0  0  0  0  0  0  0  0  0  0
   -9.9377   -8.2092   -8.8096 C   0  0  0  0  0  0  0  0  0  0  0  0
   -5.8766  -10.3881   -6.9133 H   0  0  0  0  0  0  0  0  0  0  0  0
   -5.5881   -9.5710   -5.3710 H   0  0  0  0  0  0  0  0  0  0  0  0
   -4.6831   -9.0885   -6.8113 H   0  0  0  0  0  0  0  0  0  0  0  0
   -7.8844   -9.6952   -7.9740 H   0  0  0  0  0  0  0  0  0  0  0  0
   -8.1033   -3.9262   -6.2115 H   0  0  0  0  0  0  0  0  0  0  0  0
   -6.2290   -3.4435   -4.8285 H   0  0  0  0  0  0  0  0  0  0  0  0
   -4.5433   -5.1222   -4.3237 H   0  0  0  0  0  0  0  0  0  0  0  0
   -4.7386   -7.4337   -5.1737 H   0  0  0  0  0  0  0  0  0  0  0  0
  -11.7797   -6.3303   -7.8657 H   0  0  0  0  0  0  0  0  0  0  0  0
  -11.4287   -5.1434   -9.0975 H   0  0  0  0  0  0  0  0  0  0  0  0
  -11.6899   -8.2878  -11.0478 H   0  0  0  0  0  0  0  0  0  0  0  0
  -12.4322   -6.7218  -10.7489 H   0  0  0  0  0  0  0  0  0  0  0  0
  -12.6121   -7.9987   -9.5656 H   0  0  0  0  0  0  0  0  0  0  0  0
   -9.3479   -7.2903  -11.3442 H   0  0  0  0  0  0  0  0  0  0  0  0
   -8.7627   -6.0687  -10.2441 H   0  0  0  0  0  0  0  0  0  0  0  0
  -10.1588   -5.7261  -11.2443 H   0  0  0  0  0  0  0  0  0  0  0  0
   -9.5836   -8.9674   -9.5140 H   0  0  0  0  0  0  0  0  0  0  0  0
  -10.6637   -8.7277   -8.1768 H   0  0  0  0  0  0  0  0  0  0  0  0
  1  2  1  0
  1 19  1  0
  1 20  1  0
  1 21  1  0
  2 11  2  0
  2  3  1  0
  3  4  2  0
  3 22  1  0
  4 18  1  0
  4  5  1  0
  5  6  2  0
  5 12  1  0
  6 11  1  0
  6  7  1  0
  7  8  2  0
  7 23  1  0
  8  9  1  0
  8 24  1  0
  9 10  2  0
  9 25  1  0
 10 11  1  0
 10 26  1  0
 12 13  2  0
 12 14  1  0
 14 15  1  0
 14 27  1  0
 14 28  1  0
 15 16  1  0
 15 17  1  0
 15 18  1  0
 16 29  1  0
 16 30  1  0
 16 31  1  0
 17 32  1  0
 17 33  1  0
 17 34  1  0
 18 35  1  0
 18 36  1  0
M  END
>  <i_m_ct_stereo_status>  (86) 
1

>  <s_m_source_file>  (86) 
/var/tmp/pbs.5076255.sched01/tmphrtf3o8j/0_qqz9eae.sdf

>  <i_m_source_file_index>  (86) 
37

>  <i_lp_mmshare_version>  (86) 
48012

>  <i_f3d_flags>  (86) 
0

>  <s_epik_input>  (86) 
W2NIXTFbY0hdW2NIXVtjSF1jKGMoW0NIM10pW2NIXTIpYzFjKGMyMylDKD1PKVtDSDJdQyhbQ0gzXSkoW0NIM10pW0NIMl0z

>  <s_epik_cmdline>  (86) 
J2VwaWtfcHl0aG9uJywgJy1waHQnLCAnMi4wJywgJy1waCcsICc3LjAnLCAnLXRuJywgJzgnLCAnLW1hJywgJzIwMCcsICctaW1hZScsICc8aW5maWxlLm1hZT4nLCAnLW9tYWUnLCAnPG91dGZpbGUubWFlPic=

>  <r_lp_tautomer_probability>  (86) 
1

>  <r_epik_Ionization_Penalty>  (86) 
1.30769e-13

>  <r_epik_Ionization_Penalty_Charging>  (86) 
0

>  <r_epik_Ionization_Penalty_Neutral>  (86) 
1.30769e-13

>  <r_epik_State_Penalty>  (86) 
-0

>  <r_epik_Charging_Adjusted_Penalty>  (86) 
0

>  <i_epik_Tot_Q>  (86) 
0

>  <i_epik_Tot_abs_Q>  (86) 
0

>  <s_lp_Force_Field>  (86) 
OPLS3e

>  <r_lp_Energy>  (86) 
27.5179

>  <b_lp_Chiralities_Consistent>  (86) 
1

>  <s_lp_Variant>  (86) 
30:0-1

>  <s_i_glide_gridfile>  (86) 
pfpi4k_grid

>  <i_i_glide_lignum>  (86) 
37

>  <i_i_glide_rotatable_bonds>  (86) 
0

>  <r_i_docking_score>  (86) 
-6.21288

>  <r_i_glide_ligand_efficiency>  (86) 
-0.34516

>  <r_i_glide_ligand_efficiency_sa>  (86) 
-0.904575

>  <r_i_glide_ligand_efficiency_ln>  (86) 
-1.59699

>  <r_i_glide_gscore>  (86) 
-6.21288

>  <r_i_glide_lipo>  (86) 
-2.28332

>  <r_i_glide_hbond>  (86) 
0

>  <r_i_glide_metal>  (86) 
-0

>  <r_i_glide_rewards>  (86) 
-2.6206

>  <r_i_glide_evdw>  (86) 
-24.227

>  <r_i_glide_ecoul>  (86) 
-0.650777

>  <r_i_glide_erotb>  (86) 
0

>  <r_i_glide_esite>  (86) 
0

>  <r_i_glide_emodel>  (86) 
-34.2872

>  <r_i_glide_energy>  (86) 
-24.8778

>  <r_i_glide_einternal>  (86) 
0

>  <r_i_glide_intrahb_reward>  (86) 
-0

>  <i_i_glide_confnum>  (86) 
2

>  <i_i_glide_posenum>  (86) 
30

>  <r_i_glide_eff_state_penalty>  (86) 
0

>  <ligand_id>  (86) 
30

>  <original_smiles>  (86) 
Cc1cc2c(c3ccccc13)C(=O)CC(C)(C)C2

>  <smiles>  (86) 
[H]c1c([H])c([H])c2c(C([H])([H])[H])c([H])c3c(c2c1[H])C(=O)C([H])([H])C(C([H])([H])[H])(C([H])([H])[H])C3([H])[H]

$$$$
31:0:0
     RDKit          3D

 37 40  0  0  1  0  0  0  0  0999 V2000
    0.1922   -6.2701    2.4090 O   0  0  0  0  0  0  0  0  0  0  0  0
    0.8478   -7.3079    2.4745 C   0  0  0  0  0  0  0  0  0  0  0  0
    0.3570   -8.5017    2.8809 O   0  0  0  0  0  0  0  0  0  0  0  0
    1.2347   -9.5901    2.6353 C   0  0  0  0  0  0  0  0  0  0  0  0
    2.5875   -8.8929    2.4741 C   0  0  0  0  0  0  0  0  0  0  0  0
    2.1809   -7.5394    2.1416 N   0  0  0  0  0  0  0  0  0  0  0  0
    3.0035   -6.6520    1.4759 C   0  0  0  0  0  0  0  0  0  0  0  0
    4.1508   -6.8452    0.8302 C   0  0  0  0  0  0  0  0  0  0  0  0
    4.6997   -5.5507    0.3762 C   0  0  0  0  0  0  0  0  0  0  0  0
    3.6501   -4.5333    0.9128 C   0  0  2  0  0  0  0  0  0  0  0  0
    2.9294   -3.6952   -0.1928 C   0  0  0  0  0  0  0  0  0  0  0  0
    3.1908   -2.2414    0.0227 N   0  0  2  0  0  0  0  0  0  0  0  0
    4.6514   -1.9793    0.0041 C   0  0  0  0  0  0  0  0  0  0  0  0
    5.3550   -2.7186    1.1902 C   0  0  0  0  0  0  0  0  0  0  0  0
    4.2932   -3.5685    1.9358 C   0  0  1  0  0  0  0  0  0  0  0  0
    3.2179   -2.6043    2.4781 C   0  0  0  0  0  0  0  0  0  0  0  0
    2.6052   -1.7948    1.3072 C   0  0  0  0  0  0  0  0  0  0  0  0
    2.6501   -5.3347    1.5789 O   0  0  0  0  0  0  0  0  0  0  0  0
    1.2284  -10.3183    3.4374 H   0  0  0  0  0  0  0  0  0  0  0  0
    0.9571  -10.0965    1.7075 H   0  0  0  0  0  0  0  0  0  0  0  0
    3.1128   -8.8667    3.4317 H   0  0  0  0  0  0  0  0  0  0  0  0
    3.2310   -9.3694    1.7379 H   0  0  0  0  0  0  0  0  0  0  0  0
    4.6573   -7.8082    0.6753 H   0  0  0  0  0  0  0  0  0  0  0  0
    5.6845   -5.3877    0.8452 H   0  0  0  0  0  0  0  0  0  0  0  0
    4.8128   -5.5527   -0.7185 H   0  0  0  0  0  0  0  0  0  0  0  0
    3.2251   -4.0030   -1.1963 H   0  0  0  0  0  0  0  0  0  0  0  0
    1.8556   -3.8765   -0.1601 H   0  0  0  0  0  0  0  0  0  0  0  0
    5.0658   -2.3212   -0.9389 H   0  0  0  0  0  0  0  0  0  0  0  0
    4.8396   -0.9057    0.0399 H   0  0  0  0  0  0  0  0  0  0  0  0
    6.1456   -3.3873    0.8265 H   0  0  0  0  0  0  0  0  0  0  0  0
    5.7842   -1.9768    1.8730 H   0  0  0  0  0  0  0  0  0  0  0  0
    4.7395   -4.1140    2.7668 H   0  0  0  0  0  0  0  0  0  0  0  0
    2.4280   -3.1447    2.9994 H   0  0  0  0  0  0  0  0  0  0  0  0
    3.6373   -1.9237    3.2170 H   0  0  0  0  0  0  0  0  0  0  0  0
    2.7895   -0.7320    1.4299 H   0  0  0  0  0  0  0  0  0  0  0  0
    1.5275   -1.8983    1.2903 H   0  0  0  0  0  0  0  0  0  0  0  0
    2.6997   -1.7211   -0.7170 H   0  0  0  0  0  0  0  0  0  0  0  0
  1  2  2  0
  2  6  1  0
  2  3  1  0
  3  4  1  0
  4  5  1  0
  4 19  1  0
  4 20  1  0
  5  6  1  0
  5 21  1  0
  5 22  1  0
  6  7  1  0
  7 18  1  0
  7  8  2  0
  8  9  1  0
  8 23  1  0
  9 10  1  0
  9 24  1  0
  9 25  1  0
 10 15  1  0
 10 11  1  0
 10 18  1  1
 11 12  1  0
 11 26  1  0
 11 27  1  0
 12 17  1  0
 12 13  1  0
 12 37  1  6
 13 14  1  0
 13 28  1  0
 13 29  1  0
 14 15  1  0
 14 30  1  0
 14 31  1  0
 15 16  1  0
 15 32  1  1
 16 17  1  0
 16 33  1  0
 16 34  1  0
 17 35  1  0
 17 36  1  0
M  CHG  1  12   1
M  END
>  <i_m_ct_stereo_status>  (87) 
1

>  <s_m_source_file>  (87) 
/var/tmp/pbs.5076255.sched01/tmphrtf3o8j/0_qqz9eae.sdf

>  <i_m_source_file_index>  (87) 
38

>  <i_lp_mmshare_version>  (87) 
48012

>  <i_f3d_flags>  (87) 
0

>  <s_epik_input>  (87) 
Tz1DMU9bQ0gyXVtDSDJdTjFDKE8yKT1bQ0hdW0NIMl1bQ0BdMjNbQ0hdNFtDSDJdW0NIMl1OKFtDSDJdMylbQ0gyXVtDSDJdNA==

>  <s_epik_cmdline>  (87) 
J2VwaWtfcHl0aG9uJywgJy1waHQnLCAnMi4wJywgJy1waCcsICc3LjAnLCAnLXRuJywgJzgnLCAnLW1hJywgJzIwMCcsICctaW1hZScsICc8aW5maWxlLm1hZT4nLCAnLW9tYWUnLCAnPG91dGZpbGUubWFlPic=

>  <r_lp_tautomer_probability>  (87) 
1

>  <r_epik_Ionization_Penalty>  (87) 
3.83137e-05

>  <r_epik_Ionization_Penalty_Charging>  (87) 
3.83127e-05

>  <r_epik_Ionization_Penalty_Neutral>  (87) 
1.07633e-09

>  <r_epik_State_Penalty>  (87) 
-0

>  <r_epik_Charging_Adjusted_Penalty>  (87) 
3.83127e-05

>  <i_epik_Tot_Q>  (87) 
1

>  <i_epik_Tot_abs_Q>  (87) 
1

>  <s_epik_Chemistry_Notes>  (87) 
This compound has an ester and may undergo hydrolysis at high or low pH.

>  <s_lp_Force_Field>  (87) 
OPLS3e

>  <r_lp_Energy>  (87) 
15.7853

>  <b_lp_Chiralities_Consistent>  (87) 
1

>  <s_lp_Variant>  (87) 
31:0-1

>  <s_i_glide_gridfile>  (87) 
pfpi4k_grid

>  <i_i_glide_lignum>  (87) 
38

>  <i_i_glide_rotatable_bonds>  (87) 
1

>  <r_i_docking_score>  (87) 
-4.20603

>  <r_i_glide_ligand_efficiency>  (87) 
-0.233668

>  <r_i_glide_ligand_efficiency_sa>  (87) 
-0.612385

>  <r_i_glide_ligand_efficiency_ln>  (87) 
-1.08114

>  <r_i_glide_gscore>  (87) 
-4.20603

>  <r_i_glide_lipo>  (87) 
-0.410582

>  <r_i_glide_hbond>  (87) 
-0.271123

>  <r_i_glide_metal>  (87) 
-0

>  <r_i_glide_rewards>  (87) 
-1.69567

>  <r_i_glide_evdw>  (87) 
-19.2048

>  <r_i_glide_ecoul>  (87) 
-6.86692

>  <r_i_glide_erotb>  (87) 
0.277518

>  <r_i_glide_esite>  (87) 
-0.115896

>  <r_i_glide_emodel>  (87) 
-33.4028

>  <r_i_glide_energy>  (87) 
-26.0717

>  <r_i_glide_einternal>  (87) 
1.45475

>  <r_i_glide_intrahb_reward>  (87) 
-0

>  <i_i_glide_confnum>  (87) 
3

>  <i_i_glide_posenum>  (87) 
29

>  <r_i_glide_eff_state_penalty>  (87) 
0

>  <ligand_id>  (87) 
31

>  <original_smiles>  (87) 
O=C1OCCN1C1=CCC2(CN3CCC2CC3)O1

>  <smiles>  (87) 
[H]C1=C(N2C(=O)OC([H])([H])C2([H])[H])OC2(C1([H])[H])C1([H])C([H])([H])C([H])([H])[N+]([H])(C([H])([H])C1([H])[H])C2([H])[H]

$$$$
31:0:1
     RDKit          3D

 37 40  0  0  1  0  0  0  0  0999 V2000
    1.0203   -6.0410    1.3543 O   0  0  0  0  0  0  0  0  0  0  0  0
    1.6543   -7.0443    1.6747 C   0  0  0  0  0  0  0  0  0  0  0  0
    1.0921   -8.2281    1.9804 O   0  0  0  0  0  0  0  0  0  0  0  0
    2.0229   -9.2921    2.1047 C   0  0  0  0  0  0  0  0  0  0  0  0
    3.3309   -8.5420    2.3456 C   0  0  0  0  0  0  0  0  0  0  0  0
    3.0253   -7.2467    1.7827 N   0  0  0  0  0  0  0  0  0  0  0  0
    4.0204   -6.3573    1.3933 C   0  0  0  0  0  0  0  0  0  0  0  0
    5.3506   -6.4742    1.4191 C   0  0  0  0  0  0  0  0  0  0  0  0
    5.9727   -5.2299    0.9491 C   0  0  0  0  0  0  0  0  0  0  0  0
    4.7394   -4.3346    0.6164 C   0  0  2  0  0  0  0  0  0  0  0  0
    4.6387   -3.9069   -0.8799 C   0  0  0  0  0  0  0  0  0  0  0  0
    4.6970   -2.4203   -0.9905 N   0  0  2  0  0  0  0  0  0  0  0  0
    5.9448   -1.9021   -0.3668 C   0  0  0  0  0  0  0  0  0  0  0  0
    5.9790   -2.2233    1.1573 C   0  0  0  0  0  0  0  0  0  0  0  0
    4.7263   -3.0741    1.5087 C   0  0  1  0  0  0  0  0  0  0  0  0
    3.4783   -2.2314    1.1719 C   0  0  0  0  0  0  0  0  0  0  0  0
    3.5104   -1.8276   -0.3275 C   0  0  0  0  0  0  0  0  0  0  0  0
    3.5868   -5.1474    0.9425 O   0  0  0  0  0  0  0  0  0  0  0  0
    1.7632   -9.9740    2.9049 H   0  0  0  0  0  0  0  0  0  0  0  0
    2.0742   -9.8551    1.1676 H   0  0  0  0  0  0  0  0  0  0  0  0
    3.5013   -8.4219    3.4184 H   0  0  0  0  0  0  0  0  0  0  0  0
    4.1948   -9.0386    1.9081 H   0  0  0  0  0  0  0  0  0  0  0  0
    5.9259   -7.3387    1.7843 H   0  0  0  0  0  0  0  0  0  0  0  0
    6.5724   -4.7986    1.7732 H   0  0  0  0  0  0  0  0  0  0  0  0
    6.6369   -5.4154    0.0865 H   0  0  0  0  0  0  0  0  0  0  0  0
    5.4093   -4.3679   -1.4955 H   0  0  0  0  0  0  0  0  0  0  0  0
    3.6989   -4.2532   -1.3102 H   0  0  0  0  0  0  0  0  0  0  0  0
    6.7990   -2.3561   -0.8619 H   0  0  0  0  0  0  0  0  0  0  0  0
    6.0173   -0.8274   -0.5336 H   0  0  0  0  0  0  0  0  0  0  0  0
    6.8867   -2.7847    1.4064 H   0  0  0  0  0  0  0  0  0  0  0  0
    5.9685   -1.2885    1.7320 H   0  0  0  0  0  0  0  0  0  0  0  0
    4.7157   -3.3414    2.5661 H   0  0  0  0  0  0  0  0  0  0  0  0
    2.5578   -2.7803    1.3854 H   0  0  0  0  0  0  0  0  0  0  0  0
    3.4347   -1.3397    1.7961 H   0  0  0  0  0  0  0  0  0  0  0  0
    3.5353   -0.7442   -0.4312 H   0  0  0  0  0  0  0  0  0  0  0  0
    2.6156   -2.1649   -0.8429 H   0  0  0  0  0  0  0  0  0  0  0  0
    4.6636   -2.1793   -1.9759 H   0  0  0  0  0  0  0  0  0  0  0  0
  1  2  2  0
  2  6  1  0
  2  3  1  0
  3  4  1  0
  4  5  1  0
  4 19  1  0
  4 20  1  0
  5  6  1  0
  5 21  1  0
  5 22  1  0
  6  7  1  0
  7 18  1  0
  7  8  2  0
  8  9  1  0
  8 23  1  0
  9 10  1  0
  9 24  1  0
  9 25  1  0
 10 15  1  0
 10 11  1  0
 10 18  1  1
 11 12  1  0
 11 26  1  0
 11 27  1  0
 12 17  1  0
 12 13  1  0
 12 37  1  6
 13 14  1  0
 13 28  1  0
 13 29  1  0
 14 15  1  0
 14 30  1  0
 14 31  1  0
 15 16  1  0
 15 32  1  1
 16 17  1  0
 16 33  1  0
 16 34  1  0
 17 35  1  0
 17 36  1  0
M  CHG  1  12   1
M  END
>  <i_m_ct_stereo_status>  (88) 
1

>  <s_m_source_file>  (88) 
/var/tmp/pbs.5076255.sched01/tmphrtf3o8j/0_qqz9eae.sdf

>  <i_m_source_file_index>  (88) 
38

>  <i_lp_mmshare_version>  (88) 
48012

>  <i_f3d_flags>  (88) 
0

>  <s_epik_input>  (88) 
Tz1DMU9bQ0gyXVtDSDJdTjFDKE8yKT1bQ0hdW0NIMl1bQ0BdMjNbQ0hdNFtDSDJdW0NIMl1OKFtDSDJdMylbQ0gyXVtDSDJdNA==

>  <s_epik_cmdline>  (88) 
J2VwaWtfcHl0aG9uJywgJy1waHQnLCAnMi4wJywgJy1waCcsICc3LjAnLCAnLXRuJywgJzgnLCAnLW1hJywgJzIwMCcsICctaW1hZScsICc8aW5maWxlLm1hZT4nLCAnLW9tYWUnLCAnPG91dGZpbGUubWFlPic=

>  <r_lp_tautomer_probability>  (88) 
1

>  <r_epik_Ionization_Penalty>  (88) 
3.83137e-05

>  <r_epik_Ionization_Penalty_Charging>  (88) 
3.83127e-05

>  <r_epik_Ionization_Penalty_Neutral>  (88) 
1.07633e-09

>  <r_epik_State_Penalty>  (88) 
-0

>  <r_epik_Charging_Adjusted_Penalty>  (88) 
3.83127e-05

>  <i_epik_Tot_Q>  (88) 
1

>  <i_epik_Tot_abs_Q>  (88) 
1

>  <s_epik_Chemistry_Notes>  (88) 
This compound has an ester and may undergo hydrolysis at high or low pH.

>  <s_lp_Force_Field>  (88) 
OPLS3e

>  <r_lp_Energy>  (88) 
15.7853

>  <b_lp_Chiralities_Consistent>  (88) 
1

>  <s_lp_Variant>  (88) 
31:0-1

>  <s_i_glide_gridfile>  (88) 
pfpi4k_grid

>  <i_i_glide_lignum>  (88) 
38

>  <i_i_glide_rotatable_bonds>  (88) 
1

>  <r_i_docking_score>  (88) 
-3.87786

>  <r_i_glide_ligand_efficiency>  (88) 
-0.215436

>  <r_i_glide_ligand_efficiency_sa>  (88) 
-0.564603

>  <r_i_glide_ligand_efficiency_ln>  (88) 
-0.996783

>  <r_i_glide_gscore>  (88) 
-3.87786

>  <r_i_glide_lipo>  (88) 
-0.499429

>  <r_i_glide_hbond>  (88) 
-0.16

>  <r_i_glide_metal>  (88) 
-0

>  <r_i_glide_rewards>  (88) 
-1.7421

>  <r_i_glide_evdw>  (88) 
-19.7263

>  <r_i_glide_ecoul>  (88) 
-4.77741

>  <r_i_glide_erotb>  (88) 
0.277518

>  <r_i_glide_esite>  (88) 
-0.050913

>  <r_i_glide_emodel>  (88) 
-31.8991

>  <r_i_glide_energy>  (88) 
-24.5037

>  <r_i_glide_einternal>  (88) 
0.0932101

>  <r_i_glide_intrahb_reward>  (88) 
-0

>  <i_i_glide_confnum>  (88) 
1

>  <i_i_glide_posenum>  (88) 
8

>  <r_i_glide_eff_state_penalty>  (88) 
0

>  <ligand_id>  (88) 
31

>  <original_smiles>  (88) 
O=C1OCCN1C1=CCC2(CN3CCC2CC3)O1

>  <smiles>  (88) 
[H]C1=C(N2C(=O)OC([H])([H])C2([H])[H])OC2(C1([H])[H])C1([H])C([H])([H])C([H])([H])[N+]([H])(C([H])([H])C1([H])[H])C2([H])[H]

$$$$
31:0:2
     RDKit          3D

 37 40  0  0  1  0  0  0  0  0999 V2000
   -0.5055    0.8057    8.1172 O   0  0  0  0  0  0  0  0  0  0  0  0
   -1.2930    1.7484    8.2198 C   0  0  0  0  0  0  0  0  0  0  0  0
   -1.8285    2.1761    9.3669 O   0  0  0  0  0  0  0  0  0  0  0  0
   -2.6334    3.3401    9.2271 C   0  0  0  0  0  0  0  0  0  0  0  0
   -2.9342    3.3392    7.7335 C   0  0  0  0  0  0  0  0  0  0  0  0
   -1.8405    2.5456    7.2212 N   0  0  0  0  0  0  0  0  0  0  0  0
   -1.4661    2.5676    5.8753 C   0  0  0  0  0  0  0  0  0  0  0  0
   -2.0388    3.1501    4.8287 C   0  0  0  0  0  0  0  0  0  0  0  0
   -1.2225    2.8850    3.6145 C   0  0  0  0  0  0  0  0  0  0  0  0
   -0.0335    2.0500    4.1866 C   0  0  2  0  0  0  0  0  0  0  0  0
    1.3701    2.7117    3.9841 C   0  0  0  0  0  0  0  0  0  0  0  0
    2.2316    1.8401    3.1369 N   0  0  2  0  0  0  0  0  0  0  0  0
    1.5653    1.5665    1.8351 C   0  0  0  0  0  0  0  0  0  0  0  0
    0.2299    0.8081    2.0422 C   0  0  0  0  0  0  0  0  0  0  0  0
   -0.0255    0.6394    3.5551 C   0  0  1  0  0  0  0  0  0  0  0  0
    1.1514   -0.1679    4.1380 C   0  0  0  0  0  0  0  0  0  0  0  0
    2.4900    0.5570    3.8409 C   0  0  0  0  0  0  0  0  0  0  0  0
   -0.2964    1.9176    5.5987 O   0  0  0  0  0  0  0  0  0  0  0  0
   -3.5311    3.3079    9.8386 H   0  0  0  0  0  0  0  0  0  0  0  0
   -2.0500    4.2203    9.5040 H   0  0  0  0  0  0  0  0  0  0  0  0
   -3.8720    2.8208    7.5223 H   0  0  0  0  0  0  0  0  0  0  0  0
   -2.9797    4.3389    7.3116 H   0  0  0  0  0  0  0  0  0  0  0  0
   -2.9689    3.7062    4.8219 H   0  0  0  0  0  0  0  0  0  0  0  0
   -1.8344    2.3017    2.9209 H   0  0  0  0  0  0  0  0  0  0  0  0
   -0.9073    3.8069    3.1189 H   0  0  0  0  0  0  0  0  0  0  0  0
    1.2883    3.7017    3.5385 H   0  0  0  0  0  0  0  0  0  0  0  0
    1.8556    2.8700    4.9483 H   0  0  0  0  0  0  0  0  0  0  0  0
    1.3856    2.5084    1.3311 H   0  0  0  0  0  0  0  0  0  0  0  0
    2.2340    1.0046    1.1867 H   0  0  0  0  0  0  0  0  0  0  0  0
   -0.5866    1.3567    1.5598 H   0  0  0  0  0  0  0  0  0  0  0  0
    0.2901   -0.1702    1.5613 H   0  0  0  0  0  0  0  0  0  0  0  0
   -0.9676    0.1267    3.7414 H   0  0  0  0  0  0  0  0  0  0  0  0
    1.0351   -0.3074    5.2117 H   0  0  0  0  0  0  0  0  0  0  0  0
    1.1693   -1.1693    3.7124 H   0  0  0  0  0  0  0  0  0  0  0  0
    3.1323   -0.0608    3.2212 H   0  0  0  0  0  0  0  0  0  0  0  0
    3.0458    0.7418    4.7567 H   0  0  0  0  0  0  0  0  0  0  0  0
    3.1107    2.3196    2.9667 H   0  0  0  0  0  0  0  0  0  0  0  0
  1  2  2  0
  2  6  1  0
  2  3  1  0
  3  4  1  0
  4  5  1  0
  4 19  1  0
  4 20  1  0
  5  6  1  0
  5 21  1  0
  5 22  1  0
  6  7  1  0
  7 18  1  0
  7  8  2  0
  8  9  1  0
  8 23  1  0
  9 10  1  0
  9 24  1  0
  9 25  1  0
 10 15  1  0
 10 11  1  0
 10 18  1  1
 11 12  1  0
 11 26  1  0
 11 27  1  0
 12 17  1  0
 12 13  1  0
 12 37  1  6
 13 14  1  0
 13 28  1  0
 13 29  1  0
 14 15  1  0
 14 30  1  0
 14 31  1  0
 15 16  1  0
 15 32  1  6
 16 17  1  0
 16 33  1  0
 16 34  1  0
 17 35  1  0
 17 36  1  0
M  CHG  1  12   1
M  END
>  <i_m_ct_stereo_status>  (89) 
1

>  <s_m_source_file>  (89) 
/var/tmp/pbs.5076255.sched01/tmphrtf3o8j/0_qqz9eae.sdf

>  <i_m_source_file_index>  (89) 
38

>  <i_lp_mmshare_version>  (89) 
48012

>  <i_f3d_flags>  (89) 
0

>  <s_epik_input>  (89) 
Tz1DMU9bQ0gyXVtDSDJdTjFDKE8yKT1bQ0hdW0NIMl1bQ0BdMjNbQ0hdNFtDSDJdW0NIMl1OKFtDSDJdMylbQ0gyXVtDSDJdNA==

>  <s_epik_cmdline>  (89) 
J2VwaWtfcHl0aG9uJywgJy1waHQnLCAnMi4wJywgJy1waCcsICc3LjAnLCAnLXRuJywgJzgnLCAnLW1hJywgJzIwMCcsICctaW1hZScsICc8aW5maWxlLm1hZT4nLCAnLW9tYWUnLCAnPG91dGZpbGUubWFlPic=

>  <r_lp_tautomer_probability>  (89) 
1

>  <r_epik_Ionization_Penalty>  (89) 
3.83137e-05

>  <r_epik_Ionization_Penalty_Charging>  (89) 
3.83127e-05

>  <r_epik_Ionization_Penalty_Neutral>  (89) 
1.07633e-09

>  <r_epik_State_Penalty>  (89) 
-0

>  <r_epik_Charging_Adjusted_Penalty>  (89) 
3.83127e-05

>  <i_epik_Tot_Q>  (89) 
1

>  <i_epik_Tot_abs_Q>  (89) 
1

>  <s_epik_Chemistry_Notes>  (89) 
This compound has an ester and may undergo hydrolysis at high or low pH.

>  <s_lp_Force_Field>  (89) 
OPLS3e

>  <r_lp_Energy>  (89) 
15.7853

>  <b_lp_Chiralities_Consistent>  (89) 
1

>  <s_lp_Variant>  (89) 
31:0-1

>  <s_i_glide_gridfile>  (89) 
pfpi4k_grid

>  <i_i_glide_lignum>  (89) 
38

>  <i_i_glide_rotatable_bonds>  (89) 
1

>  <r_i_docking_score>  (89) 
-3.18667

>  <r_i_glide_ligand_efficiency>  (89) 
-0.177037

>  <r_i_glide_ligand_efficiency_sa>  (89) 
-0.463968

>  <r_i_glide_ligand_efficiency_ln>  (89) 
-0.819117

>  <r_i_glide_gscore>  (89) 
-3.18667

>  <r_i_glide_lipo>  (89) 
-0.164795

>  <r_i_glide_hbond>  (89) 
0

>  <r_i_glide_metal>  (89) 
-0

>  <r_i_glide_rewards>  (89) 
-1.72307

>  <r_i_glide_evdw>  (89) 
-19.5235

>  <r_i_glide_ecoul>  (89) 
-3.70462

>  <r_i_glide_erotb>  (89) 
0.277518

>  <r_i_glide_esite>  (89) 
-0.0444523

>  <r_i_glide_emodel>  (89) 
-29.1855

>  <r_i_glide_energy>  (89) 
-23.2281

>  <r_i_glide_einternal>  (89) 
0.155301

>  <r_i_glide_intrahb_reward>  (89) 
-0

>  <i_i_glide_confnum>  (89) 
3

>  <i_i_glide_posenum>  (89) 
30

>  <r_i_glide_eff_state_penalty>  (89) 
0

>  <ligand_id>  (89) 
31

>  <original_smiles>  (89) 
O=C1OCCN1C1=CCC2(CN3CCC2CC3)O1

>  <smiles>  (89) 
[H]C1=C(N2C(=O)OC([H])([H])C2([H])[H])OC2(C1([H])[H])C1([H])C([H])([H])C([H])([H])[N+]([H])(C([H])([H])C1([H])[H])C2([H])[H]

$$$$
32:0:0
     RDKit          3D

 36 40  0  0  1  0  0  0  0  0999 V2000
    3.6751    0.3012   -4.9474 C   0  0  0  0  0  0  0  0  0  0  0  0
    3.6374   -0.7631   -3.8681 C   0  0  0  0  0  0  0  0  0  0  0  0
    3.0081   -0.7082   -2.7292 C   0  0  0  0  0  0  0  0  0  0  0  0
    3.1733   -1.9299   -1.8550 C   0  0  2  0  0  0  0  0  0  0  0  0
    3.8467   -1.6586   -0.4819 C   0  0  1  0  0  0  0  0  0  0  0  0
    3.0594   -0.8860    0.3854 O   0  0  0  0  0  0  0  0  0  0  0  0
    4.2066   -2.9641    0.2533 C   0  0  1  0  0  0  0  0  0  0  0  0
    3.0657   -3.7698    0.4674 O   0  0  0  0  0  0  0  0  0  0  0  0
    3.4070   -5.0771    0.1584 C   0  0  0  0  0  0  0  0  0  0  0  0
    4.7445   -5.1591   -0.1769 O   0  0  0  0  0  0  0  0  0  0  0  0
    5.0608   -3.8644   -0.6071 C   0  0  2  0  0  0  0  0  0  0  0  0
    6.5729   -3.6582   -0.6606 C   0  0  2  0  0  0  0  0  0  0  0  0
    7.0529   -2.2533   -0.5629 C   0  0  0  0  0  0  0  0  0  0  0  0
    7.6064   -1.7596    0.4232 O   0  0  0  0  0  0  0  0  0  0  0  0
    6.6622   -1.8784   -1.8249 O   0  0  0  0  0  0  0  0  0  0  0  0
    6.4362   -3.2749   -2.1237 C   0  0  2  0  0  0  0  0  0  0  0  0
    4.9942   -3.7514   -2.1395 C   0  0  2  0  0  0  0  0  0  0  0  0
    3.8955   -2.9034   -2.7997 C   0  0  1  0  0  0  0  0  0  0  0  0
    2.9257   -3.7378   -3.3856 O   0  0  0  0  0  0  0  0  0  0  0  0
    4.3356   -2.0692   -3.9944 C   0  0  0  0  0  0  0  0  0  0  0  0
    4.6914    0.6144   -5.1270 H   0  0  0  0  0  0  0  0  0  0  0  0
    3.1325    1.1984   -4.6467 H   0  0  0  0  0  0  0  0  0  0  0  0
    3.2706   -0.0714   -5.8828 H   0  0  0  0  0  0  0  0  0  0  0  0
    2.3259    0.0875   -2.4955 H   0  0  0  0  0  0  0  0  0  0  0  0
    2.1992   -2.3636   -1.6719 H   0  0  0  0  0  0  0  0  0  0  0  0
    4.7563   -1.0798   -0.6514 H   0  0  0  0  0  0  0  0  0  0  0  0
    2.1322   -0.9629    0.0637 H   0  0  0  0  0  0  0  0  0  0  0  0
    4.6984   -2.7761    1.2090 H   0  0  0  0  0  0  0  0  0  0  0  0
    3.1765   -5.7516    0.9806 H   0  0  0  0  0  0  0  0  0  0  0  0
    2.7979   -5.3430   -0.6988 H   0  0  0  0  0  0  0  0  0  0  0  0
    7.2529   -4.4822   -0.4703 H   0  0  0  0  0  0  0  0  0  0  0  0
    7.1599   -3.7746   -2.7685 H   0  0  0  0  0  0  0  0  0  0  0  0
    5.0579   -4.7467   -2.5631 H   0  0  0  0  0  0  0  0  0  0  0  0
    2.8936   -4.5481   -2.8865 H   0  0  0  0  0  0  0  0  0  0  0  0
    4.0144   -2.5213   -4.9270 H   0  0  0  0  0  0  0  0  0  0  0  0
    5.3873   -1.8620   -3.9165 H   0  0  0  0  0  0  0  0  0  0  0  0
  1  2  1  0
  1 21  1  0
  1 22  1  0
  1 23  1  0
  2 20  1  0
  2  3  2  0
  3  4  1  0
  3 24  1  0
  4 18  1  0
  4  5  1  0
  4 25  1  1
  5  6  1  0
  5  7  1  0
  5 26  1  6
  6 27  1  0
  7 11  1  0
  7  8  1  0
  7 28  1  1
  8  9  1  0
  9 10  1  0
  9 29  1  0
  9 30  1  0
 11 10  1  6
 11 17  1  0
 11 12  1  0
 12 16  1  0
 12 13  1  0
 12 31  1  6
 13 14  2  0
 13 15  1  0
 15 16  1  0
 16 17  1  0
 16 32  1  6
 17 18  1  0
 17 33  1  6
 18 19  1  6
 18 20  1  0
 19 34  1  0
 20 35  1  0
 20 36  1  0
M  END
>  <i_m_ct_stereo_status>  (90) 
1

>  <s_m_source_file>  (90) 
/var/tmp/pbs.5076255.sched01/tmphrtf3o8j/0_qqz9eae.sdf

>  <i_m_source_file_index>  (90) 
39

>  <i_lp_mmshare_version>  (90) 
48012

>  <i_f3d_flags>  (90) 
0

>  <s_epik_input>  (90) 
Tz1DKE8xKVtDQEhdMltDQEhdMVtDQEBIXTNbQ0BdKFtPSF0pKFtDSDJdQyhbQ0gzXSk9W0NIXTQpW0NASF00W0NAQEhdKFtPSF0pW0NASF0oW0NAXTIzNSlPW0NIMl1PNQ==

>  <s_epik_cmdline>  (90) 
J2VwaWtfcHl0aG9uJywgJy1waHQnLCAnMi4wJywgJy1waCcsICc3LjAnLCAnLXRuJywgJzgnLCAnLW1hJywgJzIwMCcsICctaW1hZScsICc8aW5maWxlLm1hZT4nLCAnLW9tYWUnLCAnPG91dGZpbGUubWFlPic=

>  <r_lp_tautomer_probability>  (90) 
1

>  <r_epik_Ionization_Penalty>  (90) 
1.94389e-07

>  <r_epik_Ionization_Penalty_Charging>  (90) 
0

>  <r_epik_Ionization_Penalty_Neutral>  (90) 
1.94389e-07

>  <r_epik_State_Penalty>  (90) 
-0

>  <r_epik_Charging_Adjusted_Penalty>  (90) 
0

>  <i_epik_Tot_Q>  (90) 
0

>  <i_epik_Tot_abs_Q>  (90) 
0

>  <s_epik_Chemistry_Notes>  (90) 
This compound has an ester and may undergo hydrolysis at high or low pH. This compound contains an acetal/aminal-like group ( X-CH(R)-Y where X, Y are N, S, or O) that may be acid/base labile, releasing an aldehyde.

>  <s_lp_Force_Field>  (90) 
OPLS3e

>  <r_lp_Energy>  (90) 
7.32197

>  <b_lp_Chiralities_Consistent>  (90) 
1

>  <s_lp_Variant>  (90) 
32:0-1

>  <s_i_glide_gridfile>  (90) 
pfpi4k_grid

>  <i_i_glide_lignum>  (90) 
39

>  <i_i_glide_rotatable_bonds>  (90) 
2

>  <r_i_docking_score>  (90) 
-4.75038

>  <r_i_glide_ligand_efficiency>  (90) 
-0.237519

>  <r_i_glide_ligand_efficiency_sa>  (90) 
-0.644726

>  <r_i_glide_ligand_efficiency_ln>  (90) 
-1.18886

>  <r_i_glide_gscore>  (90) 
-4.75038

>  <r_i_glide_lipo>  (90) 
-0.653709

>  <r_i_glide_hbond>  (90) 
-0.466836

>  <r_i_glide_metal>  (90) 
-0

>  <r_i_glide_rewards>  (90) 
-1.49814

>  <r_i_glide_evdw>  (90) 
-7.91351

>  <r_i_glide_ecoul>  (90) 
-11.062

>  <r_i_glide_erotb>  (90) 
0

>  <r_i_glide_esite>  (90) 
-0.0767257

>  <r_i_glide_emodel>  (90) 
-21.7223

>  <r_i_glide_energy>  (90) 
-18.9755

>  <r_i_glide_einternal>  (90) 
2.10537

>  <r_i_glide_intrahb_reward>  (90) 
-0

>  <i_i_glide_confnum>  (90) 
2

>  <i_i_glide_posenum>  (90) 
25

>  <r_i_glide_eff_state_penalty>  (90) 
0

>  <ligand_id>  (90) 
32

>  <original_smiles>  (90) 
CC1=CC2C(O)C3OCOC34C3C(=O)OC3C4C2(O)C1

>  <smiles>  (90) 
[H]OC1([H])C2([H])OC([H])([H])OC23C2([H])C(=O)OC2([H])C3([H])C2(O[H])C([H])([H])C(C([H])([H])[H])=C([H])C12[H]

$$$$
32:0:1
     RDKit          3D

 36 40  0  0  1  0  0  0  0  0999 V2000
    3.3064   -0.2120   -4.1614 C   0  0  0  0  0  0  0  0  0  0  0  0
    3.6231   -1.3568   -3.2063 C   0  0  0  0  0  0  0  0  0  0  0  0
    2.7970   -2.0440   -2.4343 C   0  0  0  0  0  0  0  0  0  0  0  0
    3.4734   -3.1035   -1.6081 C   0  0  2  0  0  0  0  0  0  0  0  0
    3.4236   -2.8360   -0.1017 C   0  0  1  0  0  0  0  0  0  0  0  0
    2.1656   -3.0200    0.3512 O   0  0  0  0  0  0  0  0  0  0  0  0
    4.2690   -3.7851    0.7395 C   0  0  1  0  0  0  0  0  0  0  0  0
    3.9300   -5.1328    0.4742 O   0  0  0  0  0  0  0  0  0  0  0  0
    5.1077   -5.8349    0.3058 C   0  0  0  0  0  0  0  0  0  0  0  0
    6.1815   -5.0048    0.5736 O   0  0  0  0  0  0  0  0  0  0  0  0
    5.6992   -3.7087    0.3010 C   0  0  2  0  0  0  0  0  0  0  0  0
    6.6037   -2.6103    0.8755 C   0  0  2  0  0  0  0  0  0  0  0  0
    5.9515   -1.2614    1.1735 C   0  0  0  0  0  0  0  0  0  0  0  0
    5.6421   -0.7991    2.2742 O   0  0  0  0  0  0  0  0  0  0  0  0
    5.8889   -0.8564   -0.1339 O   0  0  0  0  0  0  0  0  0  0  0  0
    6.7013   -1.9974   -0.5177 C   0  0  2  0  0  0  0  0  0  0  0  0
    6.0329   -3.2334   -1.1214 C   0  0  2  0  0  0  0  0  0  0  0  0
    4.9158   -3.1168   -2.1653 C   0  0  1  0  0  0  0  0  0  0  0  0
    5.0109   -4.2349   -3.0190 O   0  0  0  0  0  0  0  0  0  0  0  0
    5.0182   -1.8532   -3.0445 C   0  0  0  0  0  0  0  0  0  0  0  0
    3.8780    0.6791   -3.8961 H   0  0  0  0  0  0  0  0  0  0  0  0
    2.2488    0.0609   -4.1260 H   0  0  0  0  0  0  0  0  0  0  0  0
    3.5479   -0.4772   -5.1941 H   0  0  0  0  0  0  0  0  0  0  0  0
    1.7417   -1.9000   -2.3728 H   0  0  0  0  0  0  0  0  0  0  0  0
    2.9498   -4.0280   -1.8276 H   0  0  0  0  0  0  0  0  0  0  0  0
    3.6421   -1.7913    0.1146 H   0  0  0  0  0  0  0  0  0  0  0  0
    1.6598   -2.3166   -0.0489 H   0  0  0  0  0  0  0  0  0  0  0  0
    4.1444   -3.5971    1.8096 H   0  0  0  0  0  0  0  0  0  0  0  0
    5.1401   -6.7021    0.9677 H   0  0  0  0  0  0  0  0  0  0  0  0
    5.1436   -6.1648   -0.7355 H   0  0  0  0  0  0  0  0  0  0  0  0
    7.5646   -2.8824    1.2906 H   0  0  0  0  0  0  0  0  0  0  0  0
    7.7417   -1.8119   -0.8134 H   0  0  0  0  0  0  0  0  0  0  0  0
    6.8651   -3.8318   -1.4931 H   0  0  0  0  0  0  0  0  0  0  0  0
    4.3836   -4.8873   -2.7234 H   0  0  0  0  0  0  0  0  0  0  0  0
    5.3883   -2.1201   -4.0028 H   0  0  0  0  0  0  0  0  0  0  0  0
    5.6051   -1.0367   -2.6200 H   0  0  0  0  0  0  0  0  0  0  0  0
  1  2  1  0
  1 21  1  0
  1 22  1  0
  1 23  1  0
  2 20  1  0
  2  3  2  0
  3  4  1  0
  3 24  1  0
  4 18  1  0
  4  5  1  0
  4 25  1  1
  5  6  1  0
  5  7  1  0
  5 26  1  6
  6 27  1  0
  7 11  1  0
  7  8  1  0
  7 28  1  1
  8  9  1  0
  9 10  1  0
  9 29  1  0
  9 30  1  0
 11 10  1  6
 11 17  1  0
 11 12  1  0
 12 16  1  0
 12 13  1  0
 12 31  1  1
 13 14  2  0
 13 15  1  0
 15 16  1  0
 16 17  1  0
 16 32  1  6
 17 18  1  0
 17 33  1  6
 18 19  1  6
 18 20  1  0
 19 34  1  0
 20 35  1  0
 20 36  1  0
M  END
>  <i_m_ct_stereo_status>  (91) 
1

>  <s_m_source_file>  (91) 
/var/tmp/pbs.5076255.sched01/tmphrtf3o8j/0_qqz9eae.sdf

>  <i_m_source_file_index>  (91) 
39

>  <i_lp_mmshare_version>  (91) 
48012

>  <i_f3d_flags>  (91) 
0

>  <s_epik_input>  (91) 
Tz1DKE8xKVtDQEhdMltDQEhdMVtDQEBIXTNbQ0BdKFtPSF0pKFtDSDJdQyhbQ0gzXSk9W0NIXTQpW0NASF00W0NAQEhdKFtPSF0pW0NASF0oW0NAXTIzNSlPW0NIMl1PNQ==

>  <s_epik_cmdline>  (91) 
J2VwaWtfcHl0aG9uJywgJy1waHQnLCAnMi4wJywgJy1waCcsICc3LjAnLCAnLXRuJywgJzgnLCAnLW1hJywgJzIwMCcsICctaW1hZScsICc8aW5maWxlLm1hZT4nLCAnLW9tYWUnLCAnPG91dGZpbGUubWFlPic=

>  <r_lp_tautomer_probability>  (91) 
1

>  <r_epik_Ionization_Penalty>  (91) 
1.94389e-07

>  <r_epik_Ionization_Penalty_Charging>  (91) 
0

>  <r_epik_Ionization_Penalty_Neutral>  (91) 
1.94389e-07

>  <r_epik_State_Penalty>  (91) 
-0

>  <r_epik_Charging_Adjusted_Penalty>  (91) 
0

>  <i_epik_Tot_Q>  (91) 
0

>  <i_epik_Tot_abs_Q>  (91) 
0

>  <s_epik_Chemistry_Notes>  (91) 
This compound has an ester and may undergo hydrolysis at high or low pH. This compound contains an acetal/aminal-like group ( X-CH(R)-Y where X, Y are N, S, or O) that may be acid/base labile, releasing an aldehyde.

>  <s_lp_Force_Field>  (91) 
OPLS3e

>  <r_lp_Energy>  (91) 
7.32197

>  <b_lp_Chiralities_Consistent>  (91) 
1

>  <s_lp_Variant>  (91) 
32:0-1

>  <s_i_glide_gridfile>  (91) 
pfpi4k_grid

>  <i_i_glide_lignum>  (91) 
39

>  <i_i_glide_rotatable_bonds>  (91) 
2

>  <r_i_docking_score>  (91) 
-4.30065

>  <r_i_glide_ligand_efficiency>  (91) 
-0.215032

>  <r_i_glide_ligand_efficiency_sa>  (91) 
-0.583688

>  <r_i_glide_ligand_efficiency_ln>  (91) 
-1.07631

>  <r_i_glide_gscore>  (91) 
-4.30065

>  <r_i_glide_lipo>  (91) 
-0.669123

>  <r_i_glide_hbond>  (91) 
-0.305034

>  <r_i_glide_metal>  (91) 
-0

>  <r_i_glide_rewards>  (91) 
-1.88362

>  <r_i_glide_evdw>  (91) 
-13.3801

>  <r_i_glide_ecoul>  (91) 
-5.15915

>  <r_i_glide_erotb>  (91) 
0

>  <r_i_glide_esite>  (91) 
0

>  <r_i_glide_emodel>  (91) 
-20.573

>  <r_i_glide_energy>  (91) 
-18.5392

>  <r_i_glide_einternal>  (91) 
1.32681

>  <r_i_glide_intrahb_reward>  (91) 
-0

>  <i_i_glide_confnum>  (91) 
2

>  <i_i_glide_posenum>  (91) 
4

>  <r_i_glide_eff_state_penalty>  (91) 
0

>  <ligand_id>  (91) 
32

>  <original_smiles>  (91) 
CC1=CC2C(O)C3OCOC34C3C(=O)OC3C4C2(O)C1

>  <smiles>  (91) 
[H]OC1([H])C2([H])OC([H])([H])OC23C2([H])C(=O)OC2([H])C3([H])C2(O[H])C([H])([H])C(C([H])([H])[H])=C([H])C12[H]

$$$$
32:0:2
     RDKit          3D

 36 40  0  0  1  0  0  0  0  0999 V2000
    3.8291   -1.5271   -4.3386 C   0  0  0  0  0  0  0  0  0  0  0  0
    3.9551   -1.9343   -2.8946 C   0  0  0  0  0  0  0  0  0  0  0  0
    3.5295   -1.2467   -1.8397 C   0  0  0  0  0  0  0  0  0  0  0  0
    3.8077   -1.9198   -0.5275 C   0  0  2  0  0  0  0  0  0  0  0  0
    4.6854   -1.0492    0.4049 C   0  0  1  0  0  0  0  0  0  0  0  0
    3.9744    0.0813    0.8831 O   0  0  0  0  0  0  0  0  0  0  0  0
    5.2241   -1.8341    1.6081 C   0  0  1  0  0  0  0  0  0  0  0  0
    4.1478   -2.3364    2.3816 O   0  0  0  0  0  0  0  0  0  0  0  0
    4.4231   -3.6624    2.7046 C   0  0  0  0  0  0  0  0  0  0  0  0
    5.7087   -3.9710    2.2910 O   0  0  0  0  0  0  0  0  0  0  0  0
    5.9531   -3.1171    1.1877 C   0  0  2  0  0  0  0  0  0  0  0  0
    7.4414   -3.0954    0.8006 C   0  0  2  0  0  0  0  0  0  0  0  0
    7.9413   -1.8802    0.0761 C   0  0  0  0  0  0  0  0  0  0  0  0
    8.7127   -1.0194    0.4944 O   0  0  0  0  0  0  0  0  0  0  0  0
    7.3244   -2.1463   -1.1187 O   0  0  0  0  0  0  0  0  0  0  0  0
    7.0457   -3.4761   -0.6278 C   0  0  2  0  0  0  0  0  0  0  0  0
    5.6161   -3.7992   -0.1693 C   0  0  2  0  0  0  0  0  0  0  0  0
    4.3944   -3.3023   -0.9616 C   0  0  1  0  0  0  0  0  0  0  0  0
    3.4057   -4.2524   -0.6630 O   0  0  0  0  0  0  0  0  0  0  0  0
    4.6226   -3.2187   -2.4971 C   0  0  0  0  0  0  0  0  0  0  0  0
    4.8297   -1.4157   -4.7574 H   0  0  0  0  0  0  0  0  0  0  0  0
    3.3021   -0.5741   -4.4529 H   0  0  0  0  0  0  0  0  0  0  0  0
    3.2799   -2.3054   -4.8722 H   0  0  0  0  0  0  0  0  0  0  0  0
    2.9968   -0.3139   -1.8891 H   0  0  0  0  0  0  0  0  0  0  0  0
    2.8432   -2.0585   -0.0398 H   0  0  0  0  0  0  0  0  0  0  0  0
    5.5295   -0.6530   -0.1574 H   0  0  0  0  0  0  0  0  0  0  0  0
    3.1363   -0.2262    1.2024 H   0  0  0  0  0  0  0  0  0  0  0  0
    5.8566   -1.2138    2.2534 H   0  0  0  0  0  0  0  0  0  0  0  0
    4.3524   -3.8139    3.7861 H   0  0  0  0  0  0  0  0  0  0  0  0
    3.7052   -4.3112    2.1884 H   0  0  0  0  0  0  0  0  0  0  0  0
    8.1293   -3.7782    1.3068 H   0  0  0  0  0  0  0  0  0  0  0  0
    7.6859   -4.2601   -1.0408 H   0  0  0  0  0  0  0  0  0  0  0  0
    5.6048   -4.8758   -0.0252 H   0  0  0  0  0  0  0  0  0  0  0  0
    3.3905   -4.8909   -1.3786 H   0  0  0  0  0  0  0  0  0  0  0  0
    4.1998   -4.0599   -3.0388 H   0  0  0  0  0  0  0  0  0  0  0  0
    5.6722   -3.1558   -2.7965 H   0  0  0  0  0  0  0  0  0  0  0  0
  1  2  1  0
  1 21  1  0
  1 22  1  0
  1 23  1  0
  2 20  1  0
  2  3  2  0
  3  4  1  0
  3 24  1  0
  4 18  1  0
  4  5  1  0
  4 25  1  1
  5  6  1  0
  5  7  1  0
  5 26  1  6
  6 27  1  0
  7 11  1  0
  7  8  1  0
  7 28  1  1
  8  9  1  0
  9 10  1  0
  9 29  1  0
  9 30  1  0
 11 10  1  1
 11 17  1  0
 11 12  1  0
 12 16  1  0
 12 13  1  0
 12 31  1  1
 13 14  2  0
 13 15  1  0
 15 16  1  0
 16 17  1  0
 16 32  1  6
 17 18  1  0
 17 33  1  1
 18 19  1  6
 18 20  1  0
 19 34  1  0
 20 35  1  0
 20 36  1  0
M  END
>  <i_m_ct_stereo_status>  (92) 
1

>  <s_m_source_file>  (92) 
/var/tmp/pbs.5076255.sched01/tmphrtf3o8j/0_qqz9eae.sdf

>  <i_m_source_file_index>  (92) 
39

>  <i_lp_mmshare_version>  (92) 
48012

>  <i_f3d_flags>  (92) 
0

>  <s_epik_input>  (92) 
Tz1DKE8xKVtDQEhdMltDQEhdMVtDQEBIXTNbQ0BdKFtPSF0pKFtDSDJdQyhbQ0gzXSk9W0NIXTQpW0NASF00W0NAQEhdKFtPSF0pW0NASF0oW0NAXTIzNSlPW0NIMl1PNQ==

>  <s_epik_cmdline>  (92) 
J2VwaWtfcHl0aG9uJywgJy1waHQnLCAnMi4wJywgJy1waCcsICc3LjAnLCAnLXRuJywgJzgnLCAnLW1hJywgJzIwMCcsICctaW1hZScsICc8aW5maWxlLm1hZT4nLCAnLW9tYWUnLCAnPG91dGZpbGUubWFlPic=

>  <r_lp_tautomer_probability>  (92) 
1

>  <r_epik_Ionization_Penalty>  (92) 
1.94389e-07

>  <r_epik_Ionization_Penalty_Charging>  (92) 
0

>  <r_epik_Ionization_Penalty_Neutral>  (92) 
1.94389e-07

>  <r_epik_State_Penalty>  (92) 
-0

>  <r_epik_Charging_Adjusted_Penalty>  (92) 
0

>  <i_epik_Tot_Q>  (92) 
0

>  <i_epik_Tot_abs_Q>  (92) 
0

>  <s_epik_Chemistry_Notes>  (92) 
This compound has an ester and may undergo hydrolysis at high or low pH. This compound contains an acetal/aminal-like group ( X-CH(R)-Y where X, Y are N, S, or O) that may be acid/base labile, releasing an aldehyde.

>  <s_lp_Force_Field>  (92) 
OPLS3e

>  <r_lp_Energy>  (92) 
7.32197

>  <b_lp_Chiralities_Consistent>  (92) 
1

>  <s_lp_Variant>  (92) 
32:0-1

>  <s_i_glide_gridfile>  (92) 
pfpi4k_grid

>  <i_i_glide_lignum>  (92) 
39

>  <i_i_glide_rotatable_bonds>  (92) 
2

>  <r_i_docking_score>  (92) 
-4.28497

>  <r_i_glide_ligand_efficiency>  (92) 
-0.214249

>  <r_i_glide_ligand_efficiency_sa>  (92) 
-0.58156

>  <r_i_glide_ligand_efficiency_ln>  (92) 
-1.07239

>  <r_i_glide_gscore>  (92) 
-4.28497

>  <r_i_glide_lipo>  (92) 
-0.644518

>  <r_i_glide_hbond>  (92) 
-0.483225

>  <r_i_glide_metal>  (92) 
-0

>  <r_i_glide_rewards>  (92) 
-1.51647

>  <r_i_glide_evdw>  (92) 
-16.5411

>  <r_i_glide_ecoul>  (92) 
-5.29019

>  <r_i_glide_erotb>  (92) 
0

>  <r_i_glide_esite>  (92) 
-0.0201754

>  <r_i_glide_emodel>  (92) 
-24.9362

>  <r_i_glide_energy>  (92) 
-21.8312

>  <r_i_glide_einternal>  (92) 
1.03754

>  <r_i_glide_intrahb_reward>  (92) 
-0

>  <i_i_glide_confnum>  (92) 
1

>  <i_i_glide_posenum>  (92) 
33

>  <r_i_glide_eff_state_penalty>  (92) 
0

>  <ligand_id>  (92) 
32

>  <original_smiles>  (92) 
CC1=CC2C(O)C3OCOC34C3C(=O)OC3C4C2(O)C1

>  <smiles>  (92) 
[H]OC1([H])C2([H])OC([H])([H])OC23C2([H])C(=O)OC2([H])C3([H])C2(O[H])C([H])([H])C(C([H])([H])[H])=C([H])C12[H]

$$$$
32:1:0
     RDKit          3D

 36 40  0  0  1  0  0  0  0  0999 V2000
    4.0465    0.0660   -3.6233 C   0  0  0  0  0  0  0  0  0  0  0  0
    3.9125   -1.3083   -3.0289 C   0  0  0  0  0  0  0  0  0  0  0  0
    2.8406   -1.8448   -2.4645 C   0  0  0  0  0  0  0  0  0  0  0  0
    2.9983   -3.2642   -2.0246 C   0  0  2  0  0  0  0  0  0  0  0  0
    2.5131   -3.5050   -0.5636 C   0  0  1  0  0  0  0  0  0  0  0  0
    2.4225   -4.8930   -0.3153 O   0  0  0  0  0  0  0  0  0  0  0  0
    3.4214   -2.8704    0.5006 C   0  0  1  0  0  0  0  0  0  0  0  0
    3.0289   -3.2554    1.7989 O   0  0  0  0  0  0  0  0  0  0  0  0
    4.1297   -3.8317    2.4050 C   0  0  0  0  0  0  0  0  0  0  0  0
    5.1833   -3.9868    1.5122 O   0  0  0  0  0  0  0  0  0  0  0  0
    4.8842   -3.2475    0.3427 C   0  0  2  0  0  0  0  0  0  0  0  0
    5.8898   -2.1275    0.0479 C   0  0  2  0  0  0  0  0  0  0  0  0
    7.3851   -1.8777    0.0635 C   0  0  0  0  0  0  0  0  0  0  0  0
    7.9681   -1.1084    0.8129 O   0  0  0  0  0  0  0  0  0  0  0  0
    7.5909   -2.5311   -1.1502 O   0  0  0  0  0  0  0  0  0  0  0  0
    6.6155   -3.3901   -0.5882 C   0  0  2  0  0  0  0  0  0  0  0  0
    5.2667   -3.8911   -1.0126 C   0  0  2  0  0  0  0  0  0  0  0  0
    4.5058   -3.4875   -2.2980 C   0  0  1  0  0  0  0  0  0  0  0  0
    4.6345   -4.4764   -3.2862 O   0  0  0  0  0  0  0  0  0  0  0  0
    5.0137   -2.2778   -3.0709 C   0  0  0  0  0  0  0  0  0  0  0  0
    4.3267    0.0292   -4.6766 H   0  0  0  0  0  0  0  0  0  0  0  0
    4.7964    0.6279   -3.0732 H   0  0  0  0  0  0  0  0  0  0  0  0
    3.1242    0.6207   -3.5527 H   0  0  0  0  0  0  0  0  0  0  0  0
    1.9314   -1.3168   -2.3368 H   0  0  0  0  0  0  0  0  0  0  0  0
    2.3604   -3.8255   -2.7169 H   0  0  0  0  0  0  0  0  0  0  0  0
    1.5075   -3.1093   -0.4725 H   0  0  0  0  0  0  0  0  0  0  0  0
    2.5828   -5.3533   -1.1279 H   0  0  0  0  0  0  0  0  0  0  0  0
    3.3080   -1.7926    0.4322 H   0  0  0  0  0  0  0  0  0  0  0  0
    4.4162   -3.2069    3.2504 H   0  0  0  0  0  0  0  0  0  0  0  0
    3.8385   -4.8086    2.7828 H   0  0  0  0  0  0  0  0  0  0  0  0
    5.4355   -1.4794   -0.6732 H   0  0  0  0  0  0  0  0  0  0  0  0
    7.0711   -4.0766    0.1303 H   0  0  0  0  0  0  0  0  0  0  0  0
    5.2454   -4.9580   -0.8671 H   0  0  0  0  0  0  0  0  0  0  0  0
    4.0811   -5.2218   -2.9974 H   0  0  0  0  0  0  0  0  0  0  0  0
    5.0871   -2.5182   -4.1228 H   0  0  0  0  0  0  0  0  0  0  0  0
    5.9396   -1.8522   -2.7006 H   0  0  0  0  0  0  0  0  0  0  0  0
  1  2  1  0
  1 21  1  0
  1 22  1  0
  1 23  1  0
  2 20  1  0
  2  3  2  0
  3  4  1  0
  3 24  1  0
  4 18  1  0
  4  5  1  0
  4 25  1  6
  5  6  1  0
  5  7  1  0
  5 26  1  6
  6 27  1  0
  7 11  1  0
  7  8  1  0
  7 28  1  1
  8  9  1  0
  9 10  1  0
  9 29  1  0
  9 30  1  0
 11 10  1  1
 11 17  1  0
 11 12  1  0
 12 16  1  0
 12 13  1  0
 12 31  1  6
 13 14  2  0
 13 15  1  0
 15 16  1  0
 16 17  1  0
 16 32  1  1
 17 18  1  0
 17 33  1  1
 18 19  1  6
 18 20  1  0
 19 34  1  0
 20 35  1  0
 20 36  1  0
M  END
>  <i_m_ct_stereo_status>  (93) 
1

>  <s_m_source_file>  (93) 
/var/tmp/pbs.5076255.sched01/tmphrtf3o8j/0_qqz9eae.sdf

>  <i_m_source_file_index>  (93) 
40

>  <i_lp_mmshare_version>  (93) 
48012

>  <i_f3d_flags>  (93) 
0

>  <s_epik_input>  (93) 
Tz1DKE8xKVtDQEhdMltDQEhdMVtDQEBIXTNbQ0BdKFtPSF0pKFtDSDJdQyhbQ0gzXSk9W0NIXTQpW0NASF00W0NAQEhdKFtPSF0pW0NASF0oW0NAXTIzNSlPW0NIMl1PNQ==

>  <s_epik_cmdline>  (93) 
J2VwaWtfcHl0aG9uJywgJy1waHQnLCAnMi4wJywgJy1waCcsICc3LjAnLCAnLXRuJywgJzgnLCAnLW1hJywgJzIwMCcsICctaW1hZScsICc8aW5maWxlLm1hZT4nLCAnLW9tYWUnLCAnPG91dGZpbGUubWFlPic=

>  <r_lp_tautomer_probability>  (93) 
1

>  <r_epik_Ionization_Penalty>  (93) 
1.94389e-07

>  <r_epik_Ionization_Penalty_Charging>  (93) 
0

>  <r_epik_Ionization_Penalty_Neutral>  (93) 
1.94389e-07

>  <r_epik_State_Penalty>  (93) 
-0

>  <r_epik_Charging_Adjusted_Penalty>  (93) 
0

>  <i_epik_Tot_Q>  (93) 
0

>  <i_epik_Tot_abs_Q>  (93) 
0

>  <s_epik_Chemistry_Notes>  (93) 
This compound has an ester and may undergo hydrolysis at high or low pH. This compound contains an acetal/aminal-like group ( X-CH(R)-Y where X, Y are N, S, or O) that may be acid/base labile, releasing an aldehyde.

>  <s_lp_Force_Field>  (93) 
OPLS3e

>  <r_lp_Energy>  (93) 
65.756

>  <b_lp_Chiralities_Consistent>  (93) 
1

>  <s_lp_Variant>  (93) 
32:0-2

>  <s_i_glide_gridfile>  (93) 
pfpi4k_grid

>  <i_i_glide_lignum>  (93) 
40

>  <i_i_glide_rotatable_bonds>  (93) 
2

>  <r_i_docking_score>  (93) 
-4.32878

>  <r_i_glide_ligand_efficiency>  (93) 
-0.216439

>  <r_i_glide_ligand_efficiency_sa>  (93) 
-0.587506

>  <r_i_glide_ligand_efficiency_ln>  (93) 
-1.08335

>  <r_i_glide_gscore>  (93) 
-4.32878

>  <r_i_glide_lipo>  (93) 
-0.333287

>  <r_i_glide_hbond>  (93) 
-0.398489

>  <r_i_glide_metal>  (93) 
-0

>  <r_i_glide_rewards>  (93) 
-1.50085

>  <r_i_glide_evdw>  (93) 
-2.25666

>  <r_i_glide_ecoul>  (93) 
-13.0289

>  <r_i_glide_erotb>  (93) 
0

>  <r_i_glide_esite>  (93) 
-0.0289864

>  <r_i_glide_emodel>  (93) 
-21.7434

>  <r_i_glide_energy>  (93) 
-15.2856

>  <r_i_glide_einternal>  (93) 
1.82614

>  <r_i_glide_intrahb_reward>  (93) 
-0

>  <i_i_glide_confnum>  (93) 
2

>  <i_i_glide_posenum>  (93) 
26

>  <r_i_glide_eff_state_penalty>  (93) 
0

>  <ligand_id>  (93) 
32

>  <original_smiles>  (93) 
CC1=CC2C(O)C3OCOC34C3C(=O)OC3C4C2(O)C1

>  <smiles>  (93) 
[H]OC1([H])C2([H])OC([H])([H])OC23C2([H])C(=O)OC2([H])C3([H])C2(O[H])C([H])([H])C(C([H])([H])[H])=C([H])C12[H]

$$$$
32:1:1
     RDKit          3D

 36 40  0  0  1  0  0  0  0  0999 V2000
    3.4185   -1.0911   -3.6020 C   0  0  0  0  0  0  0  0  0  0  0  0
    4.2629   -1.8214   -2.5766 C   0  0  0  0  0  0  0  0  0  0  0  0
    4.4708   -3.1322   -2.4834 C   0  0  0  0  0  0  0  0  0  0  0  0
    5.4191   -3.5042   -1.3653 C   0  0  2  0  0  0  0  0  0  0  0  0
    4.8917   -4.6624   -0.4784 C   0  0  1  0  0  0  0  0  0  0  0  0
    5.9552   -5.0963    0.3514 O   0  0  0  0  0  0  0  0  0  0  0  0
    3.6898   -4.2540    0.4011 C   0  0  1  0  0  0  0  0  0  0  0  0
    3.3401   -5.2900    1.2884 O   0  0  0  0  0  0  0  0  0  0  0  0
    3.3603   -4.7707    2.5740 C   0  0  0  0  0  0  0  0  0  0  0  0
    3.8925   -3.4869    2.5877 O   0  0  0  0  0  0  0  0  0  0  0  0
    3.9458   -3.0190    1.2451 C   0  0  2  0  0  0  0  0  0  0  0  0
    3.0733   -1.7610    0.9715 C   0  0  2  0  0  0  0  0  0  0  0  0
    2.7093   -0.4296    1.6335 C   0  0  0  0  0  0  0  0  0  0  0  0
    1.6186   -0.1375    2.1102 O   0  0  0  0  0  0  0  0  0  0  0  0
    3.8976    0.1598    1.2555 O   0  0  0  0  0  0  0  0  0  0  0  0
    4.3994   -1.1242    1.5849 C   0  0  2  0  0  0  0  0  0  0  0  0
    5.1853   -2.1828    0.8518 C   0  0  2  0  0  0  0  0  0  0  0  0
    5.6535   -2.1429   -0.6266 C   0  0  1  0  0  0  0  0  0  0  0  0
    7.0449   -1.8829   -0.5859 O   0  0  0  0  0  0  0  0  0  0  0  0
    5.0179   -1.0539   -1.5366 C   0  0  0  0  0  0  0  0  0  0  0  0
    4.0270   -0.3797   -4.1602 H   0  0  0  0  0  0  0  0  0  0  0  0
    2.6266   -0.5329   -3.1018 H   0  0  0  0  0  0  0  0  0  0  0  0
    2.9586   -1.7819   -4.3093 H   0  0  0  0  0  0  0  0  0  0  0  0
    4.0477   -3.8734   -3.1409 H   0  0  0  0  0  0  0  0  0  0  0  0
    6.3317   -3.8354   -1.8611 H   0  0  0  0  0  0  0  0  0  0  0  0
    4.6134   -5.5061   -1.1089 H   0  0  0  0  0  0  0  0  0  0  0  0
    5.6480   -5.8466    0.8390 H   0  0  0  0  0  0  0  0  0  0  0  0
    2.8293   -4.0822   -0.2467 H   0  0  0  0  0  0  0  0  0  0  0  0
    2.3476   -4.7759    2.9794 H   0  0  0  0  0  0  0  0  0  0  0  0
    3.9881   -5.4098    3.1941 H   0  0  0  0  0  0  0  0  0  0  0  0
    2.9756   -1.6707   -0.1085 H   0  0  0  0  0  0  0  0  0  0  0  0
    4.5295   -1.2356    2.6724 H   0  0  0  0  0  0  0  0  0  0  0  0
    5.9925   -2.5131    1.5046 H   0  0  0  0  0  0  0  0  0  0  0  0
    7.4570   -2.5781   -0.0923 H   0  0  0  0  0  0  0  0  0  0  0  0
    5.7719   -0.4525   -2.0405 H   0  0  0  0  0  0  0  0  0  0  0  0
    4.3621   -0.3537   -1.0295 H   0  0  0  0  0  0  0  0  0  0  0  0
  1  2  1  0
  1 21  1  0
  1 22  1  0
  1 23  1  0
  2 20  1  0
  2  3  2  0
  3  4  1  0
  3 24  1  0
  4 18  1  0
  4  5  1  0
  4 25  1  6
  5  6  1  0
  5  7  1  0
  5 26  1  6
  6 27  1  0
  7 11  1  0
  7  8  1  0
  7 28  1  6
  8  9  1  0
  9 10  1  0
  9 29  1  0
  9 30  1  0
 11 10  1  1
 11 17  1  0
 11 12  1  0
 12 16  1  0
 12 13  1  0
 12 31  1  6
 13 14  2  0
 13 15  1  0
 15 16  1  0
 16 17  1  0
 16 32  1  1
 17 18  1  0
 17 33  1  1
 18 19  1  1
 18 20  1  0
 19 34  1  0
 20 35  1  0
 20 36  1  0
M  END
>  <i_m_ct_stereo_status>  (94) 
1

>  <s_m_source_file>  (94) 
/var/tmp/pbs.5076255.sched01/tmphrtf3o8j/0_qqz9eae.sdf

>  <i_m_source_file_index>  (94) 
40

>  <i_lp_mmshare_version>  (94) 
48012

>  <i_f3d_flags>  (94) 
0

>  <s_epik_input>  (94) 
Tz1DKE8xKVtDQEhdMltDQEhdMVtDQEBIXTNbQ0BdKFtPSF0pKFtDSDJdQyhbQ0gzXSk9W0NIXTQpW0NASF00W0NAQEhdKFtPSF0pW0NASF0oW0NAXTIzNSlPW0NIMl1PNQ==

>  <s_epik_cmdline>  (94) 
J2VwaWtfcHl0aG9uJywgJy1waHQnLCAnMi4wJywgJy1waCcsICc3LjAnLCAnLXRuJywgJzgnLCAnLW1hJywgJzIwMCcsICctaW1hZScsICc8aW5maWxlLm1hZT4nLCAnLW9tYWUnLCAnPG91dGZpbGUubWFlPic=

>  <r_lp_tautomer_probability>  (94) 
1

>  <r_epik_Ionization_Penalty>  (94) 
1.94389e-07

>  <r_epik_Ionization_Penalty_Charging>  (94) 
0

>  <r_epik_Ionization_Penalty_Neutral>  (94) 
1.94389e-07

>  <r_epik_State_Penalty>  (94) 
-0

>  <r_epik_Charging_Adjusted_Penalty>  (94) 
0

>  <i_epik_Tot_Q>  (94) 
0

>  <i_epik_Tot_abs_Q>  (94) 
0

>  <s_epik_Chemistry_Notes>  (94) 
This compound has an ester and may undergo hydrolysis at high or low pH. This compound contains an acetal/aminal-like group ( X-CH(R)-Y where X, Y are N, S, or O) that may be acid/base labile, releasing an aldehyde.

>  <s_lp_Force_Field>  (94) 
OPLS3e

>  <r_lp_Energy>  (94) 
65.756

>  <b_lp_Chiralities_Consistent>  (94) 
1

>  <s_lp_Variant>  (94) 
32:0-2

>  <s_i_glide_gridfile>  (94) 
pfpi4k_grid

>  <i_i_glide_lignum>  (94) 
40

>  <i_i_glide_rotatable_bonds>  (94) 
2

>  <r_i_docking_score>  (94) 
-4.05879

>  <r_i_glide_ligand_efficiency>  (94) 
-0.20294

>  <r_i_glide_ligand_efficiency_sa>  (94) 
-0.550863

>  <r_i_glide_ligand_efficiency_ln>  (94) 
-1.01578

>  <r_i_glide_gscore>  (94) 
-4.05879

>  <r_i_glide_lipo>  (94) 
-0.414915

>  <r_i_glide_hbond>  (94) 
-0.16

>  <r_i_glide_metal>  (94) 
-0

>  <r_i_glide_rewards>  (94) 
-1.49814

>  <r_i_glide_evdw>  (94) 
-24.9153

>  <r_i_glide_ecoul>  (94) 
-4.59249

>  <r_i_glide_erotb>  (94) 
0

>  <r_i_glide_esite>  (94) 
-0.0510998

>  <r_i_glide_emodel>  (94) 
-36.6905

>  <r_i_glide_energy>  (94) 
-29.5078

>  <r_i_glide_einternal>  (94) 
0.327643

>  <r_i_glide_intrahb_reward>  (94) 
-0

>  <i_i_glide_confnum>  (94) 
2

>  <i_i_glide_posenum>  (94) 
22

>  <r_i_glide_eff_state_penalty>  (94) 
0

>  <ligand_id>  (94) 
32

>  <original_smiles>  (94) 
CC1=CC2C(O)C3OCOC34C3C(=O)OC3C4C2(O)C1

>  <smiles>  (94) 
[H]OC1([H])C2([H])OC([H])([H])OC23C2([H])C(=O)OC2([H])C3([H])C2(O[H])C([H])([H])C(C([H])([H])[H])=C([H])C12[H]

$$$$
32:1:2
     RDKit          3D

 36 40  0  0  1  0  0  0  0  0999 V2000
    3.4181   -1.0900   -3.6035 C   0  0  0  0  0  0  0  0  0  0  0  0
    4.2624   -1.8208   -2.5785 C   0  0  0  0  0  0  0  0  0  0  0  0
    4.4691   -3.1318   -2.4855 C   0  0  0  0  0  0  0  0  0  0  0  0
    5.4189   -3.5046   -1.3680 C   0  0  2  0  0  0  0  0  0  0  0  0
    4.8976   -4.6642   -0.4789 C   0  0  1  0  0  0  0  0  0  0  0  0
    5.9807   -5.1036    0.3274 O   0  0  0  0  0  0  0  0  0  0  0  0
    3.6912   -4.2542    0.3990 C   0  0  1  0  0  0  0  0  0  0  0  0
    3.3214   -5.2821    1.2851 O   0  0  0  0  0  0  0  0  0  0  0  0
    3.3623   -4.7698    2.5719 C   0  0  0  0  0  0  0  0  0  0  0  0
    3.9041   -3.4894    2.5842 O   0  0  0  0  0  0  0  0  0  0  0  0
    3.9470   -3.0197    1.2424 C   0  0  2  0  0  0  0  0  0  0  0  0
    3.0736   -1.7607    0.9702 C   0  0  2  0  0  0  0  0  0  0  0  0
    2.7117   -0.4296    1.6332 C   0  0  0  0  0  0  0  0  0  0  0  0
    1.6226   -0.1373    2.1131 O   0  0  0  0  0  0  0  0  0  0  0  0
    3.8998    0.1588    1.2533 O   0  0  0  0  0  0  0  0  0  0  0  0
    4.4004   -1.1258    1.5831 C   0  0  2  0  0  0  0  0  0  0  0  0
    5.1858   -2.1833    0.8485 C   0  0  2  0  0  0  0  0  0  0  0  0
    5.6544   -2.1429   -0.6300 C   0  0  1  0  0  0  0  0  0  0  0  0
    7.0463   -1.8780   -0.5918 O   0  0  0  0  0  0  0  0  0  0  0  0
    5.0178   -1.0536   -1.5390 C   0  0  0  0  0  0  0  0  0  0  0  0
    4.0273   -0.3789   -4.1617 H   0  0  0  0  0  0  0  0  0  0  0  0
    2.6267   -0.5319   -3.1024 H   0  0  0  0  0  0  0  0  0  0  0  0
    2.9581   -1.7813   -4.3105 H   0  0  0  0  0  0  0  0  0  0  0  0
    4.0461   -3.8723   -3.1436 H   0  0  0  0  0  0  0  0  0  0  0  0
    6.3297   -3.8339   -1.8681 H   0  0  0  0  0  0  0  0  0  0  0  0
    4.6164   -5.5051   -1.1114 H   0  0  0  0  0  0  0  0  0  0  0  0
    6.1780   -4.4445    0.9698 H   0  0  0  0  0  0  0  0  0  0  0  0
    2.8319   -4.0803   -0.2505 H   0  0  0  0  0  0  0  0  0  0  0  0
    2.3519   -4.7716    2.9823 H   0  0  0  0  0  0  0  0  0  0  0  0
    3.9917   -5.4149    3.1843 H   0  0  0  0  0  0  0  0  0  0  0  0
    2.9763   -1.6686   -0.1100 H   0  0  0  0  0  0  0  0  0  0  0  0
    4.5293   -1.2382    2.6708 H   0  0  0  0  0  0  0  0  0  0  0  0
    5.9937   -2.5048    1.5044 H   0  0  0  0  0  0  0  0  0  0  0  0
    7.4764   -2.5726   -0.1156 H   0  0  0  0  0  0  0  0  0  0  0  0
    5.7722   -0.4528   -2.0432 H   0  0  0  0  0  0  0  0  0  0  0  0
    4.3626   -0.3528   -1.0321 H   0  0  0  0  0  0  0  0  0  0  0  0
  1  2  1  0
  1 21  1  0
  1 22  1  0
  1 23  1  0
  2 20  1  0
  2  3  2  0
  3  4  1  0
  3 24  1  0
  4 18  1  0
  4  5  1  0
  4 25  1  6
  5  6  1  0
  5  7  1  0
  5 26  1  6
  6 27  1  0
  7 11  1  0
  7  8  1  0
  7 28  1  6
  8  9  1  0
  9 10  1  0
  9 29  1  0
  9 30  1  0
 11 10  1  1
 11 17  1  0
 11 12  1  0
 12 16  1  0
 12 13  1  0
 12 31  1  6
 13 14  2  0
 13 15  1  0
 15 16  1  0
 16 17  1  0
 16 32  1  1
 17 18  1  0
 17 33  1  1
 18 19  1  1
 18 20  1  0
 19 34  1  0
 20 35  1  0
 20 36  1  0
M  END
>  <i_m_ct_stereo_status>  (95) 
1

>  <s_m_source_file>  (95) 
/var/tmp/pbs.5076255.sched01/tmphrtf3o8j/0_qqz9eae.sdf

>  <i_m_source_file_index>  (95) 
40

>  <i_lp_mmshare_version>  (95) 
48012

>  <i_f3d_flags>  (95) 
0

>  <s_epik_input>  (95) 
Tz1DKE8xKVtDQEhdMltDQEhdMVtDQEBIXTNbQ0BdKFtPSF0pKFtDSDJdQyhbQ0gzXSk9W0NIXTQpW0NASF00W0NAQEhdKFtPSF0pW0NASF0oW0NAXTIzNSlPW0NIMl1PNQ==

>  <s_epik_cmdline>  (95) 
J2VwaWtfcHl0aG9uJywgJy1waHQnLCAnMi4wJywgJy1waCcsICc3LjAnLCAnLXRuJywgJzgnLCAnLW1hJywgJzIwMCcsICctaW1hZScsICc8aW5maWxlLm1hZT4nLCAnLW9tYWUnLCAnPG91dGZpbGUubWFlPic=

>  <r_lp_tautomer_probability>  (95) 
1

>  <r_epik_Ionization_Penalty>  (95) 
1.94389e-07

>  <r_epik_Ionization_Penalty_Charging>  (95) 
0

>  <r_epik_Ionization_Penalty_Neutral>  (95) 
1.94389e-07

>  <r_epik_State_Penalty>  (95) 
-0

>  <r_epik_Charging_Adjusted_Penalty>  (95) 
0

>  <i_epik_Tot_Q>  (95) 
0

>  <i_epik_Tot_abs_Q>  (95) 
0

>  <s_epik_Chemistry_Notes>  (95) 
This compound has an ester and may undergo hydrolysis at high or low pH. This compound contains an acetal/aminal-like group ( X-CH(R)-Y where X, Y are N, S, or O) that may be acid/base labile, releasing an aldehyde.

>  <s_lp_Force_Field>  (95) 
OPLS3e

>  <r_lp_Energy>  (95) 
65.756

>  <b_lp_Chiralities_Consistent>  (95) 
1

>  <s_lp_Variant>  (95) 
32:0-2

>  <s_i_glide_gridfile>  (95) 
pfpi4k_grid

>  <i_i_glide_lignum>  (95) 
40

>  <i_i_glide_rotatable_bonds>  (95) 
2

>  <r_i_docking_score>  (95) 
-4.05808

>  <r_i_glide_ligand_efficiency>  (95) 
-0.202904

>  <r_i_glide_ligand_efficiency_sa>  (95) 
-0.550766

>  <r_i_glide_ligand_efficiency_ln>  (95) 
-1.0156

>  <r_i_glide_gscore>  (95) 
-4.05808

>  <r_i_glide_lipo>  (95) 
-0.41513

>  <r_i_glide_hbond>  (95) 
-0.16

>  <r_i_glide_metal>  (95) 
-0

>  <r_i_glide_rewards>  (95) 
-1.49814

>  <r_i_glide_evdw>  (95) 
-24.8453

>  <r_i_glide_ecoul>  (95) 
-4.61035

>  <r_i_glide_erotb>  (95) 
0

>  <r_i_glide_esite>  (95) 
-0.0509892

>  <r_i_glide_emodel>  (95) 
-36.6778

>  <r_i_glide_energy>  (95) 
-29.4557

>  <r_i_glide_einternal>  (95) 
0.0155358

>  <r_i_glide_intrahb_reward>  (95) 
-0

>  <i_i_glide_confnum>  (95) 
2

>  <i_i_glide_posenum>  (95) 
1

>  <r_i_glide_eff_state_penalty>  (95) 
0

>  <ligand_id>  (95) 
32

>  <original_smiles>  (95) 
CC1=CC2C(O)C3OCOC34C3C(=O)OC3C4C2(O)C1

>  <smiles>  (95) 
[H]OC1([H])C2([H])OC([H])([H])OC23C2([H])C(=O)OC2([H])C3([H])C2(O[H])C([H])([H])C(C([H])([H])[H])=C([H])C12[H]

$$$$
33:0:0
     RDKit          3D

 41 44  0  0  1  0  0  0  0  0999 V2000
    3.5801    0.4415   -4.7258 C   0  0  0  0  0  0  0  0  0  0  0  0
    3.8097   -0.7387   -3.9288 N   0  0  0  0  0  0  0  0  0  0  0  0
    3.4084   -1.9710   -4.3177 N   0  0  0  0  0  0  0  0  0  0  0  0
    3.7515   -2.7213   -3.3065 C   0  0  0  0  0  0  0  0  0  0  0  0
    4.3660   -1.9281   -2.3107 C   0  0  0  0  0  0  0  0  0  0  0  0
    4.9543   -2.3366   -0.9940 C   0  0  1  0  0  0  0  0  0  0  0  0
    6.3263   -1.9733   -1.1152 O   0  0  0  0  0  0  0  0  0  0  0  0
    4.2900   -1.5553    0.1838 C   0  0  0  0  0  0  0  0  0  0  0  0
    4.5304   -2.2176    1.5655 C   0  0  2  0  0  0  0  0  0  0  0  0
    6.0240   -2.3926    1.8836 C   0  0  0  0  0  0  0  0  0  0  0  0
    6.3762   -3.7791    1.3201 C   0  0  0  0  0  0  0  0  0  0  0  0
    5.0653   -4.2894    0.7102 C   0  0  2  0  0  0  0  0  0  0  0  0
    4.8694   -3.8763   -0.7625 C   0  0  0  0  0  0  0  0  0  0  0  0
    4.0408   -3.5889    1.4871 N   0  0  0  0  0  0  0  0  0  0  0  0
    2.9009   -4.0581    2.0574 C   0  0  0  0  0  0  0  0  0  0  0  0
    2.0993   -3.3335    2.6528 O   0  0  0  0  0  0  0  0  0  0  0  0
    2.5772   -5.5361    1.9175 C   0  0  0  0  0  0  0  0  0  0  0  0
    3.4877   -6.4069    2.3708 N   0  0  0  0  0  0  0  0  0  0  0  0
    3.2251   -7.7226    2.2328 C   0  0  0  0  0  0  0  0  0  0  0  0
    2.0158   -8.1787    1.6835 C   0  0  0  0  0  0  0  0  0  0  0  0
    1.1064   -7.1887    1.2790 C   0  0  0  0  0  0  0  0  0  0  0  0
    1.3972   -5.8686    1.3731 N   0  0  0  0  0  0  0  0  0  0  0  0
    4.4068   -0.6832   -2.7221 N   0  0  0  0  0  0  0  0  0  0  0  0
    2.6904    0.3141   -5.3452 H   0  0  0  0  0  0  0  0  0  0  0  0
    4.4452    0.6245   -5.3539 H   0  0  0  0  0  0  0  0  0  0  0  0
    3.4500    1.3065   -4.0812 H   0  0  0  0  0  0  0  0  0  0  0  0
    3.5546   -3.7803   -3.3093 H   0  0  0  0  0  0  0  0  0  0  0  0
    6.7580   -2.6651   -1.5931 H   0  0  0  0  0  0  0  0  0  0  0  0
    4.6167   -0.5135    0.1870 H   0  0  0  0  0  0  0  0  0  0  0  0
    3.2079   -1.5206    0.0246 H   0  0  0  0  0  0  0  0  0  0  0  0
    4.0415   -1.6340    2.3494 H   0  0  0  0  0  0  0  0  0  0  0  0
    6.6317   -1.5966    1.4540 H   0  0  0  0  0  0  0  0  0  0  0  0
    6.1897   -2.3718    2.9594 H   0  0  0  0  0  0  0  0  0  0  0  0
    7.1804   -3.7562    0.5862 H   0  0  0  0  0  0  0  0  0  0  0  0
    6.6973   -4.4423    2.1234 H   0  0  0  0  0  0  0  0  0  0  0  0
    5.0441   -5.3751    0.7609 H   0  0  0  0  0  0  0  0  0  0  0  0
    3.8766   -4.2391   -1.0368 H   0  0  0  0  0  0  0  0  0  0  0  0
    5.5616   -4.4159   -1.4074 H   0  0  0  0  0  0  0  0  0  0  0  0
    4.0011   -8.4113    2.5388 H   0  0  0  0  0  0  0  0  0  0  0  0
    1.7948   -9.2309    1.5790 H   0  0  0  0  0  0  0  0  0  0  0  0
    0.1376   -7.4479    0.8651 H   0  0  0  0  0  0  0  0  0  0  0  0
  1  2  1  0
  1 24  1  0
  1 25  1  0
  1 26  1  0
  2 23  1  0
  2  3  1  0
  3  4  2  0
  4  5  1  0
  4 27  1  0
  5  6  1  0
  5 23  2  0
  6 13  1  0
  6  7  1  6
  6  8  1  0
  7 28  1  0
  8  9  1  0
  8 29  1  0
  8 30  1  0
  9 14  1  0
  9 10  1  0
  9 31  1  1
 10 11  1  0
 10 32  1  0
 10 33  1  0
 11 12  1  0
 11 34  1  0
 11 35  1  0
 12 13  1  0
 12 14  1  0
 12 36  1  6
 13 37  1  0
 13 38  1  0
 14 15  1  0
 15 16  2  0
 15 17  1  0
 17 22  1  0
 17 18  2  0
 18 19  1  0
 19 20  2  0
 19 39  1  0
 20 21  1  0
 20 40  1  0
 21 22  2  0
 21 41  1  0
M  END
>  <i_m_ct_stereo_status>  (96) 
1

>  <s_m_source_file>  (96) 
/var/tmp/pbs.5076255.sched01/tmphrtf3o8j/0_qqz9eae.sdf

>  <i_m_source_file_index>  (96) 
41

>  <i_lp_mmshare_version>  (96) 
48012

>  <i_f3d_flags>  (96) 
0

>  <s_epik_input>  (96) 
W0NIM11uMW5bY0hdYyhuMSlbQ0BAXShbT0hdKShbQ0gyXVtDQEhdMjMpW0NIMl1bQ0BASF0oW0NIMl1bQ0gyXTIpTjNDKD1PKWM0bltjSF1bY0hdW2NIXW40

>  <s_epik_cmdline>  (96) 
J2VwaWtfcHl0aG9uJywgJy1waHQnLCAnMi4wJywgJy1waCcsICc3LjAnLCAnLXRuJywgJzgnLCAnLW1hJywgJzIwMCcsICctaW1hZScsICc8aW5maWxlLm1hZT4nLCAnLW9tYWUnLCAnPG91dGZpbGUubWFlPic=

>  <r_lp_tautomer_probability>  (96) 
1

>  <r_epik_Ionization_Penalty>  (96) 
3.26345e-06

>  <r_epik_Ionization_Penalty_Charging>  (96) 
0

>  <r_epik_Ionization_Penalty_Neutral>  (96) 
3.26345e-06

>  <r_epik_State_Penalty>  (96) 
-0

>  <r_epik_Charging_Adjusted_Penalty>  (96) 
0

>  <i_epik_Tot_Q>  (96) 
0

>  <i_epik_Tot_abs_Q>  (96) 
0

>  <s_epik_Chemistry_Notes>  (96) 
This compound contains an electron-poor aromatic ring that is susceptible to covalent hydrolysis at low pH, typically resulting in measured values for nitrogen ring protonation that are around two units higher than predicted values.

>  <s_lp_Force_Field>  (96) 
OPLS3e

>  <r_lp_Energy>  (96) 
30.4191

>  <b_lp_Chiralities_Consistent>  (96) 
1

>  <s_lp_Variant>  (96) 
33:0-1

>  <s_i_glide_gridfile>  (96) 
pfpi4k_grid

>  <i_i_glide_lignum>  (96) 
41

>  <i_i_glide_rotatable_bonds>  (96) 
4

>  <r_i_docking_score>  (96) 
-4.44701

>  <r_i_glide_ligand_efficiency>  (96) 
-0.193348

>  <r_i_glide_ligand_efficiency_sa>  (96) 
-0.549857

>  <r_i_glide_ligand_efficiency_ln>  (96) 
-1.07533

>  <r_i_glide_gscore>  (96) 
-4.44701

>  <r_i_glide_lipo>  (96) 
-0.465031

>  <r_i_glide_hbond>  (96) 
-0.609301

>  <r_i_glide_metal>  (96) 
-0

>  <r_i_glide_rewards>  (96) 
-1.56467

>  <r_i_glide_evdw>  (96) 
-28.4893

>  <r_i_glide_ecoul>  (96) 
-6.20835

>  <r_i_glide_erotb>  (96) 
0.564319

>  <r_i_glide_esite>  (96) 
-0.0166043

>  <r_i_glide_emodel>  (96) 
-43.7713

>  <r_i_glide_energy>  (96) 
-34.6977

>  <r_i_glide_einternal>  (96) 
3.31992

>  <r_i_glide_intrahb_reward>  (96) 
-0

>  <i_i_glide_confnum>  (96) 
2

>  <i_i_glide_posenum>  (96) 
13

>  <r_i_glide_eff_state_penalty>  (96) 
0

>  <ligand_id>  (96) 
33

>  <original_smiles>  (96) 
Cn1ncc(C2(O)CC3CCC(C2)N3C(=O)c2ncccn2)n1

>  <smiles>  (96) 
[H]OC1(c2nn(C([H])([H])[H])nc2[H])C([H])([H])C2([H])N(C(=O)c3nc([H])c([H])c([H])n3)C([H])(C([H])([H])C2([H])[H])C1([H])[H]

$$$$
33:0:1
     RDKit          3D

 41 44  0  0  1  0  0  0  0  0999 V2000
    3.5727    0.4070   -4.7826 C   0  0  0  0  0  0  0  0  0  0  0  0
    3.7937   -0.7487   -3.9501 N   0  0  0  0  0  0  0  0  0  0  0  0
    3.4243   -1.9958   -4.3157 N   0  0  0  0  0  0  0  0  0  0  0  0
    3.7421   -2.7099   -3.2771 C   0  0  0  0  0  0  0  0  0  0  0  0
    4.3187   -1.8859   -2.2811 C   0  0  0  0  0  0  0  0  0  0  0  0
    4.8539   -2.2531   -0.9285 C   0  0  1  0  0  0  0  0  0  0  0  0
    6.2118   -1.8541   -0.9736 O   0  0  0  0  0  0  0  0  0  0  0  0
    4.1246   -1.4721    0.2085 C   0  0  0  0  0  0  0  0  0  0  0  0
    4.3403   -2.0981    1.6112 C   0  0  2  0  0  0  0  0  0  0  0  0
    5.8269   -2.2018    1.9967 C   0  0  0  0  0  0  0  0  0  0  0  0
    6.2596   -3.5827    1.4673 C   0  0  0  0  0  0  0  0  0  0  0  0
    4.9952   -4.1611    0.8146 C   0  0  2  0  0  0  0  0  0  0  0  0
    4.8349   -3.7864   -0.6725 C   0  0  0  0  0  0  0  0  0  0  0  0
    3.9138   -3.4903    1.5415 N   0  0  0  0  0  0  0  0  0  0  0  0
    2.7735   -3.9963    2.0797 C   0  0  0  0  0  0  0  0  0  0  0  0
    1.9300   -3.3006    2.6471 O   0  0  0  0  0  0  0  0  0  0  0  0
    2.5056   -5.4882    1.9362 C   0  0  0  0  0  0  0  0  0  0  0  0
    3.4414   -6.3245    2.3968 N   0  0  0  0  0  0  0  0  0  0  0  0
    3.2271   -7.6485    2.2512 C   0  0  0  0  0  0  0  0  0  0  0  0
    2.0418   -8.1498    1.6890 C   0  0  0  0  0  0  0  0  0  0  0  0
    1.0982   -7.1929    1.2805 C   0  0  0  0  0  0  0  0  0  0  0  0
    1.3414   -5.8630    1.3806 N   0  0  0  0  0  0  0  0  0  0  0  0
    4.3571   -0.6520   -2.7245 N   0  0  0  0  0  0  0  0  0  0  0  0
    2.7043    0.2516   -5.4283 H   0  0  0  0  0  0  0  0  0  0  0  0
    4.4553    0.5821   -5.3889 H   0  0  0  0  0  0  0  0  0  0  0  0
    3.4099    1.2922   -4.1715 H   0  0  0  0  0  0  0  0  0  0  0  0
    3.5510   -3.7714   -3.2438 H   0  0  0  0  0  0  0  0  0  0  0  0
    6.5776   -2.0724   -0.1320 H   0  0  0  0  0  0  0  0  0  0  0  0
    4.4069   -0.4166    0.2024 H   0  0  0  0  0  0  0  0  0  0  0  0
    3.0488   -1.4842    0.0075 H   0  0  0  0  0  0  0  0  0  0  0  0
    3.7947   -1.5219    2.3642 H   0  0  0  0  0  0  0  0  0  0  0  0
    6.4176   -1.3805    1.5905 H   0  0  0  0  0  0  0  0  0  0  0  0
    5.9393   -2.1628    3.0804 H   0  0  0  0  0  0  0  0  0  0  0  0
    7.0973   -3.5504    0.7715 H   0  0  0  0  0  0  0  0  0  0  0  0
    6.5673   -4.2210    2.2950 H   0  0  0  0  0  0  0  0  0  0  0  0
    5.0205   -5.2450    0.8832 H   0  0  0  0  0  0  0  0  0  0  0  0
    3.8701   -4.1927   -0.9803 H   0  0  0  0  0  0  0  0  0  0  0  0
    5.5802   -4.2940   -1.2832 H   0  0  0  0  0  0  0  0  0  0  0  0
    4.0252   -8.3107    2.5601 H   0  0  0  0  0  0  0  0  0  0  0  0
    1.8620   -9.2082    1.5734 H   0  0  0  0  0  0  0  0  0  0  0  0
    0.1473   -7.4838    0.8521 H   0  0  0  0  0  0  0  0  0  0  0  0
  1  2  1  0
  1 24  1  0
  1 25  1  0
  1 26  1  0
  2 23  1  0
  2  3  1  0
  3  4  2  0
  4  5  1  0
  4 27  1  0
  5  6  1  0
  5 23  2  0
  6 13  1  0
  6  7  1  6
  6  8  1  0
  7 28  1  0
  8  9  1  0
  8 29  1  0
  8 30  1  0
  9 14  1  0
  9 10  1  0
  9 31  1  1
 10 11  1  0
 10 32  1  0
 10 33  1  0
 11 12  1  0
 11 34  1  0
 11 35  1  0
 12 13  1  0
 12 14  1  0
 12 36  1  6
 13 37  1  0
 13 38  1  0
 14 15  1  0
 15 16  2  0
 15 17  1  0
 17 22  1  0
 17 18  2  0
 18 19  1  0
 19 20  2  0
 19 39  1  0
 20 21  1  0
 20 40  1  0
 21 22  2  0
 21 41  1  0
M  END
>  <i_m_ct_stereo_status>  (97) 
1

>  <s_m_source_file>  (97) 
/var/tmp/pbs.5076255.sched01/tmphrtf3o8j/0_qqz9eae.sdf

>  <i_m_source_file_index>  (97) 
41

>  <i_lp_mmshare_version>  (97) 
48012

>  <i_f3d_flags>  (97) 
0

>  <s_epik_input>  (97) 
W0NIM11uMW5bY0hdYyhuMSlbQ0BAXShbT0hdKShbQ0gyXVtDQEhdMjMpW0NIMl1bQ0BASF0oW0NIMl1bQ0gyXTIpTjNDKD1PKWM0bltjSF1bY0hdW2NIXW40

>  <s_epik_cmdline>  (97) 
J2VwaWtfcHl0aG9uJywgJy1waHQnLCAnMi4wJywgJy1waCcsICc3LjAnLCAnLXRuJywgJzgnLCAnLW1hJywgJzIwMCcsICctaW1hZScsICc8aW5maWxlLm1hZT4nLCAnLW9tYWUnLCAnPG91dGZpbGUubWFlPic=

>  <r_lp_tautomer_probability>  (97) 
1

>  <r_epik_Ionization_Penalty>  (97) 
3.26345e-06

>  <r_epik_Ionization_Penalty_Charging>  (97) 
0

>  <r_epik_Ionization_Penalty_Neutral>  (97) 
3.26345e-06

>  <r_epik_State_Penalty>  (97) 
-0

>  <r_epik_Charging_Adjusted_Penalty>  (97) 
0

>  <i_epik_Tot_Q>  (97) 
0

>  <i_epik_Tot_abs_Q>  (97) 
0

>  <s_epik_Chemistry_Notes>  (97) 
This compound contains an electron-poor aromatic ring that is susceptible to covalent hydrolysis at low pH, typically resulting in measured values for nitrogen ring protonation that are around two units higher than predicted values.

>  <s_lp_Force_Field>  (97) 
OPLS3e

>  <r_lp_Energy>  (97) 
30.4191

>  <b_lp_Chiralities_Consistent>  (97) 
1

>  <s_lp_Variant>  (97) 
33:0-1

>  <s_i_glide_gridfile>  (97) 
pfpi4k_grid

>  <i_i_glide_lignum>  (97) 
41

>  <i_i_glide_rotatable_bonds>  (97) 
4

>  <r_i_docking_score>  (97) 
-4.39377

>  <r_i_glide_ligand_efficiency>  (97) 
-0.191034

>  <r_i_glide_ligand_efficiency_sa>  (97) 
-0.543274

>  <r_i_glide_ligand_efficiency_ln>  (97) 
-1.06245

>  <r_i_glide_gscore>  (97) 
-4.39377

>  <r_i_glide_lipo>  (97) 
-0.463772

>  <r_i_glide_hbond>  (97) 
-0.580748

>  <r_i_glide_metal>  (97) 
-0

>  <r_i_glide_rewards>  (97) 
-1.55565

>  <r_i_glide_evdw>  (97) 
-28.4742

>  <r_i_glide_ecoul>  (97) 
-6.09161

>  <r_i_glide_erotb>  (97) 
0.564319

>  <r_i_glide_esite>  (97) 
-0.0204751

>  <r_i_glide_emodel>  (97) 
-43.933

>  <r_i_glide_energy>  (97) 
-34.5659

>  <r_i_glide_einternal>  (97) 
2.49037

>  <r_i_glide_intrahb_reward>  (97) 
-0

>  <i_i_glide_confnum>  (97) 
2

>  <i_i_glide_posenum>  (97) 
1

>  <r_i_glide_eff_state_penalty>  (97) 
0

>  <ligand_id>  (97) 
33

>  <original_smiles>  (97) 
Cn1ncc(C2(O)CC3CCC(C2)N3C(=O)c2ncccn2)n1

>  <smiles>  (97) 
[H]OC1(c2nn(C([H])([H])[H])nc2[H])C([H])([H])C2([H])N(C(=O)c3nc([H])c([H])c([H])n3)C([H])(C([H])([H])C2([H])[H])C1([H])[H]

$$$$
33:0:2
     RDKit          3D

 41 44  0  0  1  0  0  0  0  0999 V2000
    1.5484   -6.2835    9.3721 C   0  0  0  0  0  0  0  0  0  0  0  0
    1.7704   -7.5088    8.6481 N   0  0  0  0  0  0  0  0  0  0  0  0
    2.2434   -8.6277    9.2441 N   0  0  0  0  0  0  0  0  0  0  0  0
    2.3302   -9.4526    8.2334 C   0  0  0  0  0  0  0  0  0  0  0  0
    1.9058   -8.8241    7.0322 C   0  0  0  0  0  0  0  0  0  0  0  0
    1.8493   -9.3752    5.6264 C   0  0  1  0  0  0  0  0  0  0  0  0
    2.3492  -10.6924    5.7261 O   0  0  0  0  0  0  0  0  0  0  0  0
    0.3912   -9.4006    5.0765 C   0  0  0  0  0  0  0  0  0  0  0  0
    0.3238   -9.5376    3.5311 C   0  0  2  0  0  0  0  0  0  0  0  0
    1.0218  -10.8093    3.0169 C   0  0  0  0  0  0  0  0  0  0  0  0
    2.4776  -10.3775    2.7732 C   0  0  0  0  0  0  0  0  0  0  0  0
    2.5058   -8.8956    3.1648 C   0  0  2  0  0  0  0  0  0  0  0  0
    2.8283   -8.6453    4.6645 C   0  0  0  0  0  0  0  0  0  0  0  0
    1.1230   -8.4571    2.9596 N   0  0  0  0  0  0  0  0  0  0  0  0
    0.6464   -7.3153    2.3922 C   0  0  0  0  0  0  0  0  0  0  0  0
   -0.5528   -7.0550    2.2678 O   0  0  0  0  0  0  0  0  0  0  0  0
    1.6478   -6.3130    1.8422 C   0  0  0  0  0  0  0  0  0  0  0  0
    2.6873   -5.9807    2.6167 N   0  0  0  0  0  0  0  0  0  0  0  0
    3.6257   -5.1619    2.0923 C   0  0  0  0  0  0  0  0  0  0  0  0
    3.5098   -4.6336    0.7989 C   0  0  0  0  0  0  0  0  0  0  0  0
    2.3652   -5.0110    0.0797 C   0  0  0  0  0  0  0  0  0  0  0  0
    1.4387   -5.8566    0.5994 N   0  0  0  0  0  0  0  0  0  0  0  0
    1.5495   -7.5940    7.3155 N   0  0  0  0  0  0  0  0  0  0  0  0
    2.2201   -6.2310   10.2296 H   0  0  0  0  0  0  0  0  0  0  0  0
    0.5133   -6.2583    9.7090 H   0  0  0  0  0  0  0  0  0  0  0  0
    1.7352   -5.4308    8.7181 H   0  0  0  0  0  0  0  0  0  0  0  0
    2.6905  -10.4609    8.3644 H   0  0  0  0  0  0  0  0  0  0  0  0
    1.8284  -11.1995    6.3514 H   0  0  0  0  0  0  0  0  0  0  0  0
   -0.1849  -10.1819    5.5790 H   0  0  0  0  0  0  0  0  0  0  0  0
   -0.1124   -8.4608    5.3200 H   0  0  0  0  0  0  0  0  0  0  0  0
   -0.7185   -9.5233    3.1992 H   0  0  0  0  0  0  0  0  0  0  0  0
    0.9486  -11.6378    3.7230 H   0  0  0  0  0  0  0  0  0  0  0  0
    0.5573  -11.1257    2.0822 H   0  0  0  0  0  0  0  0  0  0  0  0
    3.2093  -10.9543    3.3392 H   0  0  0  0  0  0  0  0  0  0  0  0
    2.7411  -10.4872    1.7209 H   0  0  0  0  0  0  0  0  0  0  0  0
    3.2448   -8.4106    2.5282 H   0  0  0  0  0  0  0  0  0  0  0  0
    2.7590   -7.5702    4.8346 H   0  0  0  0  0  0  0  0  0  0  0  0
    3.8629   -8.9058    4.8937 H   0  0  0  0  0  0  0  0  0  0  0  0
    4.4900   -4.9588    2.7067 H   0  0  0  0  0  0  0  0  0  0  0  0
    4.2554   -3.9783    0.3679 H   0  0  0  0  0  0  0  0  0  0  0  0
    2.1658   -4.6271   -0.9102 H   0  0  0  0  0  0  0  0  0  0  0  0
  1  2  1  0
  1 24  1  0
  1 25  1  0
  1 26  1  0
  2 23  1  0
  2  3  1  0
  3  4  2  0
  4  5  1  0
  4 27  1  0
  5  6  1  0
  5 23  2  0
  6 13  1  0
  6  7  1  1
  6  8  1  0
  7 28  1  0
  8  9  1  0
  8 29  1  0
  8 30  1  0
  9 14  1  0
  9 10  1  0
  9 31  1  6
 10 11  1  0
 10 32  1  0
 10 33  1  0
 11 12  1  0
 11 34  1  0
 11 35  1  0
 12 13  1  0
 12 14  1  0
 12 36  1  6
 13 37  1  0
 13 38  1  0
 14 15  1  0
 15 16  2  0
 15 17  1  0
 17 22  1  0
 17 18  2  0
 18 19  1  0
 19 20  2  0
 19 39  1  0
 20 21  1  0
 20 40  1  0
 21 22  2  0
 21 41  1  0
M  END
>  <i_m_ct_stereo_status>  (98) 
1

>  <s_m_source_file>  (98) 
/var/tmp/pbs.5076255.sched01/tmphrtf3o8j/0_qqz9eae.sdf

>  <i_m_source_file_index>  (98) 
41

>  <i_lp_mmshare_version>  (98) 
48012

>  <i_f3d_flags>  (98) 
0

>  <s_epik_input>  (98) 
W0NIM11uMW5bY0hdYyhuMSlbQ0BAXShbT0hdKShbQ0gyXVtDQEhdMjMpW0NIMl1bQ0BASF0oW0NIMl1bQ0gyXTIpTjNDKD1PKWM0bltjSF1bY0hdW2NIXW40

>  <s_epik_cmdline>  (98) 
J2VwaWtfcHl0aG9uJywgJy1waHQnLCAnMi4wJywgJy1waCcsICc3LjAnLCAnLXRuJywgJzgnLCAnLW1hJywgJzIwMCcsICctaW1hZScsICc8aW5maWxlLm1hZT4nLCAnLW9tYWUnLCAnPG91dGZpbGUubWFlPic=

>  <r_lp_tautomer_probability>  (98) 
1

>  <r_epik_Ionization_Penalty>  (98) 
3.26345e-06

>  <r_epik_Ionization_Penalty_Charging>  (98) 
0

>  <r_epik_Ionization_Penalty_Neutral>  (98) 
3.26345e-06

>  <r_epik_State_Penalty>  (98) 
-0

>  <r_epik_Charging_Adjusted_Penalty>  (98) 
0

>  <i_epik_Tot_Q>  (98) 
0

>  <i_epik_Tot_abs_Q>  (98) 
0

>  <s_epik_Chemistry_Notes>  (98) 
This compound contains an electron-poor aromatic ring that is susceptible to covalent hydrolysis at low pH, typically resulting in measured values for nitrogen ring protonation that are around two units higher than predicted values.

>  <s_lp_Force_Field>  (98) 
OPLS3e

>  <r_lp_Energy>  (98) 
30.4191

>  <b_lp_Chiralities_Consistent>  (98) 
1

>  <s_lp_Variant>  (98) 
33:0-1

>  <s_i_glide_gridfile>  (98) 
pfpi4k_grid

>  <i_i_glide_lignum>  (98) 
41

>  <i_i_glide_rotatable_bonds>  (98) 
4

>  <r_i_docking_score>  (98) 
-3.86499

>  <r_i_glide_ligand_efficiency>  (98) 
-0.168043

>  <r_i_glide_ligand_efficiency_sa>  (98) 
-0.477892

>  <r_i_glide_ligand_efficiency_ln>  (98) 
-0.934589

>  <r_i_glide_gscore>  (98) 
-3.86499

>  <r_i_glide_lipo>  (98) 
-0.15855

>  <r_i_glide_hbond>  (98) 
-0.454773

>  <r_i_glide_metal>  (98) 
-0

>  <r_i_glide_rewards>  (98) 
-1.26585

>  <r_i_glide_evdw>  (98) 
-18.5603

>  <r_i_glide_ecoul>  (98) 
-10.0758

>  <r_i_glide_erotb>  (98) 
0.564319

>  <r_i_glide_esite>  (98) 
-0.110754

>  <r_i_glide_emodel>  (98) 
-37.2387

>  <r_i_glide_energy>  (98) 
-28.6361

>  <r_i_glide_einternal>  (98) 
0.949937

>  <r_i_glide_intrahb_reward>  (98) 
-0

>  <i_i_glide_confnum>  (98) 
5

>  <i_i_glide_posenum>  (98) 
2

>  <r_i_glide_eff_state_penalty>  (98) 
0

>  <ligand_id>  (98) 
33

>  <original_smiles>  (98) 
Cn1ncc(C2(O)CC3CCC(C2)N3C(=O)c2ncccn2)n1

>  <smiles>  (98) 
[H]OC1(c2nn(C([H])([H])[H])nc2[H])C([H])([H])C2([H])N(C(=O)c3nc([H])c([H])c([H])n3)C([H])(C([H])([H])C2([H])[H])C1([H])[H]

$$$$
33:1:0
     RDKit          3D

 41 44  0  0  1  0  0  0  0  0999 V2000
    3.8501    7.2515    3.6728 C   0  0  0  0  0  0  0  0  0  0  0  0
    2.9799    6.1159    3.5264 N   0  0  0  0  0  0  0  0  0  0  0  0
    3.3680    5.0229    2.8449 N   0  0  0  0  0  0  0  0  0  0  0  0
    2.2897    4.2843    2.8828 C   0  0  0  0  0  0  0  0  0  0  0  0
    1.2867    4.9010    3.6772 C   0  0  0  0  0  0  0  0  0  0  0  0
   -0.0788    4.3798    4.0916 C   0  0  2  0  0  0  0  0  0  0  0  0
   -1.0132    5.0673    3.2803 O   0  0  0  0  0  0  0  0  0  0  0  0
   -0.3411    4.7017    5.5979 C   0  0  0  0  0  0  0  0  0  0  0  0
    0.2850    3.6539    6.5588 C   0  0  2  0  0  0  0  0  0  0  0  0
    1.7946    3.4216    6.3418 C   0  0  0  0  0  0  0  0  0  0  0  0
    1.8753    2.2684    5.3243 C   0  0  0  0  0  0  0  0  0  0  0  0
    0.4026    1.9781    4.9701 C   0  0  2  0  0  0  0  0  0  0  0  0
   -0.2057    2.8466    3.8275 C   0  0  0  0  0  0  0  0  0  0  0  0
   -0.2996    2.3641    6.1895 N   0  0  0  0  0  0  0  0  0  0  0  0
   -1.2448    1.6495    6.8445 C   0  0  0  0  0  0  0  0  0  0  0  0
   -1.6544    0.5358    6.4951 O   0  0  0  0  0  0  0  0  0  0  0  0
   -1.8463    2.2589    8.0916 C   0  0  0  0  0  0  0  0  0  0  0  0
   -1.2102    2.0333    9.2473 N   0  0  0  0  0  0  0  0  0  0  0  0
   -1.7763    2.5370   10.3675 C   0  0  0  0  0  0  0  0  0  0  0  0
   -2.9786    3.2615   10.3193 C   0  0  0  0  0  0  0  0  0  0  0  0
   -3.5663    3.4244    9.0544 C   0  0  0  0  0  0  0  0  0  0  0  0
   -2.9965    2.9217    7.9402 N   0  0  0  0  0  0  0  0  0  0  0  0
    1.7013    6.1068    3.9768 N   0  0  0  0  0  0  0  0  0  0  0  0
    4.5079    7.3153    2.8034 H   0  0  0  0  0  0  0  0  0  0  0  0
    4.4469    7.1556    4.5818 H   0  0  0  0  0  0  0  0  0  0  0  0
    3.2401    8.1512    3.7261 H   0  0  0  0  0  0  0  0  0  0  0  0
    2.2669    3.3310    2.3761 H   0  0  0  0  0  0  0  0  0  0  0  0
   -0.7098    4.9430    2.3670 H   0  0  0  0  0  0  0  0  0  0  0  0
   -0.0278    5.7147    5.8672 H   0  0  0  0  0  0  0  0  0  0  0  0
   -1.4140    4.6828    5.7584 H   0  0  0  0  0  0  0  0  0  0  0  0
    0.0865    3.9532    7.5943 H   0  0  0  0  0  0  0  0  0  0  0  0
    2.2829    4.3357    6.0146 H   0  0  0  0  0  0  0  0  0  0  0  0
    2.2743    3.1427    7.2795 H   0  0  0  0  0  0  0  0  0  0  0  0
    2.4910    2.4876    4.4579 H   0  0  0  0  0  0  0  0  0  0  0  0
    2.3185    1.4043    5.8178 H   0  0  0  0  0  0  0  0  0  0  0  0
    0.2631    0.9220    4.7415 H   0  0  0  0  0  0  0  0  0  0  0  0
   -1.2680    2.6086    3.7546 H   0  0  0  0  0  0  0  0  0  0  0  0
    0.1901    2.5622    2.8508 H   0  0  0  0  0  0  0  0  0  0  0  0
   -1.2670    2.3656   11.3053 H   0  0  0  0  0  0  0  0  0  0  0  0
   -3.4296    3.6493   11.2185 H   0  0  0  0  0  0  0  0  0  0  0  0
   -4.5054    3.9413    8.9238 H   0  0  0  0  0  0  0  0  0  0  0  0
  1  2  1  0
  1 24  1  0
  1 25  1  0
  1 26  1  0
  2 23  1  0
  2  3  1  0
  3  4  2  0
  4  5  1  0
  4 27  1  0
  5  6  1  0
  5 23  2  0
  6 13  1  0
  6  7  1  6
  6  8  1  0
  7 28  1  0
  8  9  1  0
  8 29  1  0
  8 30  1  0
  9 14  1  0
  9 10  1  0
  9 31  1  1
 10 11  1  0
 10 32  1  0
 10 33  1  0
 11 12  1  0
 11 34  1  0
 11 35  1  0
 12 13  1  0
 12 14  1  0
 12 36  1  6
 13 37  1  0
 13 38  1  0
 14 15  1  0
 15 16  2  0
 15 17  1  0
 17 22  1  0
 17 18  2  0
 18 19  1  0
 19 20  2  0
 19 39  1  0
 20 21  1  0
 20 40  1  0
 21 22  2  0
 21 41  1  0
M  END
>  <i_m_ct_stereo_status>  (99) 
1

>  <s_m_source_file>  (99) 
/var/tmp/pbs.5076255.sched01/tmphrtf3o8j/0_qqz9eae.sdf

>  <i_m_source_file_index>  (99) 
42

>  <i_lp_mmshare_version>  (99) 
48012

>  <i_f3d_flags>  (99) 
0

>  <s_epik_input>  (99) 
W0NIM11uMW5bY0hdYyhuMSlbQ0BAXShbT0hdKShbQ0gyXVtDQEhdMjMpW0NIMl1bQ0BASF0oW0NIMl1bQ0gyXTIpTjNDKD1PKWM0bltjSF1bY0hdW2NIXW40

>  <s_epik_cmdline>  (99) 
J2VwaWtfcHl0aG9uJywgJy1waHQnLCAnMi4wJywgJy1waCcsICc3LjAnLCAnLXRuJywgJzgnLCAnLW1hJywgJzIwMCcsICctaW1hZScsICc8aW5maWxlLm1hZT4nLCAnLW9tYWUnLCAnPG91dGZpbGUubWFlPic=

>  <r_lp_tautomer_probability>  (99) 
1

>  <r_epik_Ionization_Penalty>  (99) 
3.26345e-06

>  <r_epik_Ionization_Penalty_Charging>  (99) 
0

>  <r_epik_Ionization_Penalty_Neutral>  (99) 
3.26345e-06

>  <r_epik_State_Penalty>  (99) 
-0

>  <r_epik_Charging_Adjusted_Penalty>  (99) 
0

>  <i_epik_Tot_Q>  (99) 
0

>  <i_epik_Tot_abs_Q>  (99) 
0

>  <s_epik_Chemistry_Notes>  (99) 
This compound contains an electron-poor aromatic ring that is susceptible to covalent hydrolysis at low pH, typically resulting in measured values for nitrogen ring protonation that are around two units higher than predicted values.

>  <s_lp_Force_Field>  (99) 
OPLS3e

>  <r_lp_Energy>  (99) 
30.4249

>  <b_lp_Chiralities_Consistent>  (99) 
1

>  <s_lp_Variant>  (99) 
33:0-2

>  <s_i_glide_gridfile>  (99) 
pfpi4k_grid

>  <i_i_glide_lignum>  (99) 
42

>  <i_i_glide_rotatable_bonds>  (99) 
4

>  <r_i_docking_score>  (99) 
-3.99762

>  <r_i_glide_ligand_efficiency>  (99) 
-0.173809

>  <r_i_glide_ligand_efficiency_sa>  (99) 
-0.494291

>  <r_i_glide_ligand_efficiency_ln>  (99) 
-0.96666

>  <r_i_glide_gscore>  (99) 
-3.99762

>  <r_i_glide_lipo>  (99) 
-0.146655

>  <r_i_glide_hbond>  (99) 
-0.48

>  <r_i_glide_metal>  (99) 
-0

>  <r_i_glide_rewards>  (99) 
-1.34533

>  <r_i_glide_evdw>  (99) 
-23.325

>  <r_i_glide_ecoul>  (99) 
-9.14322

>  <r_i_glide_erotb>  (99) 
0.564319

>  <r_i_glide_esite>  (99) 
-0.0522218

>  <r_i_glide_emodel>  (99) 
-41.2168

>  <r_i_glide_energy>  (99) 
-32.4682

>  <r_i_glide_einternal>  (99) 
1.0027

>  <r_i_glide_intrahb_reward>  (99) 
-0

>  <i_i_glide_confnum>  (99) 
3

>  <i_i_glide_posenum>  (99) 
17

>  <r_i_glide_eff_state_penalty>  (99) 
0

>  <ligand_id>  (99) 
33

>  <original_smiles>  (99) 
Cn1ncc(C2(O)CC3CCC(C2)N3C(=O)c2ncccn2)n1

>  <smiles>  (99) 
[H]OC1(c2nn(C([H])([H])[H])nc2[H])C([H])([H])C2([H])N(C(=O)c3nc([H])c([H])c([H])n3)C([H])(C([H])([H])C2([H])[H])C1([H])[H]

$$$$
33:1:1
     RDKit          3D

 41 44  0  0  1  0  0  0  0  0999 V2000
    2.0782   -8.7847    2.5655 C   0  0  0  0  0  0  0  0  0  0  0  0
    2.7214   -7.8129    1.7143 N   0  0  0  0  0  0  0  0  0  0  0  0
    3.9388   -8.0373    1.1656 N   0  0  0  0  0  0  0  0  0  0  0  0
    4.1336   -6.9553    0.4781 C   0  0  0  0  0  0  0  0  0  0  0  0
    3.0647   -6.0157    0.6873 C   0  0  0  0  0  0  0  0  0  0  0  0
    2.9028   -4.5996    0.2017 C   0  0  2  0  0  0  0  0  0  0  0  0
    1.8346   -4.6451   -0.7293 O   0  0  0  0  0  0  0  0  0  0  0  0
    4.2051   -4.0884   -0.4933 C   0  0  0  0  0  0  0  0  0  0  0  0
    5.2736   -3.5563    0.5123 C   0  0  2  0  0  0  0  0  0  0  0  0
    5.6891   -4.5456    1.6274 C   0  0  0  0  0  0  0  0  0  0  0  0
    4.6325   -4.3245    2.7334 C   0  0  0  0  0  0  0  0  0  0  0  0
    3.7526   -3.1819    2.2122 C   0  0  2  0  0  0  0  0  0  0  0  0
    2.5208   -3.6522    1.3875 C   0  0  0  0  0  0  0  0  0  0  0  0
    4.6283   -2.4889    1.2669 N   0  0  0  0  0  0  0  0  0  0  0  0
    4.8583   -1.1607    1.1482 C   0  0  0  0  0  0  0  0  0  0  0  0
    5.6186   -0.6624    0.3205 O   0  0  0  0  0  0  0  0  0  0  0  0
    4.1330   -0.2404    2.1225 C   0  0  0  0  0  0  0  0  0  0  0  0
    3.1434    0.5123    1.6275 N   0  0  0  0  0  0  0  0  0  0  0  0
    2.5192    1.3565    2.4753 C   0  0  0  0  0  0  0  0  0  0  0  0
    2.8748    1.4385    3.8334 C   0  0  0  0  0  0  0  0  0  0  0  0
    3.9211    0.5975    4.2515 C   0  0  0  0  0  0  0  0  0  0  0  0
    4.5553   -0.2341    3.3959 N   0  0  0  0  0  0  0  0  0  0  0  0
    2.1393   -6.6309    1.4015 N   0  0  0  0  0  0  0  0  0  0  0  0
    2.8312   -9.3572    3.1108 H   0  0  0  0  0  0  0  0  0  0  0  0
    1.5032   -9.4503    1.9264 H   0  0  0  0  0  0  0  0  0  0  0  0
    1.4189   -8.2829    3.2711 H   0  0  0  0  0  0  0  0  0  0  0  0
    5.0197   -6.8216   -0.1006 H   0  0  0  0  0  0  0  0  0  0  0  0
    2.1594   -5.1221   -1.5013 H   0  0  0  0  0  0  0  0  0  0  0  0
    4.6282   -4.8512   -1.1498 H   0  0  0  0  0  0  0  0  0  0  0  0
    3.9401   -3.2745   -1.1708 H   0  0  0  0  0  0  0  0  0  0  0  0
    6.1456   -3.2066   -0.0283 H   0  0  0  0  0  0  0  0  0  0  0  0
    5.7747   -5.5781    1.3000 H   0  0  0  0  0  0  0  0  0  0  0  0
    6.6681   -4.2653    2.0254 H   0  0  0  0  0  0  0  0  0  0  0  0
    4.0354   -5.2064    2.9441 H   0  0  0  0  0  0  0  0  0  0  0  0
    5.1100   -4.0506    3.6658 H   0  0  0  0  0  0  0  0  0  0  0  0
    3.3999   -2.5579    3.0464 H   0  0  0  0  0  0  0  0  0  0  0  0
    2.0254   -2.7641    0.9891 H   0  0  0  0  0  0  0  0  0  0  0  0
    1.7870   -4.1170    2.0491 H   0  0  0  0  0  0  0  0  0  0  0  0
    1.7409    1.9798    2.0608 H   0  0  0  0  0  0  0  0  0  0  0  0
    2.3823    2.1154    4.5062 H   0  0  0  0  0  0  0  0  0  0  0  0
    4.2603    0.5999    5.2773 H   0  0  0  0  0  0  0  0  0  0  0  0
  1  2  1  0
  1 24  1  0
  1 25  1  0
  1 26  1  0
  2 23  1  0
  2  3  1  0
  3  4  2  0
  4  5  1  0
  4 27  1  0
  5  6  1  0
  5 23  2  0
  6 13  1  0
  6  7  1  6
  6  8  1  0
  7 28  1  0
  8  9  1  0
  8 29  1  0
  8 30  1  0
  9 14  1  0
  9 10  1  0
  9 31  1  6
 10 11  1  0
 10 32  1  0
 10 33  1  0
 11 12  1  0
 11 34  1  0
 11 35  1  0
 12 13  1  0
 12 14  1  0
 12 36  1  1
 13 37  1  0
 13 38  1  0
 14 15  1  0
 15 16  2  0
 15 17  1  0
 17 22  1  0
 17 18  2  0
 18 19  1  0
 19 20  2  0
 19 39  1  0
 20 21  1  0
 20 40  1  0
 21 22  2  0
 21 41  1  0
M  END
>  <i_m_ct_stereo_status>  (100) 
1

>  <s_m_source_file>  (100) 
/var/tmp/pbs.5076255.sched01/tmphrtf3o8j/0_qqz9eae.sdf

>  <i_m_source_file_index>  (100) 
42

>  <i_lp_mmshare_version>  (100) 
48012

>  <i_f3d_flags>  (100) 
0

>  <s_epik_input>  (100) 
W0NIM11uMW5bY0hdYyhuMSlbQ0BAXShbT0hdKShbQ0gyXVtDQEhdMjMpW0NIMl1bQ0BASF0oW0NIMl1bQ0gyXTIpTjNDKD1PKWM0bltjSF1bY0hdW2NIXW40

>  <s_epik_cmdline>  (100) 
J2VwaWtfcHl0aG9uJywgJy1waHQnLCAnMi4wJywgJy1waCcsICc3LjAnLCAnLXRuJywgJzgnLCAnLW1hJywgJzIwMCcsICctaW1hZScsICc8aW5maWxlLm1hZT4nLCAnLW9tYWUnLCAnPG91dGZpbGUubWFlPic=

>  <r_lp_tautomer_probability>  (100) 
1

>  <r_epik_Ionization_Penalty>  (100) 
3.26345e-06

>  <r_epik_Ionization_Penalty_Charging>  (100) 
0

>  <r_epik_Ionization_Penalty_Neutral>  (100) 
3.26345e-06

>  <r_epik_State_Penalty>  (100) 
-0

>  <r_epik_Charging_Adjusted_Penalty>  (100) 
0

>  <i_epik_Tot_Q>  (100) 
0

>  <i_epik_Tot_abs_Q>  (100) 
0

>  <s_epik_Chemistry_Notes>  (100) 
This compound contains an electron-poor aromatic ring that is susceptible to covalent hydrolysis at low pH, typically resulting in measured values for nitrogen ring protonation that are around two units higher than predicted values.

>  <s_lp_Force_Field>  (100) 
OPLS3e

>  <r_lp_Energy>  (100) 
30.4249

>  <b_lp_Chiralities_Consistent>  (100) 
1

>  <s_lp_Variant>  (100) 
33:0-2

>  <s_i_glide_gridfile>  (100) 
pfpi4k_grid

>  <i_i_glide_lignum>  (100) 
42

>  <i_i_glide_rotatable_bonds>  (100) 
4

>  <r_i_docking_score>  (100) 
-3.62793

>  <r_i_glide_ligand_efficiency>  (100) 
-0.157736

>  <r_i_glide_ligand_efficiency_sa>  (100) 
-0.448581

>  <r_i_glide_ligand_efficiency_ln>  (100) 
-0.877268

>  <r_i_glide_gscore>  (100) 
-3.62793

>  <r_i_glide_lipo>  (100) 
-0.298154

>  <r_i_glide_hbond>  (100) 
-0.3247

>  <r_i_glide_metal>  (100) 
-0

>  <r_i_glide_rewards>  (100) 
-1.47501

>  <r_i_glide_evdw>  (100) 
-21.0018

>  <r_i_glide_ecoul>  (100) 
-6.91623

>  <r_i_glide_erotb>  (100) 
0.564319

>  <r_i_glide_esite>  (100) 
-0.00687005

>  <r_i_glide_emodel>  (100) 
-35.2136

>  <r_i_glide_energy>  (100) 
-27.918

>  <r_i_glide_einternal>  (100) 
1.63689

>  <r_i_glide_intrahb_reward>  (100) 
-0

>  <i_i_glide_confnum>  (100) 
3

>  <i_i_glide_posenum>  (100) 
4

>  <r_i_glide_eff_state_penalty>  (100) 
0

>  <ligand_id>  (100) 
33

>  <original_smiles>  (100) 
Cn1ncc(C2(O)CC3CCC(C2)N3C(=O)c2ncccn2)n1

>  <smiles>  (100) 
[H]OC1(c2nn(C([H])([H])[H])nc2[H])C([H])([H])C2([H])N(C(=O)c3nc([H])c([H])c([H])n3)C([H])(C([H])([H])C2([H])[H])C1([H])[H]

$$$$
33:1:2
     RDKit          3D

 41 44  0  0  1  0  0  0  0  0999 V2000
    8.6283   -3.0712   -1.0711 C   0  0  0  0  0  0  0  0  0  0  0  0
    7.4597   -2.4920   -0.4634 N   0  0  0  0  0  0  0  0  0  0  0  0
    7.5464   -1.4912    0.4373 N   0  0  0  0  0  0  0  0  0  0  0  0
    6.2891   -1.2996    0.7425 C   0  0  0  0  0  0  0  0  0  0  0  0
    5.4605   -2.2345    0.0666 C   0  0  0  0  0  0  0  0  0  0  0  0
    3.9774   -2.4943    0.2088 C   0  0  2  0  0  0  0  0  0  0  0  0
    3.3844   -1.8468   -0.9089 O   0  0  0  0  0  0  0  0  0  0  0  0
    3.4148   -1.8749    1.5290 C   0  0  0  0  0  0  0  0  0  0  0  0
    3.6348   -2.7872    2.7751 C   0  0  2  0  0  0  0  0  0  0  0  0
    5.1103   -3.1908    3.0197 C   0  0  0  0  0  0  0  0  0  0  0  0
    5.2847   -4.4777    2.1834 C   0  0  0  0  0  0  0  0  0  0  0  0
    3.9019   -4.7256    1.5531 C   0  0  2  0  0  0  0  0  0  0  0  0
    3.6825   -4.0339    0.1765 C   0  0  0  0  0  0  0  0  0  0  0  0
    2.9914   -4.0681    2.4860 N   0  0  0  0  0  0  0  0  0  0  0  0
    1.8448   -4.5363    3.0292 C   0  0  0  0  0  0  0  0  0  0  0  0
    1.0719   -3.8558    3.7069 O   0  0  0  0  0  0  0  0  0  0  0  0
    1.4935   -5.9975    2.7655 C   0  0  0  0  0  0  0  0  0  0  0  0
    2.3507   -6.9062    3.2393 N   0  0  0  0  0  0  0  0  0  0  0  0
    2.0956   -8.2019    2.9801 C   0  0  0  0  0  0  0  0  0  0  0  0
    0.9516   -8.5929    2.2706 C   0  0  0  0  0  0  0  0  0  0  0  0
    0.1018   -7.5614    1.8264 C   0  0  0  0  0  0  0  0  0  0  0  0
    0.3776   -6.2641    2.0692 N   0  0  0  0  0  0  0  0  0  0  0  0
    6.2134   -2.9082   -0.7701 N   0  0  0  0  0  0  0  0  0  0  0  0
    9.4860   -2.9724   -0.4047 H   0  0  0  0  0  0  0  0  0  0  0  0
    8.8154   -2.5371   -1.9973 H   0  0  0  0  0  0  0  0  0  0  0  0
    8.4765   -4.1292   -1.2878 H   0  0  0  0  0  0  0  0  0  0  0  0
    6.0134   -0.5495    1.4700 H   0  0  0  0  0  0  0  0  0  0  0  0
    2.4544   -1.7035   -0.7432 H   0  0  0  0  0  0  0  0  0  0  0  0
    3.8102   -0.8724    1.7013 H   0  0  0  0  0  0  0  0  0  0  0  0
    2.3428   -1.7260    1.4145 H   0  0  0  0  0  0  0  0  0  0  0  0
    3.2196   -2.3070    3.6646 H   0  0  0  0  0  0  0  0  0  0  0  0
    5.8115   -2.4131    2.7693 H   0  0  0  0  0  0  0  0  0  0  0  0
    5.2622   -3.4349    4.0770 H   0  0  0  0  0  0  0  0  0  0  0  0
    6.0604   -4.3992    1.4264 H   0  0  0  0  0  0  0  0  0  0  0  0
    5.5635   -5.3101    2.8289 H   0  0  0  0  0  0  0  0  0  0  0  0
    3.7376   -5.7976    1.4303 H   0  0  0  0  0  0  0  0  0  0  0  0
    2.6436   -4.1918   -0.1135 H   0  0  0  0  0  0  0  0  0  0  0  0
    4.2632   -4.5493   -0.5937 H   0  0  0  0  0  0  0  0  0  0  0  0
    2.8109   -8.9310    3.3313 H   0  0  0  0  0  0  0  0  0  0  0  0
    0.7354   -9.6311    2.0553 H   0  0  0  0  0  0  0  0  0  0  0  0
   -0.8021   -7.7806    1.2748 H   0  0  0  0  0  0  0  0  0  0  0  0
  1  2  1  0
  1 24  1  0
  1 25  1  0
  1 26  1  0
  2 23  1  0
  2  3  1  0
  3  4  2  0
  4  5  1  0
  4 27  1  0
  5  6  1  0
  5 23  2  0
  6 13  1  0
  6  7  1  6
  6  8  1  0
  7 28  1  0
  8  9  1  0
  8 29  1  0
  8 30  1  0
  9 14  1  0
  9 10  1  0
  9 31  1  1
 10 11  1  0
 10 32  1  0
 10 33  1  0
 11 12  1  0
 11 34  1  0
 11 35  1  0
 12 13  1  0
 12 14  1  0
 12 36  1  6
 13 37  1  0
 13 38  1  0
 14 15  1  0
 15 16  2  0
 15 17  1  0
 17 22  1  0
 17 18  2  0
 18 19  1  0
 19 20  2  0
 19 39  1  0
 20 21  1  0
 20 40  1  0
 21 22  2  0
 21 41  1  0
M  END
>  <i_m_ct_stereo_status>  (101) 
1

>  <s_m_source_file>  (101) 
/var/tmp/pbs.5076255.sched01/tmphrtf3o8j/0_qqz9eae.sdf

>  <i_m_source_file_index>  (101) 
42

>  <i_lp_mmshare_version>  (101) 
48012

>  <i_f3d_flags>  (101) 
0

>  <s_epik_input>  (101) 
W0NIM11uMW5bY0hdYyhuMSlbQ0BAXShbT0hdKShbQ0gyXVtDQEhdMjMpW0NIMl1bQ0BASF0oW0NIMl1bQ0gyXTIpTjNDKD1PKWM0bltjSF1bY0hdW2NIXW40

>  <s_epik_cmdline>  (101) 
J2VwaWtfcHl0aG9uJywgJy1waHQnLCAnMi4wJywgJy1waCcsICc3LjAnLCAnLXRuJywgJzgnLCAnLW1hJywgJzIwMCcsICctaW1hZScsICc8aW5maWxlLm1hZT4nLCAnLW9tYWUnLCAnPG91dGZpbGUubWFlPic=

>  <r_lp_tautomer_probability>  (101) 
1

>  <r_epik_Ionization_Penalty>  (101) 
3.26345e-06

>  <r_epik_Ionization_Penalty_Charging>  (101) 
0

>  <r_epik_Ionization_Penalty_Neutral>  (101) 
3.26345e-06

>  <r_epik_State_Penalty>  (101) 
-0

>  <r_epik_Charging_Adjusted_Penalty>  (101) 
0

>  <i_epik_Tot_Q>  (101) 
0

>  <i_epik_Tot_abs_Q>  (101) 
0

>  <s_epik_Chemistry_Notes>  (101) 
This compound contains an electron-poor aromatic ring that is susceptible to covalent hydrolysis at low pH, typically resulting in measured values for nitrogen ring protonation that are around two units higher than predicted values.

>  <s_lp_Force_Field>  (101) 
OPLS3e

>  <r_lp_Energy>  (101) 
30.4249

>  <b_lp_Chiralities_Consistent>  (101) 
1

>  <s_lp_Variant>  (101) 
33:0-2

>  <s_i_glide_gridfile>  (101) 
pfpi4k_grid

>  <i_i_glide_lignum>  (101) 
42

>  <i_i_glide_rotatable_bonds>  (101) 
4

>  <r_i_docking_score>  (101) 
-3.46293

>  <r_i_glide_ligand_efficiency>  (101) 
-0.150562

>  <r_i_glide_ligand_efficiency_sa>  (101) 
-0.428179

>  <r_i_glide_ligand_efficiency_ln>  (101) 
-0.837368

>  <r_i_glide_gscore>  (101) 
-3.46293

>  <r_i_glide_lipo>  (101) 
-0.196785

>  <r_i_glide_hbond>  (101) 
-0.380964

>  <r_i_glide_metal>  (101) 
-0

>  <r_i_glide_rewards>  (101) 
-1.26585

>  <r_i_glide_evdw>  (101) 
-21.7778

>  <r_i_glide_ecoul>  (101) 
-6.87626

>  <r_i_glide_erotb>  (101) 
0.564319

>  <r_i_glide_esite>  (101) 
-0.0633241

>  <r_i_glide_emodel>  (101) 
-35.5196

>  <r_i_glide_energy>  (101) 
-28.6541

>  <r_i_glide_einternal>  (101) 
1.81273

>  <r_i_glide_intrahb_reward>  (101) 
-0

>  <i_i_glide_confnum>  (101) 
3

>  <i_i_glide_posenum>  (101) 
28

>  <r_i_glide_eff_state_penalty>  (101) 
0

>  <ligand_id>  (101) 
33

>  <original_smiles>  (101) 
Cn1ncc(C2(O)CC3CCC(C2)N3C(=O)c2ncccn2)n1

>  <smiles>  (101) 
[H]OC1(c2nn(C([H])([H])[H])nc2[H])C([H])([H])C2([H])N(C(=O)c3nc([H])c([H])c([H])n3)C([H])(C([H])([H])C2([H])[H])C1([H])[H]

$$$$
34:0:0
     RDKit          3D

 77 82  0  0  1  0  0  0  0  0999 V2000
    6.6709   -8.4732    1.7961 C   0  0  0  0  0  0  0  0  0  0  0  0
    5.1401   -8.4762    2.0128 C   0  0  0  0  0  0  0  0  0  0  0  0
    4.5075   -8.4849    0.6076 C   0  0  0  0  0  0  0  0  0  0  0  0
    4.7137   -9.8118    2.6656 C   0  0  1  0  0  0  0  0  0  0  0  0
    5.4562  -10.0817    3.8377 O   0  0  0  0  0  0  0  0  0  0  0  0
    3.2030   -9.8363    2.9531 C   0  0  0  0  0  0  0  0  0  0  0  0
    2.7465   -8.7354    3.9216 C   0  0  1  0  0  0  0  0  0  0  0  0
    2.9458   -9.2559    5.2298 O   0  0  0  0  0  0  0  0  0  0  0  0
    3.3444   -7.2789    3.6989 C   0  0  2  0  0  0  0  0  0  0  0  0
    3.5443   -6.6655    5.1259 C   0  0  0  0  0  0  0  0  0  0  0  0
    2.2472   -6.3988    2.9752 C   0  0  0  0  0  0  0  0  0  0  0  0
    2.4617   -4.8427    2.8299 C   0  0  0  0  0  0  0  0  0  0  0  0
    3.3426   -4.3001    1.6310 C   0  0  2  0  0  0  0  0  0  0  0  0
    2.3709   -4.0413    0.4629 C   0  0  0  0  0  0  0  0  0  0  0  0
    4.3021   -5.3886    1.1672 C   0  0  1  0  0  0  0  0  0  0  0  0
    5.1744   -4.9885   -0.0708 C   0  0  0  0  0  0  0  0  0  0  0  0
    5.9644   -3.6631    0.0719 C   0  0  1  0  0  0  0  0  0  0  0  0
    7.3337   -3.9336    0.7761 C   0  0  0  0  0  0  0  0  0  0  0  0
    6.3307   -2.8126   -1.1781 C   0  0  1  0  0  0  0  0  0  0  0  0
    5.3443   -2.7805   -2.3368 C   0  0  0  0  0  0  0  0  0  0  0  0
    4.5776   -1.6572   -2.7712 C   0  0  0  0  0  0  0  0  0  0  0  0
    3.8427   -2.0671   -3.8449 C   0  0  0  0  0  0  0  0  0  0  0  0
    4.1022   -3.3682   -4.1335 O   0  0  0  0  0  0  0  0  0  0  0  0
    5.0095   -3.7784   -3.2066 C   0  0  0  0  0  0  0  0  0  0  0  0
    6.5376   -1.5066   -0.6049 O   0  0  0  0  0  0  0  0  0  0  0  0
    5.7948   -1.3425    0.5796 C   0  0  1  0  0  0  0  0  0  0  0  0
    4.9198   -0.2486    0.4767 O   0  0  0  0  0  0  0  0  0  0  0  0
    5.0037   -2.6451    0.6931 C   0  0  2  0  0  0  0  0  0  0  0  0
    4.2364   -3.0377    2.0104 C   0  0  1  0  0  0  0  0  0  0  0  0
    3.3222   -1.8579    2.4629 C   0  0  0  0  0  0  0  0  0  0  0  0
    5.2770   -3.4288    3.1226 C   0  0  1  0  0  0  0  0  0  0  0  0
    4.8847   -2.9562    4.3932 O   0  0  0  0  0  0  0  0  0  0  0  0
    5.5348   -4.9249    3.2637 C   0  0  0  0  0  0  0  0  0  0  0  0
    5.0538   -5.8548    2.4115 C   0  0  0  0  0  0  0  0  0  0  0  0
    4.7507   -7.2647    2.9451 C   0  0  2  0  0  0  0  0  0  0  0  0
    6.9918   -9.3401    1.2148 H   0  0  0  0  0  0  0  0  0  0  0  0
    7.2110   -8.4947    2.7445 H   0  0  0  0  0  0  0  0  0  0  0  0
    6.9997   -7.5771    1.2661 H   0  0  0  0  0  0  0  0  0  0  0  0
    3.4375   -8.2953    0.6445 H   0  0  0  0  0  0  0  0  0  0  0  0
    4.6233   -9.4546    0.1196 H   0  0  0  0  0  0  0  0  0  0  0  0
    4.9594   -7.7508   -0.0523 H   0  0  0  0  0  0  0  0  0  0  0  0
    4.9402  -10.6370    1.9855 H   0  0  0  0  0  0  0  0  0  0  0  0
    5.1322  -10.8908    4.2089 H   0  0  0  0  0  0  0  0  0  0  0  0
    2.6501   -9.7247    2.0261 H   0  0  0  0  0  0  0  0  0  0  0  0
    2.9019  -10.8197    3.3195 H   0  0  0  0  0  0  0  0  0  0  0  0
    1.6595   -8.6814    3.8397 H   0  0  0  0  0  0  0  0  0  0  0  0
    2.4773  -10.0750    5.3100 H   0  0  0  0  0  0  0  0  0  0  0  0
    3.8925   -5.6396    5.1287 H   0  0  0  0  0  0  0  0  0  0  0  0
    4.2954   -7.2200    5.6911 H   0  0  0  0  0  0  0  0  0  0  0  0
    2.6247   -6.6832    5.7100 H   0  0  0  0  0  0  0  0  0  0  0  0
    1.9899   -6.8404    2.0129 H   0  0  0  0  0  0  0  0  0  0  0  0
    1.3384   -6.4993    3.5694 H   0  0  0  0  0  0  0  0  0  0  0  0
    1.4711   -4.3904    2.7584 H   0  0  0  0  0  0  0  0  0  0  0  0
    2.8187   -4.4408    3.7757 H   0  0  0  0  0  0  0  0  0  0  0  0
    2.7820   -3.8473   -0.5235 H   0  0  0  0  0  0  0  0  0  0  0  0
    1.8296   -3.1308    0.6991 H   0  0  0  0  0  0  0  0  0  0  0  0
    1.6841   -4.8822    0.3351 H   0  0  0  0  0  0  0  0  0  0  0  0
    3.6664   -6.1833    0.8022 H   0  0  0  0  0  0  0  0  0  0  0  0
    5.8747   -5.7843   -0.2871 H   0  0  0  0  0  0  0  0  0  0  0  0
    4.5174   -4.9528   -0.9373 H   0  0  0  0  0  0  0  0  0  0  0  0
    7.7925   -3.0254    1.1550 H   0  0  0  0  0  0  0  0  0  0  0  0
    8.0561   -4.3575    0.0811 H   0  0  0  0  0  0  0  0  0  0  0  0
    7.3128   -4.6409    1.5944 H   0  0  0  0  0  0  0  0  0  0  0  0
    7.2702   -3.1512   -1.6135 H   0  0  0  0  0  0  0  0  0  0  0  0
    4.5618   -0.6662   -2.3474 H   0  0  0  0  0  0  0  0  0  0  0  0
    3.1287   -1.5864   -4.4940 H   0  0  0  0  0  0  0  0  0  0  0  0
    5.2788   -4.8172   -3.3015 H   0  0  0  0  0  0  0  0  0  0  0  0
    6.4759   -1.1624    1.4131 H   0  0  0  0  0  0  0  0  0  0  0  0
    5.3906    0.4793    0.1026 H   0  0  0  0  0  0  0  0  0  0  0  0
    4.2225   -2.4705   -0.0393 H   0  0  0  0  0  0  0  0  0  0  0  0
    3.9001   -1.0080    2.8263 H   0  0  0  0  0  0  0  0  0  0  0  0
    2.6502   -2.1509    3.2672 H   0  0  0  0  0  0  0  0  0  0  0  0
    2.6982   -1.4724    1.6579 H   0  0  0  0  0  0  0  0  0  0  0  0
    6.2149   -2.9298    2.9129 H   0  0  0  0  0  0  0  0  0  0  0  0
    4.8474   -2.0092    4.3593 H   0  0  0  0  0  0  0  0  0  0  0  0
    5.9456   -5.2266    4.2167 H   0  0  0  0  0  0  0  0  0  0  0  0
    5.4668   -7.3863    3.7550 H   0  0  0  0  0  0  0  0  0  0  0  0
  1  2  1  0
  1 36  1  0
  1 37  1  0
  1 38  1  0
  2 35  1  0
  2  3  1  0
  2  4  1  0
  3 39  1  0
  3 40  1  0
  3 41  1  0
  4  5  1  0
  4  6  1  0
  4 42  1  6
  5 43  1  0
  6  7  1  0
  6 44  1  0
  6 45  1  0
  7  8  1  0
  7  9  1  0
  7 46  1  6
  8 47  1  0
  9 35  1  0
  9 10  1  1
  9 11  1  0
 10 48  1  0
 10 49  1  0
 10 50  1  0
 11 12  1  0
 11 51  1  0
 11 52  1  0
 12 13  1  0
 12 53  1  0
 12 54  1  0
 13 29  1  0
 13 14  1  6
 13 15  1  0
 14 55  1  0
 14 56  1  0
 14 57  1  0
 15 34  1  0
 15 16  1  0
 15 58  1  6
 16 17  1  0
 16 59  1  0
 16 60  1  0
 17 28  1  0
 17 18  1  1
 17 19  1  0
 18 61  1  0
 18 62  1  0
 18 63  1  0
 19 20  1  0
 19 25  1  0
 19 64  1  6
 20 24  2  0
 20 21  1  0
 21 22  2  0
 21 65  1  0
 22 23  1  0
 22 66  1  0
 23 24  1  0
 24 67  1  0
 25 26  1  0
 26 27  1  0
 26 28  1  0
 26 68  1  1
 27 69  1  0
 28 29  1  0
 28 70  1  6
 29 30  1  1
 29 31  1  0
 30 71  1  0
 30 72  1  0
 30 73  1  0
 31 32  1  0
 31 33  1  0
 31 74  1  6
 32 75  1  0
 33 34  2  0
 33 76  1  0
 34 35  1  0
 35 77  1  1
M  END
>  <i_m_ct_stereo_status>  (102) 
1

>  <s_m_source_file>  (102) 
/var/tmp/pbs.5076255.sched01/tmphrtf3o8j/0_qqz9eae.sdf

>  <i_m_source_file_index>  (102) 
43

>  <i_lp_mmshare_version>  (102) 
48012

>  <i_f3d_flags>  (102) 
0

>  <s_epik_input>  (102) 
W09IXVtDQEBIXTFbQ0gyXVtDQEhdKFtPSF0pQyhbQ0gzXSkoW0NIM10pW0NASF0oW0NAXTEyW0NIM10pQzNbQ0BIXTRbQ0BAXShbQ0gzXSkoW0NIMl1bQ0gyXTIpW0NAQF0oW0NIM10pKFtDQEBIXShbT0hdKVtDSF09MylbQ0BASF01W0NAXShbQ0gyXTQpKFtDSDNdKVtDQEhdKE9bQ0BIXTVbT0hdKWM2W2NIXVtjSF1vW2NIXTY=

>  <s_epik_cmdline>  (102) 
J2VwaWtfcHl0aG9uJywgJy1waHQnLCAnMi4wJywgJy1waCcsICc3LjAnLCAnLXRuJywgJzgnLCAnLW1hJywgJzIwMCcsICctaW1hZScsICc8aW5maWxlLm1hZT4nLCAnLW9tYWUnLCAnPG91dGZpbGUubWFlPic=

>  <r_lp_tautomer_probability>  (102) 
1

>  <r_epik_Ionization_Penalty>  (102) 
2.35987e-06

>  <r_epik_Ionization_Penalty_Charging>  (102) 
0

>  <r_epik_Ionization_Penalty_Neutral>  (102) 
2.35987e-06

>  <r_epik_State_Penalty>  (102) 
-0

>  <r_epik_Charging_Adjusted_Penalty>  (102) 
0

>  <i_epik_Tot_Q>  (102) 
0

>  <i_epik_Tot_abs_Q>  (102) 
0

>  <s_epik_Chemistry_Notes>  (102) 
This compound contains an acetal/aminal-like group ( X-CH(R)-Y where X, Y are N, S, or O) that may be acid/base labile, releasing an aldehyde.

>  <s_lp_Force_Field>  (102) 
OPLS3e

>  <r_lp_Energy>  (102) 
117.616

>  <b_lp_Chiralities_Consistent>  (102) 
1

>  <s_lp_Variant>  (102) 
34:0-1

>  <s_i_glide_gridfile>  (102) 
pfpi4k_grid

>  <i_i_glide_lignum>  (102) 
43

>  <i_i_glide_rotatable_bonds>  (102) 
5

>  <r_i_docking_score>  (102) 
-3.72427

>  <r_i_glide_ligand_efficiency>  (102) 
-0.106408

>  <r_i_glide_ligand_efficiency_sa>  (102) 
-0.348067

>  <r_i_glide_ligand_efficiency_ln>  (102) 
-0.817561

>  <r_i_glide_gscore>  (102) 
-3.72427

>  <r_i_glide_lipo>  (102) 
-0.76923

>  <r_i_glide_hbond>  (102) 
-0.236447

>  <r_i_glide_metal>  (102) 
-0

>  <r_i_glide_rewards>  (102) 
-0.241125

>  <r_i_glide_evdw>  (102) 
-32.4158

>  <r_i_glide_ecoul>  (102) 
-6.28333

>  <r_i_glide_erotb>  (102) 
0.0858196

>  <r_i_glide_esite>  (102) 
0

>  <r_i_glide_emodel>  (102) 
-45.3566

>  <r_i_glide_energy>  (102) 
-38.6992

>  <r_i_glide_einternal>  (102) 
2.03706

>  <r_i_glide_intrahb_reward>  (102) 
-0

>  <i_i_glide_confnum>  (102) 
3

>  <i_i_glide_posenum>  (102) 
33

>  <r_i_glide_eff_state_penalty>  (102) 
0

>  <ligand_id>  (102) 
34

>  <original_smiles>  (102) 
CC1(C)C(O)CC(O)C2(C)CCC3(C)C4CC5(C)C(c6ccoc6)OC(O)C5C3(C)C(O)C=C4C12

>  <smiles>  (102) 
[H]OC1([H])OC([H])(c2c([H])oc([H])c2[H])C2(C([H])([H])[H])C([H])([H])C3([H])C4=C([H])C([H])(O[H])C(C([H])([H])[H])(C12[H])C3(C([H])([H])[H])C([H])([H])C([H])([H])C1(C([H])([H])[H])C([H])(O[H])C([H])([H])C([H])(O[H])C(C([H])([H])[H])(C([H])([H])[H])C41[H]

$$$$
34:0:1
     RDKit          3D

 77 82  0  0  1  0  0  0  0  0999 V2000
    6.6788   -8.4627    1.7729 C   0  0  0  0  0  0  0  0  0  0  0  0
    5.1498   -8.4702    1.9993 C   0  0  0  0  0  0  0  0  0  0  0  0
    4.5085   -8.4866    0.5989 C   0  0  0  0  0  0  0  0  0  0  0  0
    4.7308   -9.8042    2.6612 C   0  0  1  0  0  0  0  0  0  0  0  0
    5.4821  -10.0641    3.8295 O   0  0  0  0  0  0  0  0  0  0  0  0
    3.2232   -9.8306    2.9592 C   0  0  0  0  0  0  0  0  0  0  0  0
    2.7688   -8.7264    3.9244 C   0  0  1  0  0  0  0  0  0  0  0  0
    2.9779   -9.2380    5.2340 O   0  0  0  0  0  0  0  0  0  0  0  0
    3.3617   -7.2700    3.6902 C   0  0  2  0  0  0  0  0  0  0  0  0
    3.5681   -6.6485    5.1122 C   0  0  0  0  0  0  0  0  0  0  0  0
    2.2582   -6.3960    2.9704 C   0  0  0  0  0  0  0  0  0  0  0  0
    2.4673   -4.8391    2.8165 C   0  0  0  0  0  0  0  0  0  0  0  0
    3.3395   -4.3005    1.6106 C   0  0  2  0  0  0  0  0  0  0  0  0
    2.3606   -4.0501    0.4474 C   0  0  0  0  0  0  0  0  0  0  0  0
    4.2970   -5.3910    1.1460 C   0  0  1  0  0  0  0  0  0  0  0  0
    5.1577   -4.9913   -0.0997 C   0  0  0  0  0  0  0  0  0  0  0  0
    5.9481   -3.6662    0.0288 C   0  0  1  0  0  0  0  0  0  0  0  0
    7.3238   -3.9272    0.7277 C   0  0  0  0  0  0  0  0  0  0  0  0
    6.3056   -2.8215   -1.2250 C   0  0  1  0  0  0  0  0  0  0  0  0
    5.3133   -2.7937   -2.3814 C   0  0  0  0  0  0  0  0  0  0  0  0
    4.5558   -1.6732   -2.8259 C   0  0  0  0  0  0  0  0  0  0  0  0
    3.8113   -2.0908   -3.8890 C   0  0  0  0  0  0  0  0  0  0  0  0
    4.0588   -3.3957   -4.1621 O   0  0  0  0  0  0  0  0  0  0  0  0
    4.9656   -3.8035   -3.2371 C   0  0  0  0  0  0  0  0  0  0  0  0
    6.5144   -1.5127   -0.6566 O   0  0  0  0  0  0  0  0  0  0  0  0
    5.7725   -1.3439    0.5297 C   0  0  1  0  0  0  0  0  0  0  0  0
    4.8953   -0.2581    0.4250 O   0  0  0  0  0  0  0  0  0  0  0  0
    4.9902   -2.6498    0.6539 C   0  0  2  0  0  0  0  0  0  0  0  0
    4.2361   -3.0388    1.9791 C   0  0  1  0  0  0  0  0  0  0  0  0
    3.3198   -1.8575    2.4316 C   0  0  0  0  0  0  0  0  0  0  0  0
    5.2851   -3.4230    3.0826 C   0  0  1  0  0  0  0  0  0  0  0  0
    4.9002   -2.9444    4.3542 O   0  0  0  0  0  0  0  0  0  0  0  0
    5.5487   -4.9201    3.2296 C   0  0  0  0  0  0  0  0  0  0  0  0
    5.0575   -5.8497    2.3821 C   0  0  0  0  0  0  0  0  0  0  0  0
    4.7614   -7.2568    2.9282 C   0  0  2  0  0  0  0  0  0  0  0  0
    6.9995   -9.3313    1.1934 H   0  0  0  0  0  0  0  0  0  0  0  0
    7.2250   -8.4781    2.7179 H   0  0  0  0  0  0  0  0  0  0  0  0
    7.0020   -7.5680    1.2369 H   0  0  0  0  0  0  0  0  0  0  0  0
    3.4390   -8.3001    0.6421 H   0  0  0  0  0  0  0  0  0  0  0  0
    4.6244   -9.4576    0.1143 H   0  0  0  0  0  0  0  0  0  0  0  0
    4.9530   -7.7534   -0.0674 H   0  0  0  0  0  0  0  0  0  0  0  0
    4.9558  -10.6300    1.9824 H   0  0  0  0  0  0  0  0  0  0  0  0
    5.1644  -10.8724    4.2053 H   0  0  0  0  0  0  0  0  0  0  0  0
    2.6640   -9.7243    2.0348 H   0  0  0  0  0  0  0  0  0  0  0  0
    2.9261  -10.8125    3.3319 H   0  0  0  0  0  0  0  0  0  0  0  0
    1.6810   -8.6747    3.8482 H   0  0  0  0  0  0  0  0  0  0  0  0
    2.5088  -10.0546    5.3243 H   0  0  0  0  0  0  0  0  0  0  0  0
    3.9121   -5.6210    5.1085 H   0  0  0  0  0  0  0  0  0  0  0  0
    4.3236   -7.1971    5.6763 H   0  0  0  0  0  0  0  0  0  0  0  0
    2.6517   -6.6657    5.7031 H   0  0  0  0  0  0  0  0  0  0  0  0
    1.9951   -6.8419    2.0111 H   0  0  0  0  0  0  0  0  0  0  0  0
    1.3524   -6.4949    3.5708 H   0  0  0  0  0  0  0  0  0  0  0  0
    1.4740   -4.3896    2.7476 H   0  0  0  0  0  0  0  0  0  0  0  0
    2.8279   -4.4306    3.7570 H   0  0  0  0  0  0  0  0  0  0  0  0
    2.7636   -3.8596   -0.5435 H   0  0  0  0  0  0  0  0  0  0  0  0
    1.8240   -3.1346    0.6815 H   0  0  0  0  0  0  0  0  0  0  0  0
    1.6718   -4.8914    0.3273 H   0  0  0  0  0  0  0  0  0  0  0  0
    3.6599   -6.1872    0.7857 H   0  0  0  0  0  0  0  0  0  0  0  0
    5.8587   -5.7875   -0.3081 H   0  0  0  0  0  0  0  0  0  0  0  0
    4.4948   -4.9623   -0.9643 H   0  0  0  0  0  0  0  0  0  0  0  0
    7.7829   -3.0144    1.0968 H   0  0  0  0  0  0  0  0  0  0  0  0
    8.0426   -4.3516    0.0296 H   0  0  0  0  0  0  0  0  0  0  0  0
    7.3111   -4.6288    1.5493 H   0  0  0  0  0  0  0  0  0  0  0  0
    7.2446   -3.1572   -1.6644 H   0  0  0  0  0  0  0  0  0  0  0  0
    4.5456   -0.6744   -2.4144 H   0  0  0  0  0  0  0  0  0  0  0  0
    3.0917   -1.6140   -4.5367 H   0  0  0  0  0  0  0  0  0  0  0  0
    5.2223   -4.8458   -3.3171 H   0  0  0  0  0  0  0  0  0  0  0  0
    6.4575   -1.1564    1.3614 H   0  0  0  0  0  0  0  0  0  0  0  0
    5.3796    0.4866    0.0883 H   0  0  0  0  0  0  0  0  0  0  0  0
    4.2029   -2.4789   -0.0763 H   0  0  0  0  0  0  0  0  0  0  0  0
    3.9015   -1.0093    2.7936 H   0  0  0  0  0  0  0  0  0  0  0  0
    2.6541   -2.1465    3.2437 H   0  0  0  0  0  0  0  0  0  0  0  0
    2.6901   -1.4724    1.6298 H   0  0  0  0  0  0  0  0  0  0  0  0
    6.2195   -2.9158    2.8698 H   0  0  0  0  0  0  0  0  0  0  0  0
    5.5945   -3.1271    4.9650 H   0  0  0  0  0  0  0  0  0  0  0  0
    5.9646   -5.2251    4.1744 H   0  0  0  0  0  0  0  0  0  0  0  0
    5.4830   -7.3722    3.7325 H   0  0  0  0  0  0  0  0  0  0  0  0
  1  2  1  0
  1 36  1  0
  1 37  1  0
  1 38  1  0
  2 35  1  0
  2  3  1  0
  2  4  1  0
  3 39  1  0
  3 40  1  0
  3 41  1  0
  4  5  1  0
  4  6  1  0
  4 42  1  6
  5 43  1  0
  6  7  1  0
  6 44  1  0
  6 45  1  0
  7  8  1  0
  7  9  1  0
  7 46  1  6
  8 47  1  0
  9 35  1  0
  9 10  1  1
  9 11  1  0
 10 48  1  0
 10 49  1  0
 10 50  1  0
 11 12  1  0
 11 51  1  0
 11 52  1  0
 12 13  1  0
 12 53  1  0
 12 54  1  0
 13 29  1  0
 13 14  1  6
 13 15  1  0
 14 55  1  0
 14 56  1  0
 14 57  1  0
 15 34  1  0
 15 16  1  0
 15 58  1  6
 16 17  1  0
 16 59  1  0
 16 60  1  0
 17 28  1  0
 17 18  1  1
 17 19  1  0
 18 61  1  0
 18 62  1  0
 18 63  1  0
 19 20  1  0
 19 25  1  0
 19 64  1  6
 20 24  2  0
 20 21  1  0
 21 22  2  0
 21 65  1  0
 22 23  1  0
 22 66  1  0
 23 24  1  0
 24 67  1  0
 25 26  1  0
 26 27  1  0
 26 28  1  0
 26 68  1  1
 27 69  1  0
 28 29  1  0
 28 70  1  6
 29 30  1  1
 29 31  1  0
 30 71  1  0
 30 72  1  0
 30 73  1  0
 31 32  1  0
 31 33  1  0
 31 74  1  6
 32 75  1  0
 33 34  2  0
 33 76  1  0
 34 35  1  0
 35 77  1  1
M  END
>  <i_m_ct_stereo_status>  (103) 
1

>  <s_m_source_file>  (103) 
/var/tmp/pbs.5076255.sched01/tmphrtf3o8j/0_qqz9eae.sdf

>  <i_m_source_file_index>  (103) 
43

>  <i_lp_mmshare_version>  (103) 
48012

>  <i_f3d_flags>  (103) 
0

>  <s_epik_input>  (103) 
W09IXVtDQEBIXTFbQ0gyXVtDQEhdKFtPSF0pQyhbQ0gzXSkoW0NIM10pW0NASF0oW0NAXTEyW0NIM10pQzNbQ0BIXTRbQ0BAXShbQ0gzXSkoW0NIMl1bQ0gyXTIpW0NAQF0oW0NIM10pKFtDQEBIXShbT0hdKVtDSF09MylbQ0BASF01W0NAXShbQ0gyXTQpKFtDSDNdKVtDQEhdKE9bQ0BIXTVbT0hdKWM2W2NIXVtjSF1vW2NIXTY=

>  <s_epik_cmdline>  (103) 
J2VwaWtfcHl0aG9uJywgJy1waHQnLCAnMi4wJywgJy1waCcsICc3LjAnLCAnLXRuJywgJzgnLCAnLW1hJywgJzIwMCcsICctaW1hZScsICc8aW5maWxlLm1hZT4nLCAnLW9tYWUnLCAnPG91dGZpbGUubWFlPic=

>  <r_lp_tautomer_probability>  (103) 
1

>  <r_epik_Ionization_Penalty>  (103) 
2.35987e-06

>  <r_epik_Ionization_Penalty_Charging>  (103) 
0

>  <r_epik_Ionization_Penalty_Neutral>  (103) 
2.35987e-06

>  <r_epik_State_Penalty>  (103) 
-0

>  <r_epik_Charging_Adjusted_Penalty>  (103) 
0

>  <i_epik_Tot_Q>  (103) 
0

>  <i_epik_Tot_abs_Q>  (103) 
0

>  <s_epik_Chemistry_Notes>  (103) 
This compound contains an acetal/aminal-like group ( X-CH(R)-Y where X, Y are N, S, or O) that may be acid/base labile, releasing an aldehyde.

>  <s_lp_Force_Field>  (103) 
OPLS3e

>  <r_lp_Energy>  (103) 
117.616

>  <b_lp_Chiralities_Consistent>  (103) 
1

>  <s_lp_Variant>  (103) 
34:0-1

>  <s_i_glide_gridfile>  (103) 
pfpi4k_grid

>  <i_i_glide_lignum>  (103) 
43

>  <i_i_glide_rotatable_bonds>  (103) 
5

>  <r_i_docking_score>  (103) 
-3.66438

>  <r_i_glide_ligand_efficiency>  (103) 
-0.104697

>  <r_i_glide_ligand_efficiency_sa>  (103) 
-0.342469

>  <r_i_glide_ligand_efficiency_ln>  (103) 
-0.804412

>  <r_i_glide_gscore>  (103) 
-3.66438

>  <r_i_glide_lipo>  (103) 
-0.746245

>  <r_i_glide_hbond>  (103) 
-0.241389

>  <r_i_glide_metal>  (103) 
-0

>  <r_i_glide_rewards>  (103) 
-0.233821

>  <r_i_glide_evdw>  (103) 
-32.3118

>  <r_i_glide_ecoul>  (103) 
-6.0877

>  <r_i_glide_erotb>  (103) 
0.0858196

>  <r_i_glide_esite>  (103) 
0

>  <r_i_glide_emodel>  (103) 
-45.0085

>  <r_i_glide_energy>  (103) 
-38.3995

>  <r_i_glide_einternal>  (103) 
1.83837

>  <r_i_glide_intrahb_reward>  (103) 
-0

>  <i_i_glide_confnum>  (103) 
3

>  <i_i_glide_posenum>  (103) 
7

>  <r_i_glide_eff_state_penalty>  (103) 
0

>  <ligand_id>  (103) 
34

>  <original_smiles>  (103) 
CC1(C)C(O)CC(O)C2(C)CCC3(C)C4CC5(C)C(c6ccoc6)OC(O)C5C3(C)C(O)C=C4C12

>  <smiles>  (103) 
[H]OC1([H])OC([H])(c2c([H])oc([H])c2[H])C2(C([H])([H])[H])C([H])([H])C3([H])C4=C([H])C([H])(O[H])C(C([H])([H])[H])(C12[H])C3(C([H])([H])[H])C([H])([H])C([H])([H])C1(C([H])([H])[H])C([H])(O[H])C([H])([H])C([H])(O[H])C(C([H])([H])[H])(C([H])([H])[H])C41[H]

$$$$
34:0:2
     RDKit          3D

 77 82  0  0  1  0  0  0  0  0999 V2000
    6.6522   -8.4861    1.8413 C   0  0  0  0  0  0  0  0  0  0  0  0
    5.1231   -8.4898    2.0604 C   0  0  0  0  0  0  0  0  0  0  0  0
    4.4876   -8.4890    0.6613 C   0  0  0  0  0  0  0  0  0  0  0  0
    4.6922   -9.8271    2.7122 C   0  0  1  0  0  0  0  0  0  0  0  0
    5.4374  -10.0988    3.8806 O   0  0  0  0  0  0  0  0  0  0  0  0
    3.1814   -9.8481    3.0066 C   0  0  0  0  0  0  0  0  0  0  0  0
    2.7300   -8.7475    3.9788 C   0  0  1  0  0  0  0  0  0  0  0  0
    2.9351   -9.2693    5.2838 O   0  0  0  0  0  0  0  0  0  0  0  0
    3.3312   -7.2928    3.7566 C   0  0  2  0  0  0  0  0  0  0  0  0
    3.5340   -6.6875    5.1851 C   0  0  0  0  0  0  0  0  0  0  0  0
    2.2364   -6.4082    3.0416 C   0  0  0  0  0  0  0  0  0  0  0  0
    2.4548   -4.8526    2.9080 C   0  0  0  0  0  0  0  0  0  0  0  0
    3.3336   -4.3131    1.7128 C   0  0  2  0  0  0  0  0  0  0  0  0
    2.3642   -4.0357    0.5497 C   0  0  0  0  0  0  0  0  0  0  0  0
    4.2913   -5.4009    1.2360 C   0  0  1  0  0  0  0  0  0  0  0  0
    5.1542   -4.9959   -0.0048 C   0  0  0  0  0  0  0  0  0  0  0  0
    5.9444   -3.6679    0.1419 C   0  0  1  0  0  0  0  0  0  0  0  0
    7.3185   -3.9538    0.8383 C   0  0  0  0  0  0  0  0  0  0  0  0
    6.3148   -2.8126   -1.1023 C   0  0  1  0  0  0  0  0  0  0  0  0
    5.3320   -2.7684   -2.2587 C   0  0  0  0  0  0  0  0  0  0  0  0
    4.5883   -1.6327   -2.7138 C   0  0  0  0  0  0  0  0  0  0  0  0
    3.8318   -2.0465   -3.7661 C   0  0  0  0  0  0  0  0  0  0  0  0
    4.0594   -3.3575   -4.0378 O   0  0  0  0  0  0  0  0  0  0  0  0
    4.9607   -3.7760   -3.1151 C   0  0  0  0  0  0  0  0  0  0  0  0
    6.5258   -1.5119   -0.5197 O   0  0  0  0  0  0  0  0  0  0  0  0
    5.7786   -1.3448    0.6663 C   0  0  1  0  0  0  0  0  0  0  0  0
    4.9103   -0.2446    0.5794 O   0  0  0  0  0  0  0  0  0  0  0  0
    4.9899   -2.6552    0.7753 C   0  0  2  0  0  0  0  0  0  0  0  0
    4.2320   -3.0519    2.0891 C   0  0  1  0  0  0  0  0  0  0  0  0
    3.3235   -1.8699    2.5508 C   0  0  0  0  0  0  0  0  0  0  0  0
    5.2720   -3.4458    3.1978 C   0  0  1  0  0  0  0  0  0  0  0  0
    4.9185   -2.9550    4.4721 O   0  0  0  0  0  0  0  0  0  0  0  0
    5.5303   -4.9490    3.3372 C   0  0  0  0  0  0  0  0  0  0  0  0
    5.0439   -5.8701    2.4759 C   0  0  0  0  0  0  0  0  0  0  0  0
    4.7375   -7.2818    3.0039 C   0  0  2  0  0  0  0  0  0  0  0  0
    6.9684   -9.3518    1.2569 H   0  0  0  0  0  0  0  0  0  0  0  0
    7.1932   -8.5124    2.7879 H   0  0  0  0  0  0  0  0  0  0  0  0
    6.9741   -7.5893    1.3099 H   0  0  0  0  0  0  0  0  0  0  0  0
    3.4177   -8.2980    0.7070 H   0  0  0  0  0  0  0  0  0  0  0  0
    4.6149   -9.4565    0.1725 H   0  0  0  0  0  0  0  0  0  0  0  0
    4.9454   -7.7527    0.0065 H   0  0  0  0  0  0  0  0  0  0  0  0
    4.9094  -10.6483    2.0259 H   0  0  0  0  0  0  0  0  0  0  0  0
    5.1104  -10.9073    4.2514 H   0  0  0  0  0  0  0  0  0  0  0  0
    2.6276   -9.7311    2.0786 H   0  0  0  0  0  0  0  0  0  0  0  0
    2.8775  -10.8344    3.3683 H   0  0  0  0  0  0  0  0  0  0  0  0
    1.6423   -8.6896    3.8979 H   0  0  0  0  0  0  0  0  0  0  0  0
    2.4607  -10.0842    5.3702 H   0  0  0  0  0  0  0  0  0  0  0  0
    3.8880   -5.6633    5.1935 H   0  0  0  0  0  0  0  0  0  0  0  0
    4.2830   -7.2484    5.7470 H   0  0  0  0  0  0  0  0  0  0  0  0
    2.6131   -6.7064    5.7725 H   0  0  0  0  0  0  0  0  0  0  0  0
    1.9733   -6.8451    2.0767 H   0  0  0  0  0  0  0  0  0  0  0  0
    1.3295   -6.5063    3.6405 H   0  0  0  0  0  0  0  0  0  0  0  0
    1.4677   -4.3963    2.8313 H   0  0  0  0  0  0  0  0  0  0  0  0
    2.8095   -4.4556    3.8563 H   0  0  0  0  0  0  0  0  0  0  0  0
    2.7800   -3.8521   -0.4376 H   0  0  0  0  0  0  0  0  0  0  0  0
    1.8260   -3.1227    0.7934 H   0  0  0  0  0  0  0  0  0  0  0  0
    1.6798   -4.8752    0.4266 H   0  0  0  0  0  0  0  0  0  0  0  0
    3.6490   -6.1912    0.8748 H   0  0  0  0  0  0  0  0  0  0  0  0
    5.8578   -5.7928   -0.2193 H   0  0  0  0  0  0  0  0  0  0  0  0
    4.4892   -4.9658   -0.8676 H   0  0  0  0  0  0  0  0  0  0  0  0
    7.7811   -3.0461    1.2189 H   0  0  0  0  0  0  0  0  0  0  0  0
    8.0381   -4.3739    0.1353 H   0  0  0  0  0  0  0  0  0  0  0  0
    7.2994   -4.6621    1.6538 H   0  0  0  0  0  0  0  0  0  0  0  0
    7.2530   -3.1519   -1.5477 H   0  0  0  0  0  0  0  0  0  0  0  0
    4.5991   -0.6284   -2.3131 H   0  0  0  0  0  0  0  0  0  0  0  0
    3.1190   -1.5645   -4.4162 H   0  0  0  0  0  0  0  0  0  0  0  0
    5.2055   -4.8216   -3.1919 H   0  0  0  0  0  0  0  0  0  0  0  0
    6.4562   -1.1833    1.4987 H   0  0  0  0  0  0  0  0  0  0  0  0
    4.2410   -0.4408   -0.0478 H   0  0  0  0  0  0  0  0  0  0  0  0
    4.2131   -2.4894    0.0348 H   0  0  0  0  0  0  0  0  0  0  0  0
    3.9102   -1.0291    2.9180 H   0  0  0  0  0  0  0  0  0  0  0  0
    2.6547   -2.1619    3.3540 H   0  0  0  0  0  0  0  0  0  0  0  0
    2.7003   -1.4751    1.7499 H   0  0  0  0  0  0  0  0  0  0  0  0
    6.2150   -2.9579    2.9714 H   0  0  0  0  0  0  0  0  0  0  0  0
    4.0724   -3.3134    4.7091 H   0  0  0  0  0  0  0  0  0  0  0  0
    5.9478   -5.2547    4.2843 H   0  0  0  0  0  0  0  0  0  0  0  0
    5.4532   -7.4063    3.8144 H   0  0  0  0  0  0  0  0  0  0  0  0
  1  2  1  0
  1 36  1  0
  1 37  1  0
  1 38  1  0
  2 35  1  0
  2  3  1  0
  2  4  1  0
  3 39  1  0
  3 40  1  0
  3 41  1  0
  4  5  1  0
  4  6  1  0
  4 42  1  6
  5 43  1  0
  6  7  1  0
  6 44  1  0
  6 45  1  0
  7  8  1  0
  7  9  1  0
  7 46  1  6
  8 47  1  0
  9 35  1  0
  9 10  1  1
  9 11  1  0
 10 48  1  0
 10 49  1  0
 10 50  1  0
 11 12  1  0
 11 51  1  0
 11 52  1  0
 12 13  1  0
 12 53  1  0
 12 54  1  0
 13 29  1  0
 13 14  1  6
 13 15  1  0
 14 55  1  0
 14 56  1  0
 14 57  1  0
 15 34  1  0
 15 16  1  0
 15 58  1  6
 16 17  1  0
 16 59  1  0
 16 60  1  0
 17 28  1  0
 17 18  1  1
 17 19  1  0
 18 61  1  0
 18 62  1  0
 18 63  1  0
 19 20  1  0
 19 25  1  0
 19 64  1  6
 20 24  2  0
 20 21  1  0
 21 22  2  0
 21 65  1  0
 22 23  1  0
 22 66  1  0
 23 24  1  0
 24 67  1  0
 25 26  1  0
 26 27  1  0
 26 28  1  0
 26 68  1  1
 27 69  1  0
 28 29  1  0
 28 70  1  6
 29 30  1  1
 29 31  1  0
 30 71  1  0
 30 72  1  0
 30 73  1  0
 31 32  1  0
 31 33  1  0
 31 74  1  6
 32 75  1  0
 33 34  2  0
 33 76  1  0
 34 35  1  0
 35 77  1  1
M  END
>  <i_m_ct_stereo_status>  (104) 
1

>  <s_m_source_file>  (104) 
/var/tmp/pbs.5076255.sched01/tmphrtf3o8j/0_qqz9eae.sdf

>  <i_m_source_file_index>  (104) 
43

>  <i_lp_mmshare_version>  (104) 
48012

>  <i_f3d_flags>  (104) 
0

>  <s_epik_input>  (104) 
W09IXVtDQEBIXTFbQ0gyXVtDQEhdKFtPSF0pQyhbQ0gzXSkoW0NIM10pW0NASF0oW0NAXTEyW0NIM10pQzNbQ0BIXTRbQ0BAXShbQ0gzXSkoW0NIMl1bQ0gyXTIpW0NAQF0oW0NIM10pKFtDQEBIXShbT0hdKVtDSF09MylbQ0BASF01W0NAXShbQ0gyXTQpKFtDSDNdKVtDQEhdKE9bQ0BIXTVbT0hdKWM2W2NIXVtjSF1vW2NIXTY=

>  <s_epik_cmdline>  (104) 
J2VwaWtfcHl0aG9uJywgJy1waHQnLCAnMi4wJywgJy1waCcsICc3LjAnLCAnLXRuJywgJzgnLCAnLW1hJywgJzIwMCcsICctaW1hZScsICc8aW5maWxlLm1hZT4nLCAnLW9tYWUnLCAnPG91dGZpbGUubWFlPic=

>  <r_lp_tautomer_probability>  (104) 
1

>  <r_epik_Ionization_Penalty>  (104) 
2.35987e-06

>  <r_epik_Ionization_Penalty_Charging>  (104) 
0

>  <r_epik_Ionization_Penalty_Neutral>  (104) 
2.35987e-06

>  <r_epik_State_Penalty>  (104) 
-0

>  <r_epik_Charging_Adjusted_Penalty>  (104) 
0

>  <i_epik_Tot_Q>  (104) 
0

>  <i_epik_Tot_abs_Q>  (104) 
0

>  <s_epik_Chemistry_Notes>  (104) 
This compound contains an acetal/aminal-like group ( X-CH(R)-Y where X, Y are N, S, or O) that may be acid/base labile, releasing an aldehyde.

>  <s_lp_Force_Field>  (104) 
OPLS3e

>  <r_lp_Energy>  (104) 
117.616

>  <b_lp_Chiralities_Consistent>  (104) 
1

>  <s_lp_Variant>  (104) 
34:0-1

>  <s_i_glide_gridfile>  (104) 
pfpi4k_grid

>  <i_i_glide_lignum>  (104) 
43

>  <i_i_glide_rotatable_bonds>  (104) 
5

>  <r_i_docking_score>  (104) 
-3.43286

>  <r_i_glide_ligand_efficiency>  (104) 
-0.0980818

>  <r_i_glide_ligand_efficiency_sa>  (104) 
-0.320832

>  <r_i_glide_ligand_efficiency_ln>  (104) 
-0.75359

>  <r_i_glide_gscore>  (104) 
-3.43286

>  <r_i_glide_lipo>  (104) 
-0.773563

>  <r_i_glide_hbond>  (104) 
-0.195581

>  <r_i_glide_metal>  (104) 
-0

>  <r_i_glide_rewards>  (104) 
-0.249621

>  <r_i_glide_evdw>  (104) 
-32.8603

>  <r_i_glide_ecoul>  (104) 
-4.37936

>  <r_i_glide_erotb>  (104) 
0.0858196

>  <r_i_glide_esite>  (104) 
0

>  <r_i_glide_emodel>  (104) 
-43.842

>  <r_i_glide_energy>  (104) 
-37.2396

>  <r_i_glide_einternal>  (104) 
0.910249

>  <r_i_glide_intrahb_reward>  (104) 
-0

>  <i_i_glide_confnum>  (104) 
2

>  <i_i_glide_posenum>  (104) 
11

>  <r_i_glide_eff_state_penalty>  (104) 
0

>  <ligand_id>  (104) 
34

>  <original_smiles>  (104) 
CC1(C)C(O)CC(O)C2(C)CCC3(C)C4CC5(C)C(c6ccoc6)OC(O)C5C3(C)C(O)C=C4C12

>  <smiles>  (104) 
[H]OC1([H])OC([H])(c2c([H])oc([H])c2[H])C2(C([H])([H])[H])C([H])([H])C3([H])C4=C([H])C([H])(O[H])C(C([H])([H])[H])(C12[H])C3(C([H])([H])[H])C([H])([H])C([H])([H])C1(C([H])([H])[H])C([H])(O[H])C([H])([H])C([H])(O[H])C(C([H])([H])[H])(C([H])([H])[H])C41[H]

$$$$
35:0:0
     RDKit          3D

 55 59  0  0  1  0  0  0  0  0999 V2000
    3.0358   -0.0514   -5.3444 C   0  0  0  0  0  0  0  0  0  0  0  0
    3.3788   -0.7413   -4.0561 C   0  0  0  0  0  0  0  0  0  0  0  0
    3.9495   -0.1740   -2.9871 C   0  0  0  0  0  0  0  0  0  0  0  0
    3.7634   -1.0690   -1.7949 C   0  0  1  0  0  0  0  0  0  0  0  0
    3.8497   -2.4050   -2.5592 C   0  0  2  0  0  0  0  0  0  0  0  0
    2.9687   -2.1956   -3.7976 C   0  0  0  0  0  0  0  0  0  0  0  0
    3.8375   -3.5721   -1.5233 C   0  0  1  0  0  0  0  0  0  0  0  0
    5.0150   -4.3031   -1.6783 O   0  0  0  0  0  0  0  0  0  0  0  0
    3.8514   -2.7446   -0.2070 C   0  0  2  0  0  0  0  0  0  0  0  0
    2.4728   -2.7058   -0.0956 O   0  0  0  0  0  0  0  0  0  0  0  0
    4.6613   -1.4328   -0.5944 C   0  0  1  0  0  0  0  0  0  0  0  0
    5.9482   -1.5122   -1.1916 O   0  0  0  0  0  0  0  0  0  0  0  0
    4.9278   -0.8420    0.8085 C   0  0  1  0  0  0  0  0  0  0  0  0
    3.6820   -0.1585    1.4805 C   0  0  0  0  0  0  0  0  0  0  0  0
    2.6710   -1.0550    2.2696 C   0  0  1  0  0  0  0  0  0  0  0  0
    2.3502   -0.4461    3.6619 C   0  0  0  0  0  0  0  0  0  0  0  0
    1.3805   -0.8789    1.6920 O   0  0  0  0  0  0  0  0  0  0  0  0
    3.0349   -2.6008    2.3068 C   0  0  2  0  0  0  0  0  0  0  0  0
    1.9673   -3.5660    2.7899 C   0  0  0  0  0  0  0  0  0  0  0  0
    3.0630   -3.1710    3.6265 O   0  0  0  0  0  0  0  0  0  0  0  0
    4.1794   -3.0808    1.3236 C   0  0  1  0  0  0  0  0  0  0  0  0
    4.4849   -4.5836    1.5023 C   0  0  0  0  0  0  0  0  0  0  0  0
    5.3691   -2.1145    1.6131 C   0  0  0  0  0  0  0  0  0  0  0  0
    6.7225   -2.7561    1.1763 C   0  0  0  0  0  0  0  0  0  0  0  0
    5.6123   -1.7838    3.0970 C   0  0  0  0  0  0  0  0  0  0  0  0
    3.4830   -0.5969   -6.1778 H   0  0  0  0  0  0  0  0  0  0  0  0
    3.3133    1.0008   -5.3953 H   0  0  0  0  0  0  0  0  0  0  0  0
    1.9505   -0.1149   -5.4534 H   0  0  0  0  0  0  0  0  0  0  0  0
    4.2472    0.8537   -2.9113 H   0  0  0  0  0  0  0  0  0  0  0  0
    2.7638   -0.8334   -1.4832 H   0  0  0  0  0  0  0  0  0  0  0  0
    4.8226   -2.4954   -3.0461 H   0  0  0  0  0  0  0  0  0  0  0  0
    1.9088   -2.2784   -3.5580 H   0  0  0  0  0  0  0  0  0  0  0  0
    3.2172   -2.8533   -4.6267 H   0  0  0  0  0  0  0  0  0  0  0  0
    2.9968   -4.2562   -1.6174 H   0  0  0  0  0  0  0  0  0  0  0  0
    4.7776   -5.1067   -2.1306 H   0  0  0  0  0  0  0  0  0  0  0  0
    2.1002   -2.0012   -0.6966 H   0  0  0  0  0  0  0  0  0  0  0  0
    5.9304   -2.2997   -1.7237 H   0  0  0  0  0  0  0  0  0  0  0  0
    5.7260   -0.0987    0.7723 H   0  0  0  0  0  0  0  0  0  0  0  0
    4.0990    0.5631    2.1904 H   0  0  0  0  0  0  0  0  0  0  0  0
    3.1762    0.4592    0.7490 H   0  0  0  0  0  0  0  0  0  0  0  0
    3.1781   -0.4018    4.3553 H   0  0  0  0  0  0  0  0  0  0  0  0
    1.5507   -0.9801    4.1619 H   0  0  0  0  0  0  0  0  0  0  0  0
    2.0152    0.5812    3.5456 H   0  0  0  0  0  0  0  0  0  0  0  0
    1.3985   -1.0368    0.7718 H   0  0  0  0  0  0  0  0  0  0  0  0
    0.9879   -3.1490    3.0708 H   0  0  0  0  0  0  0  0  0  0  0  0
    1.9586   -4.5996    2.4650 H   0  0  0  0  0  0  0  0  0  0  0  0
    4.7091   -4.8304    2.5423 H   0  0  0  0  0  0  0  0  0  0  0  0
    5.3290   -4.9212    0.8915 H   0  0  0  0  0  0  0  0  0  0  0  0
    3.6380   -5.1912    1.1784 H   0  0  0  0  0  0  0  0  0  0  0  0
    7.0695   -3.4771    1.9155 H   0  0  0  0  0  0  0  0  0  0  0  0
    7.4929   -1.9884    1.0740 H   0  0  0  0  0  0  0  0  0  0  0  0
    6.6877   -3.3139    0.2466 H   0  0  0  0  0  0  0  0  0  0  0  0
    6.4907   -1.1409    3.1489 H   0  0  0  0  0  0  0  0  0  0  0  0
    5.7825   -2.6948    3.6820 H   0  0  0  0  0  0  0  0  0  0  0  0
    4.8563   -1.2274    3.6216 H   0  0  0  0  0  0  0  0  0  0  0  0
  1  2  1  0
  1 26  1  0
  1 27  1  0
  1 28  1  0
  2  6  1  0
  2  3  2  0
  3  4  1  0
  3 29  1  0
  4 11  1  0
  4  5  1  0
  4 30  1  1
  5  6  1  0
  5  7  1  0
  5 31  1  6
  6 32  1  0
  6 33  1  0
  7  8  1  0
  7  9  1  0
  7 34  1  1
  8 35  1  0
  9 21  1  0
  9 10  1  1
  9 11  1  0
 10 36  1  0
 11 12  1  6
 11 13  1  0
 12 37  1  0
 13 23  1  0
 13 14  1  0
 13 38  1  6
 14 15  1  0
 14 39  1  0
 14 40  1  0
 15 16  1  0
 15 17  1  6
 15 18  1  0
 16 41  1  0
 16 42  1  0
 16 43  1  0
 17 44  1  0
 18 20  1  1
 18 19  1  0
 18 21  1  0
 19 20  1  0
 19 45  1  0
 19 46  1  0
 21 22  1  6
 21 23  1  0
 22 47  1  0
 22 48  1  0
 22 49  1  0
 23 24  1  0
 23 25  1  0
 24 50  1  0
 24 51  1  0
 24 52  1  0
 25 53  1  0
 25 54  1  0
 25 55  1  0
M  END
>  <i_m_ct_stereo_status>  (105) 
1

>  <s_m_source_file>  (105) 
/var/tmp/pbs.5076255.sched01/tmphrtf3o8j/0_qqz9eae.sdf

>  <i_m_source_file_index>  (105) 
44

>  <i_lp_mmshare_version>  (105) 
48012

>  <i_f3d_flags>  (105) 
0

>  <s_epik_input>  (105) 
W0NIM11DKD1bQ0hdMSlbQ0gyXVtDQEhdKFtDQEhdMltPSF0pW0NASF0xW0NAXShbT0hdKShbQ0BdMihbT0hdKVtDQF0zKFtDSDNdKVtDQF00NVtDSDJdTzUpW0NASF0oQzMoW0NIM10pW0NIM10pW0NIMl1bQ0BAXTQoW0NIM10pW09IXQ==

>  <s_epik_cmdline>  (105) 
J2VwaWtfcHl0aG9uJywgJy1waHQnLCAnMi4wJywgJy1waCcsICc3LjAnLCAnLXRuJywgJzgnLCAnLW1hJywgJzIwMCcsICctaW1hZScsICc8aW5maWxlLm1hZT4nLCAnLW9tYWUnLCAnPG91dGZpbGUubWFlPic=

>  <r_lp_tautomer_probability>  (105) 
1

>  <r_epik_Ionization_Penalty>  (105) 
3.9522e-07

>  <r_epik_Ionization_Penalty_Charging>  (105) 
0

>  <r_epik_Ionization_Penalty_Neutral>  (105) 
3.9522e-07

>  <r_epik_State_Penalty>  (105) 
-0

>  <r_epik_Charging_Adjusted_Penalty>  (105) 
0

>  <i_epik_Tot_Q>  (105) 
0

>  <i_epik_Tot_abs_Q>  (105) 
0

>  <s_lp_Force_Field>  (105) 
OPLS3e

>  <r_lp_Energy>  (105) 
119.111

>  <b_lp_Chiralities_Consistent>  (105) 
1

>  <s_lp_Variant>  (105) 
35:0-1

>  <s_i_glide_gridfile>  (105) 
pfpi4k_grid

>  <i_i_glide_lignum>  (105) 
44

>  <i_i_glide_rotatable_bonds>  (105) 
4

>  <r_i_docking_score>  (105) 
-4.65347

>  <r_i_glide_ligand_efficiency>  (105) 
-0.186139

>  <r_i_glide_ligand_efficiency_sa>  (105) 
-0.544273

>  <r_i_glide_ligand_efficiency_ln>  (105) 
-1.10301

>  <r_i_glide_gscore>  (105) 
-4.65347

>  <r_i_glide_lipo>  (105) 
-0.976514

>  <r_i_glide_hbond>  (105) 
0

>  <r_i_glide_metal>  (105) 
-0

>  <r_i_glide_rewards>  (105) 
-1.01966

>  <r_i_glide_evdw>  (105) 
-15.6565

>  <r_i_glide_ecoul>  (105) 
-12.4965

>  <r_i_glide_erotb>  (105) 
0

>  <r_i_glide_esite>  (105) 
0

>  <r_i_glide_emodel>  (105) 
-32.1061

>  <r_i_glide_energy>  (105) 
-28.1529

>  <r_i_glide_einternal>  (105) 
2.33503

>  <r_i_glide_intrahb_reward>  (105) 
-0

>  <i_i_glide_confnum>  (105) 
1

>  <i_i_glide_posenum>  (105) 
40

>  <r_i_glide_eff_state_penalty>  (105) 
0

>  <ligand_id>  (105) 
35

>  <original_smiles>  (105) 
CC1=CC2C(C1)C(O)C1(O)C2(O)C2CC(C)(O)C3(CO3)C1(C)C2(C)C

>  <smiles>  (105) 
[H]OC1([H])C2([H])C([H])([H])C(C([H])([H])[H])=C([H])C2([H])C2(O[H])C3([H])C([H])([H])C(O[H])(C([H])([H])[H])C4(OC4([H])[H])C(C([H])([H])[H])(C12O[H])C3(C([H])([H])[H])C([H])([H])[H]

$$$$
35:0:1
     RDKit          3D

 55 59  0  0  1  0  0  0  0  0999 V2000
    2.8251    0.3364   -5.0727 C   0  0  0  0  0  0  0  0  0  0  0  0
    3.2788   -0.6385   -3.9962 C   0  0  0  0  0  0  0  0  0  0  0  0
    2.9013   -0.6562   -2.7205 C   0  0  0  0  0  0  0  0  0  0  0  0
    3.5327   -1.7981   -1.9722 C   0  0  1  0  0  0  0  0  0  0  0  0
    4.8449   -1.8481   -2.8020 C   0  0  2  0  0  0  0  0  0  0  0  0
    4.3318   -1.6444   -4.2458 C   0  0  0  0  0  0  0  0  0  0  0  0
    5.8240   -2.8924   -2.1523 C   0  0  1  0  0  0  0  0  0  0  0  0
    7.0852   -2.3089   -1.8671 O   0  0  0  0  0  0  0  0  0  0  0  0
    5.0060   -3.1607   -0.8472 C   0  0  2  0  0  0  0  0  0  0  0  0
    4.2920   -4.1755   -1.5008 O   0  0  0  0  0  0  0  0  0  0  0  0
    4.1944   -1.8435   -0.5636 C   0  0  1  0  0  0  0  0  0  0  0  0
    4.9342   -0.6296   -0.4245 O   0  0  0  0  0  0  0  0  0  0  0  0
    3.6953   -2.1333    0.8763 C   0  0  1  0  0  0  0  0  0  0  0  0
    2.4957   -3.0842    0.9280 C   0  0  0  0  0  0  0  0  0  0  0  0
    2.7389   -4.6369    0.8722 C   0  0  1  0  0  0  0  0  0  0  0  0
    1.9652   -5.4125    1.9805 C   0  0  0  0  0  0  0  0  0  0  0  0
    2.0171   -5.0427   -0.2855 O   0  0  0  0  0  0  0  0  0  0  0  0
    4.2532   -5.0627    0.8064 C   0  0  2  0  0  0  0  0  0  0  0  0
    4.5710   -6.5142    0.4856 C   0  0  0  0  0  0  0  0  0  0  0  0
    4.6653   -6.0011    1.8263 O   0  0  0  0  0  0  0  0  0  0  0  0
    5.2766   -3.9066    0.5169 C   0  0  1  0  0  0  0  0  0  0  0  0
    6.7307   -4.4256    0.5419 C   0  0  0  0  0  0  0  0  0  0  0  0
    4.9468   -2.7919    1.5515 C   0  0  0  0  0  0  0  0  0  0  0  0
    6.1337   -1.8397    1.7219 C   0  0  0  0  0  0  0  0  0  0  0  0
    4.7050   -3.2856    3.0040 C   0  0  0  0  0  0  0  0  0  0  0  0
    3.6428    0.9075   -5.5428 H   0  0  0  0  0  0  0  0  0  0  0  0
    2.0100    0.9908   -4.7235 H   0  0  0  0  0  0  0  0  0  0  0  0
    2.4031   -0.2234   -5.8971 H   0  0  0  0  0  0  0  0  0  0  0  0
    2.1502   -0.0555   -2.3023 H   0  0  0  0  0  0  0  0  0  0  0  0
    2.7920   -2.5864   -2.1869 H   0  0  0  0  0  0  0  0  0  0  0  0
    5.3863   -0.9134   -2.6615 H   0  0  0  0  0  0  0  0  0  0  0  0
    3.9031   -2.5695   -4.6500 H   0  0  0  0  0  0  0  0  0  0  0  0
    4.9872   -1.0666   -4.9201 H   0  0  0  0  0  0  0  0  0  0  0  0
    5.9909   -3.7637   -2.7942 H   0  0  0  0  0  0  0  0  0  0  0  0
    7.7303   -2.6813   -2.4446 H   0  0  0  0  0  0  0  0  0  0  0  0
    3.8980   -3.7421   -2.2354 H   0  0  0  0  0  0  0  0  0  0  0  0
    4.3508    0.1018   -0.2412 H   0  0  0  0  0  0  0  0  0  0  0  0
    3.4166   -1.2153    1.3988 H   0  0  0  0  0  0  0  0  0  0  0  0
    1.9736   -2.8782    1.8614 H   0  0  0  0  0  0  0  0  0  0  0  0
    1.8167   -2.7775    0.1377 H   0  0  0  0  0  0  0  0  0  0  0  0
    2.2834   -5.1798    2.9943 H   0  0  0  0  0  0  0  0  0  0  0  0
    2.0348   -6.4984    1.8485 H   0  0  0  0  0  0  0  0  0  0  0  0
    0.9133   -5.1714    1.9703 H   0  0  0  0  0  0  0  0  0  0  0  0
    2.6417   -5.1110   -1.0032 H   0  0  0  0  0  0  0  0  0  0  0  0
    3.7611   -7.2035    0.3039 H   0  0  0  0  0  0  0  0  0  0  0  0
    5.5096   -6.7520    0.0183 H   0  0  0  0  0  0  0  0  0  0  0  0
    6.9551   -4.9578    1.4683 H   0  0  0  0  0  0  0  0  0  0  0  0
    7.4714   -3.6374    0.4053 H   0  0  0  0  0  0  0  0  0  0  0  0
    6.8840   -5.1034   -0.2914 H   0  0  0  0  0  0  0  0  0  0  0  0
    6.7901   -2.3988    2.3551 H   0  0  0  0  0  0  0  0  0  0  0  0
    5.8635   -0.9113    2.2226 H   0  0  0  0  0  0  0  0  0  0  0  0
    6.7086   -1.6137    0.8221 H   0  0  0  0  0  0  0  0  0  0  0  0
    4.6505   -2.4470    3.6944 H   0  0  0  0  0  0  0  0  0  0  0  0
    5.5220   -3.9315    3.3444 H   0  0  0  0  0  0  0  0  0  0  0  0
    3.8034   -3.8499    3.1554 H   0  0  0  0  0  0  0  0  0  0  0  0
  1  2  1  0
  1 26  1  0
  1 27  1  0
  1 28  1  0
  2  6  1  0
  2  3  2  0
  3  4  1  0
  3 29  1  0
  4 11  1  0
  4  5  1  0
  4 30  1  6
  5  6  1  0
  5  7  1  0
  5 31  1  1
  6 32  1  0
  6 33  1  0
  7  8  1  0
  7  9  1  0
  7 34  1  6
  8 35  1  0
  9 21  1  0
  9 10  1  6
  9 11  1  0
 10 36  1  0
 11 12  1  1
 11 13  1  0
 12 37  1  0
 13 23  1  0
 13 14  1  0
 13 38  1  1
 14 15  1  0
 14 39  1  0
 14 40  1  0
 15 16  1  0
 15 17  1  6
 15 18  1  0
 16 41  1  0
 16 42  1  0
 16 43  1  0
 17 44  1  0
 18 20  1  1
 18 19  1  0
 18 21  1  0
 19 20  1  0
 19 45  1  0
 19 46  1  0
 21 22  1  6
 21 23  1  0
 22 47  1  0
 22 48  1  0
 22 49  1  0
 23 24  1  0
 23 25  1  0
 24 50  1  0
 24 51  1  0
 24 52  1  0
 25 53  1  0
 25 54  1  0
 25 55  1  0
M  END
>  <i_m_ct_stereo_status>  (106) 
1

>  <s_m_source_file>  (106) 
/var/tmp/pbs.5076255.sched01/tmphrtf3o8j/0_qqz9eae.sdf

>  <i_m_source_file_index>  (106) 
44

>  <i_lp_mmshare_version>  (106) 
48012

>  <i_f3d_flags>  (106) 
0

>  <s_epik_input>  (106) 
W0NIM11DKD1bQ0hdMSlbQ0gyXVtDQEhdKFtDQEhdMltPSF0pW0NASF0xW0NAXShbT0hdKShbQ0BdMihbT0hdKVtDQF0zKFtDSDNdKVtDQF00NVtDSDJdTzUpW0NASF0oQzMoW0NIM10pW0NIM10pW0NIMl1bQ0BAXTQoW0NIM10pW09IXQ==

>  <s_epik_cmdline>  (106) 
J2VwaWtfcHl0aG9uJywgJy1waHQnLCAnMi4wJywgJy1waCcsICc3LjAnLCAnLXRuJywgJzgnLCAnLW1hJywgJzIwMCcsICctaW1hZScsICc8aW5maWxlLm1hZT4nLCAnLW9tYWUnLCAnPG91dGZpbGUubWFlPic=

>  <r_lp_tautomer_probability>  (106) 
1

>  <r_epik_Ionization_Penalty>  (106) 
3.9522e-07

>  <r_epik_Ionization_Penalty_Charging>  (106) 
0

>  <r_epik_Ionization_Penalty_Neutral>  (106) 
3.9522e-07

>  <r_epik_State_Penalty>  (106) 
-0

>  <r_epik_Charging_Adjusted_Penalty>  (106) 
0

>  <i_epik_Tot_Q>  (106) 
0

>  <i_epik_Tot_abs_Q>  (106) 
0

>  <s_lp_Force_Field>  (106) 
OPLS3e

>  <r_lp_Energy>  (106) 
119.111

>  <b_lp_Chiralities_Consistent>  (106) 
1

>  <s_lp_Variant>  (106) 
35:0-1

>  <s_i_glide_gridfile>  (106) 
pfpi4k_grid

>  <i_i_glide_lignum>  (106) 
44

>  <i_i_glide_rotatable_bonds>  (106) 
4

>  <r_i_docking_score>  (106) 
-4.42181

>  <r_i_glide_ligand_efficiency>  (106) 
-0.176872

>  <r_i_glide_ligand_efficiency_sa>  (106) 
-0.517178

>  <r_i_glide_ligand_efficiency_ln>  (106) 
-1.0481

>  <r_i_glide_gscore>  (106) 
-4.42181

>  <r_i_glide_lipo>  (106) 
-0.984108

>  <r_i_glide_hbond>  (106) 
0

>  <r_i_glide_metal>  (106) 
-0

>  <r_i_glide_rewards>  (106) 
-1.51966

>  <r_i_glide_evdw>  (106) 
-12.5595

>  <r_i_glide_ecoul>  (106) 
-8.60042

>  <r_i_glide_erotb>  (106) 
0

>  <r_i_glide_esite>  (106) 
0

>  <r_i_glide_emodel>  (106) 
-30.1219

>  <r_i_glide_energy>  (106) 
-21.1599

>  <r_i_glide_einternal>  (106) 
2.05042

>  <r_i_glide_intrahb_reward>  (106) 
-0.5

>  <i_i_glide_confnum>  (106) 
1

>  <i_i_glide_posenum>  (106) 
21

>  <r_i_glide_eff_state_penalty>  (106) 
0

>  <ligand_id>  (106) 
35

>  <original_smiles>  (106) 
CC1=CC2C(C1)C(O)C1(O)C2(O)C2CC(C)(O)C3(CO3)C1(C)C2(C)C

>  <smiles>  (106) 
[H]OC1([H])C2([H])C([H])([H])C(C([H])([H])[H])=C([H])C2([H])C2(O[H])C3([H])C([H])([H])C(O[H])(C([H])([H])[H])C4(OC4([H])[H])C(C([H])([H])[H])(C12O[H])C3(C([H])([H])[H])C([H])([H])[H]

$$$$
35:0:2
     RDKit          3D

 55 59  0  0  1  0  0  0  0  0999 V2000
    3.0419    0.1488   -5.0690 C   0  0  0  0  0  0  0  0  0  0  0  0
    3.4782   -0.6862   -3.9066 C   0  0  0  0  0  0  0  0  0  0  0  0
    2.9977   -0.7039   -2.6325 C   0  0  0  0  0  0  0  0  0  0  0  0
    3.5829   -1.8200   -1.8577 C   0  0  1  0  0  0  0  0  0  0  0  0
    4.9640   -1.8368   -2.5723 C   0  0  2  0  0  0  0  0  0  0  0  0
    4.5691   -1.6843   -4.0434 C   0  0  0  0  0  0  0  0  0  0  0  0
    5.9007   -2.8649   -1.8561 C   0  0  1  0  0  0  0  0  0  0  0  0
    7.1210   -2.2747   -1.4393 O   0  0  0  0  0  0  0  0  0  0  0  0
    4.9811   -3.1940   -0.6378 C   0  0  2  0  0  0  0  0  0  0  0  0
    4.3636   -4.2329   -1.3697 O   0  0  0  0  0  0  0  0  0  0  0  0
    4.1249   -1.8854   -0.3996 C   0  0  1  0  0  0  0  0  0  0  0  0
    4.7801   -0.6288   -0.1853 O   0  0  0  0  0  0  0  0  0  0  0  0
    3.5302   -2.1951    1.0000 C   0  0  1  0  0  0  0  0  0  0  0  0
    2.3684   -3.1866    0.9608 C   0  0  0  0  0  0  0  0  0  0  0  0
    2.6448   -4.7262    0.9209 C   0  0  1  0  0  0  0  0  0  0  0  0
    1.8100   -5.5388    1.9619 C   0  0  0  0  0  0  0  0  0  0  0  0
    2.0233   -5.1553   -0.2795 O   0  0  0  0  0  0  0  0  0  0  0  0
    4.1864   -5.1102    0.9527 C   0  0  2  0  0  0  0  0  0  0  0  0
    4.5734   -6.5443    0.6466 C   0  0  0  0  0  0  0  0  0  0  0  0
    4.5472   -6.0441    1.9854 O   0  0  0  0  0  0  0  0  0  0  0  0
    5.1831   -3.9088    0.7564 C   0  0  1  0  0  0  0  0  0  0  0  0
    6.6494   -4.3804    0.8988 C   0  0  0  0  0  0  0  0  0  0  0  0
    4.7399   -2.8094    1.7815 C   0  0  0  0  0  0  0  0  0  0  0  0
    5.8567   -1.7935    2.0756 C   0  0  0  0  0  0  0  0  0  0  0  0
    4.3770   -3.3081    3.2061 C   0  0  0  0  0  0  0  0  0  0  0  0
    3.8414    0.8014   -5.4544 H   0  0  0  0  0  0  0  0  0  0  0  0
    2.1546    0.7410   -4.8488 H   0  0  0  0  0  0  0  0  0  0  0  0
    2.7771   -0.5340   -5.8626 H   0  0  0  0  0  0  0  0  0  0  0  0
    2.1482   -0.1471   -2.3118 H   0  0  0  0  0  0  0  0  0  0  0  0
    2.9036   -2.6410   -2.1272 H   0  0  0  0  0  0  0  0  0  0  0  0
    5.4451   -0.8734   -2.3838 H   0  0  0  0  0  0  0  0  0  0  0  0
    4.2170   -2.6364   -4.4550 H   0  0  0  0  0  0  0  0  0  0  0  0
    5.1950   -1.1023   -4.7282 H   0  0  0  0  0  0  0  0  0  0  0  0
    6.1613   -3.7045   -2.5014 H   0  0  0  0  0  0  0  0  0  0  0  0
    7.6419   -2.9498   -1.0285 H   0  0  0  0  0  0  0  0  0  0  0  0
    4.0439   -3.8308   -2.1499 H   0  0  0  0  0  0  0  0  0  0  0  0
    4.1443    0.0470   -0.0160 H   0  0  0  0  0  0  0  0  0  0  0  0
    3.1536   -1.2901    1.4848 H   0  0  0  0  0  0  0  0  0  0  0  0
    1.7527   -2.9812    1.8385 H   0  0  0  0  0  0  0  0  0  0  0  0
    1.7979   -2.8908    0.0830 H   0  0  0  0  0  0  0  0  0  0  0  0
    2.0082   -5.2758    3.0011 H   0  0  0  0  0  0  0  0  0  0  0  0
    1.9566   -6.6181    1.8514 H   0  0  0  0  0  0  0  0  0  0  0  0
    0.7403   -5.3949    1.8307 H   0  0  0  0  0  0  0  0  0  0  0  0
    2.6862   -5.1668   -0.9648 H   0  0  0  0  0  0  0  0  0  0  0  0
    3.7979   -7.2610    0.4105 H   0  0  0  0  0  0  0  0  0  0  0  0
    5.5611   -6.7865    0.2666 H   0  0  0  0  0  0  0  0  0  0  0  0
    6.8012   -4.8922    1.8437 H   0  0  0  0  0  0  0  0  0  0  0  0
    7.3558   -3.5584    0.8460 H   0  0  0  0  0  0  0  0  0  0  0  0
    6.9100   -5.0594    0.0886 H   0  0  0  0  0  0  0  0  0  0  0  0
    6.5215   -2.2341    2.8033 H   0  0  0  0  0  0  0  0  0  0  0  0
    5.4736   -0.8662    2.5065 H   0  0  0  0  0  0  0  0  0  0  0  0
    6.4924   -1.5513    1.2213 H   0  0  0  0  0  0  0  0  0  0  0  0
    4.2224   -2.4719    3.8838 H   0  0  0  0  0  0  0  0  0  0  0  0
    5.1789   -3.9170    3.6204 H   0  0  0  0  0  0  0  0  0  0  0  0
    3.4828   -3.8999    3.2784 H   0  0  0  0  0  0  0  0  0  0  0  0
  1  2  1  0
  1 26  1  0
  1 27  1  0
  1 28  1  0
  2  6  1  0
  2  3  2  0
  3  4  1  0
  3 29  1  0
  4 11  1  0
  4  5  1  0
  4 30  1  6
  5  6  1  0
  5  7  1  0
  5 31  1  1
  6 32  1  0
  6 33  1  0
  7  8  1  0
  7  9  1  0
  7 34  1  6
  8 35  1  0
  9 21  1  0
  9 10  1  6
  9 11  1  0
 10 36  1  0
 11 12  1  1
 11 13  1  0
 12 37  1  0
 13 23  1  0
 13 14  1  0
 13 38  1  1
 14 15  1  0
 14 39  1  0
 14 40  1  0
 15 16  1  0
 15 17  1  6
 15 18  1  0
 16 41  1  0
 16 42  1  0
 16 43  1  0
 17 44  1  0
 18 20  1  1
 18 19  1  0
 18 21  1  0
 19 20  1  0
 19 45  1  0
 19 46  1  0
 21 22  1  1
 21 23  1  0
 22 47  1  0
 22 48  1  0
 22 49  1  0
 23 24  1  0
 23 25  1  0
 24 50  1  0
 24 51  1  0
 24 52  1  0
 25 53  1  0
 25 54  1  0
 25 55  1  0
M  END
>  <i_m_ct_stereo_status>  (107) 
1

>  <s_m_source_file>  (107) 
/var/tmp/pbs.5076255.sched01/tmphrtf3o8j/0_qqz9eae.sdf

>  <i_m_source_file_index>  (107) 
44

>  <i_lp_mmshare_version>  (107) 
48012

>  <i_f3d_flags>  (107) 
0

>  <s_epik_input>  (107) 
W0NIM11DKD1bQ0hdMSlbQ0gyXVtDQEhdKFtDQEhdMltPSF0pW0NASF0xW0NAXShbT0hdKShbQ0BdMihbT0hdKVtDQF0zKFtDSDNdKVtDQF00NVtDSDJdTzUpW0NASF0oQzMoW0NIM10pW0NIM10pW0NIMl1bQ0BAXTQoW0NIM10pW09IXQ==

>  <s_epik_cmdline>  (107) 
J2VwaWtfcHl0aG9uJywgJy1waHQnLCAnMi4wJywgJy1waCcsICc3LjAnLCAnLXRuJywgJzgnLCAnLW1hJywgJzIwMCcsICctaW1hZScsICc8aW5maWxlLm1hZT4nLCAnLW9tYWUnLCAnPG91dGZpbGUubWFlPic=

>  <r_lp_tautomer_probability>  (107) 
1

>  <r_epik_Ionization_Penalty>  (107) 
3.9522e-07

>  <r_epik_Ionization_Penalty_Charging>  (107) 
0

>  <r_epik_Ionization_Penalty_Neutral>  (107) 
3.9522e-07

>  <r_epik_State_Penalty>  (107) 
-0

>  <r_epik_Charging_Adjusted_Penalty>  (107) 
0

>  <i_epik_Tot_Q>  (107) 
0

>  <i_epik_Tot_abs_Q>  (107) 
0

>  <s_lp_Force_Field>  (107) 
OPLS3e

>  <r_lp_Energy>  (107) 
119.111

>  <b_lp_Chiralities_Consistent>  (107) 
1

>  <s_lp_Variant>  (107) 
35:0-1

>  <s_i_glide_gridfile>  (107) 
pfpi4k_grid

>  <i_i_glide_lignum>  (107) 
44

>  <i_i_glide_rotatable_bonds>  (107) 
4

>  <r_i_docking_score>  (107) 
-4.01543

>  <r_i_glide_ligand_efficiency>  (107) 
-0.160617

>  <r_i_glide_ligand_efficiency_sa>  (107) 
-0.469648

>  <r_i_glide_ligand_efficiency_ln>  (107) 
-0.951778

>  <r_i_glide_gscore>  (107) 
-4.01543

>  <r_i_glide_lipo>  (107) 
-0.884441

>  <r_i_glide_hbond>  (107) 
0

>  <r_i_glide_metal>  (107) 
-0

>  <r_i_glide_rewards>  (107) 
-1.51966

>  <r_i_glide_evdw>  (107) 
-12.0772

>  <r_i_glide_ecoul>  (107) 
-6.71643

>  <r_i_glide_erotb>  (107) 
0

>  <r_i_glide_esite>  (107) 
0

>  <r_i_glide_emodel>  (107) 
-27.9392

>  <r_i_glide_energy>  (107) 
-18.7937

>  <r_i_glide_einternal>  (107) 
0.76878

>  <r_i_glide_intrahb_reward>  (107) 
-0.5

>  <i_i_glide_confnum>  (107) 
1

>  <i_i_glide_posenum>  (107) 
20

>  <r_i_glide_eff_state_penalty>  (107) 
0

>  <ligand_id>  (107) 
35

>  <original_smiles>  (107) 
CC1=CC2C(C1)C(O)C1(O)C2(O)C2CC(C)(O)C3(CO3)C1(C)C2(C)C

>  <smiles>  (107) 
[H]OC1([H])C2([H])C([H])([H])C(C([H])([H])[H])=C([H])C2([H])C2(O[H])C3([H])C([H])([H])C(O[H])(C([H])([H])[H])C4(OC4([H])[H])C(C([H])([H])[H])(C12O[H])C3(C([H])([H])[H])C([H])([H])[H]

$$$$
36:0:0
     RDKit          3D

 32 33  0  0  1  0  0  0  0  0999 V2000
   -1.2642    1.8670    2.5691 C   0  0  0  0  0  0  0  0  0  0  0  0
   -0.6621    2.9221    3.5641 C   0  0  0  0  0  0  0  0  0  0  0  0
   -0.9725    2.6182    4.9566 N   0  0  0  0  0  0  0  0  0  0  0  0
   -2.3832    2.8155    5.2498 C   0  0  0  0  0  0  0  0  0  0  0  0
   -2.7048    2.5473    6.7268 C   0  0  0  0  0  0  0  0  0  0  0  0
   -2.2845    1.2270    7.0877 O   0  0  0  0  0  0  0  0  0  0  0  0
   -0.8830    1.0369    6.9035 C   0  0  0  0  0  0  0  0  0  0  0  0
   -0.5277    1.2964    5.4341 C   0  0  0  0  0  0  0  0  0  0  0  0
   -0.2773    1.2276    1.6677 N   0  0  0  0  0  0  0  0  0  0  0  0
    0.9709    0.8975    1.9855 C   0  0  0  0  0  0  0  0  0  0  0  0
    1.8570    0.1757    1.2437 N   0  0  0  0  0  0  0  0  0  0  0  0
    3.1335    0.0558    1.9567 C   0  0  0  0  0  0  0  0  0  0  0  0
    2.7422    0.6190    3.3301 C   0  0  0  0  0  0  0  0  0  0  0  0
    1.4938    1.2213    3.1701 O   0  0  0  0  0  0  0  0  0  0  0  0
   -1.7711    1.0398    3.0491 H   0  0  0  0  0  0  0  0  0  0  0  0
   -2.0544    2.3256    2.0002 H   0  0  0  0  0  0  0  0  0  0  0  0
    0.4124    3.1157    3.4459 H   0  0  0  0  0  0  0  0  0  0  0  0
   -1.1265    3.8809    3.3008 H   0  0  0  0  0  0  0  0  0  0  0  0
   -2.6509    3.8387    4.9948 H   0  0  0  0  0  0  0  0  0  0  0  0
   -2.9928    2.1598    4.6189 H   0  0  0  0  0  0  0  0  0  0  0  0
   -2.2073    3.2873    7.3679 H   0  0  0  0  0  0  0  0  0  0  0  0
   -3.7814    2.6493    6.8946 H   0  0  0  0  0  0  0  0  0  0  0  0
   -0.3092    1.6979    7.5657 H   0  0  0  0  0  0  0  0  0  0  0  0
   -0.6310    0.0100    7.1715 H   0  0  0  0  0  0  0  0  0  0  0  0
   -0.9872    0.4798    4.8670 H   0  0  0  0  0  0  0  0  0  0  0  0
    0.5483    1.1939    5.3137 H   0  0  0  0  0  0  0  0  0  0  0  0
    1.5824   -0.2887    0.3984 H   0  0  0  0  0  0  0  0  0  0  0  0
    3.5065   -0.9539    1.9871 H   0  0  0  0  0  0  0  0  0  0  0  0
    3.8447    0.6887    1.4549 H   0  0  0  0  0  0  0  0  0  0  0  0
    2.5806   -0.1830    4.0635 H   0  0  0  0  0  0  0  0  0  0  0  0
    3.5059    1.2970    3.7434 H   0  0  0  0  0  0  0  0  0  0  0  0
   -0.5992    0.9289    0.7615 H   0  0  0  0  0  0  0  0  0  0  0  0
  1  2  1  0
  1  9  1  0
  1 15  1  0
  1 16  1  0
  2  3  1  0
  2 17  1  0
  2 18  1  0
  3  8  1  0
  3  4  1  0
  4  5  1  0
  4 19  1  0
  4 20  1  0
  5  6  1  0
  5 21  1  0
  5 22  1  0
  6  7  1  0
  7  8  1  0
  7 23  1  0
  7 24  1  0
  8 25  1  0
  8 26  1  0
  9 10  1  0
  9 32  1  0
 10 14  1  0
 10 11  2  0
 11 12  1  0
 11 27  1  0
 12 13  1  0
 12 28  1  0
 12 29  1  0
 13 14  1  0
 13 30  1  0
 13 31  1  0
M  CHG  1  11   1
M  END
>  <i_m_ct_stereo_status>  (108) 
1

>  <s_m_source_file>  (108) 
/var/tmp/pbs.5076255.sched01/tmphrtf3o8j/0_qqz9eae.sdf

>  <i_m_source_file_index>  (108) 
45

>  <i_lp_mmshare_version>  (108) 
48012

>  <i_f3d_flags>  (108) 
0

>  <s_epik_input>  (108) 
TzFbQ0gyXVtDSDJdW05IXS9DMT1OXFtDSDJdW0NIMl1OMltDSDJdW0NIMl1PW0NIMl1bQ0gyXTI=

>  <s_epik_cmdline>  (108) 
J2VwaWtfcHl0aG9uJywgJy1waHQnLCAnMi4wJywgJy1waCcsICc3LjAnLCAnLXRuJywgJzgnLCAnLW1hJywgJzIwMCcsICctaW1hZScsICc8aW5maWxlLm1hZT4nLCAnLW9tYWUnLCAnPG91dGZpbGUubWFlPic=

>  <r_epik_Ionization_Penalty>  (108) 
0.0404818

>  <r_epik_Ionization_Penalty_Charging>  (108) 
0.00416375

>  <r_epik_Ionization_Penalty_Neutral>  (108) 
0.0363181

>  <r_epik_State_Penalty>  (108) 
0.0559084

>  <r_epik_Charging_Adjusted_Penalty>  (108) 
0.0600721

>  <i_epik_Tot_Q>  (108) 
1

>  <i_epik_Tot_abs_Q>  (108) 
1

>  <s_epik_Chemistry_Notes>  (108) 
This compound has an imine and may undergo hydrolysis.

>  <s_lp_Force_Field>  (108) 
OPLS3e

>  <r_lp_Energy>  (108) 
8.83374

>  <b_lp_Chiralities_Consistent>  (108) 
1

>  <s_lp_Variant>  (108) 
36:0-1

>  <s_i_glide_gridfile>  (108) 
pfpi4k_grid

>  <i_i_glide_lignum>  (108) 
45

>  <i_i_glide_rotatable_bonds>  (108) 
4

>  <r_i_docking_score>  (108) 
-4.22946

>  <r_i_glide_ligand_efficiency>  (108) 
-0.302104

>  <r_i_glide_ligand_efficiency_sa>  (108) 
-0.728114

>  <r_i_glide_ligand_efficiency_ln>  (108) 
-1.16224

>  <r_i_glide_gscore>  (108) 
-4.22946

>  <r_i_glide_lipo>  (108) 
-0.182127

>  <r_i_glide_hbond>  (108) 
-0.56

>  <r_i_glide_metal>  (108) 
-0

>  <r_i_glide_rewards>  (108) 
-2.04369

>  <r_i_glide_evdw>  (108) 
-9.66378

>  <r_i_glide_ecoul>  (108) 
-10.2631

>  <r_i_glide_erotb>  (108) 
0.814913

>  <r_i_glide_esite>  (108) 
-0.23589

>  <r_i_glide_emodel>  (108) 
-22.7179

>  <r_i_glide_energy>  (108) 
-19.9269

>  <r_i_glide_einternal>  (108) 
8.97067

>  <r_i_glide_intrahb_reward>  (108) 
-0

>  <i_i_glide_confnum>  (108) 
3

>  <i_i_glide_posenum>  (108) 
24

>  <r_i_glide_eff_state_penalty>  (108) 
0

>  <ligand_id>  (108) 
36

>  <original_smiles>  (108) 
C(CN1CCOCC1)N=C1NCCO1

>  <smiles>  (108) 
[H]N(C1=[N+]([H])C([H])([H])C([H])([H])O1)C([H])([H])C([H])([H])N1C([H])([H])C([H])([H])OC([H])([H])C1([H])[H]

$$$$
36:0:1
     RDKit          3D

 32 33  0  0  1  0  0  0  0  0999 V2000
   -1.4895    2.3741    4.9267 C   0  0  0  0  0  0  0  0  0  0  0  0
   -0.6727    2.6693    6.1956 C   0  0  0  0  0  0  0  0  0  0  0  0
   -1.4163    2.5371    7.4406 N   0  0  0  0  0  0  0  0  0  0  0  0
   -0.5346    2.6662    8.6057 C   0  0  0  0  0  0  0  0  0  0  0  0
   -1.3114    2.6035    9.9338 C   0  0  0  0  0  0  0  0  0  0  0  0
   -2.3201    3.6076    9.9519 O   0  0  0  0  0  0  0  0  0  0  0  0
   -3.2374    3.4794    8.8726 C   0  0  0  0  0  0  0  0  0  0  0  0
   -2.4692    3.5526    7.5497 C   0  0  0  0  0  0  0  0  0  0  0  0
   -0.7668    2.7429    3.7159 N   0  0  0  0  0  0  0  0  0  0  0  0
    0.1046    1.9288    3.0977 C   0  0  0  0  0  0  0  0  0  0  0  0
    0.7619    2.1523    1.9872 N   0  0  0  0  0  0  0  0  0  0  0  0
    1.5535    0.9857    1.6523 C   0  0  0  0  0  0  0  0  0  0  0  0
    1.0729   -0.0572    2.6617 C   0  0  0  0  0  0  0  0  0  0  0  0
    0.3706    0.6917    3.6511 O   0  0  0  0  0  0  0  0  0  0  0  0
   -1.7824    1.3273    4.8882 H   0  0  0  0  0  0  0  0  0  0  0  0
   -2.4133    2.9517    4.8846 H   0  0  0  0  0  0  0  0  0  0  0  0
    0.1650    1.9635    6.2026 H   0  0  0  0  0  0  0  0  0  0  0  0
   -0.2103    3.6578    6.1229 H   0  0  0  0  0  0  0  0  0  0  0  0
    0.2258    1.8831    8.5934 H   0  0  0  0  0  0  0  0  0  0  0  0
    0.0014    3.6154    8.5609 H   0  0  0  0  0  0  0  0  0  0  0  0
   -1.7632    1.6224   10.0641 H   0  0  0  0  0  0  0  0  0  0  0  0
   -0.6483    2.7623   10.7831 H   0  0  0  0  0  0  0  0  0  0  0  0
   -3.7902    2.5414    8.9436 H   0  0  0  0  0  0  0  0  0  0  0  0
   -3.9715    4.2844    8.9136 H   0  0  0  0  0  0  0  0  0  0  0  0
   -2.0221    4.5424    7.4427 H   0  0  0  0  0  0  0  0  0  0  0  0
   -3.2062    3.4292    6.7581 H   0  0  0  0  0  0  0  0  0  0  0  0
    0.6129    2.9956    1.3998 H   0  0  0  0  0  0  0  0  0  0  0  0
    1.4421    0.6446    0.6213 H   0  0  0  0  0  0  0  0  0  0  0  0
    2.6056    1.2385    1.8136 H   0  0  0  0  0  0  0  0  0  0  0  0
    0.3286   -0.7065    2.1935 H   0  0  0  0  0  0  0  0  0  0  0  0
    1.8683   -0.6700    3.0844 H   0  0  0  0  0  0  0  0  0  0  0  0
   -0.9796    3.6146    3.2580 H   0  0  0  0  0  0  0  0  0  0  0  0
  1  2  1  0
  1  9  1  0
  1 15  1  0
  1 16  1  0
  2  3  1  0
  2 17  1  0
  2 18  1  0
  3  8  1  0
  3  4  1  0
  4  5  1  0
  4 19  1  0
  4 20  1  0
  5  6  1  0
  5 21  1  0
  5 22  1  0
  6  7  1  0
  7  8  1  0
  7 23  1  0
  7 24  1  0
  8 25  1  0
  8 26  1  0
  9 10  1  0
  9 32  1  0
 10 14  1  0
 10 11  2  0
 11 12  1  0
 11 27  1  0
 12 13  1  0
 12 28  1  0
 12 29  1  0
 13 14  1  0
 13 30  1  0
 13 31  1  0
M  CHG  1  11   1
M  END
>  <i_m_ct_stereo_status>  (109) 
1

>  <s_m_source_file>  (109) 
/var/tmp/pbs.5076255.sched01/tmphrtf3o8j/0_qqz9eae.sdf

>  <i_m_source_file_index>  (109) 
45

>  <i_lp_mmshare_version>  (109) 
48012

>  <i_f3d_flags>  (109) 
0

>  <s_epik_input>  (109) 
TzFbQ0gyXVtDSDJdW05IXS9DMT1OXFtDSDJdW0NIMl1OMltDSDJdW0NIMl1PW0NIMl1bQ0gyXTI=

>  <s_epik_cmdline>  (109) 
J2VwaWtfcHl0aG9uJywgJy1waHQnLCAnMi4wJywgJy1waCcsICc3LjAnLCAnLXRuJywgJzgnLCAnLW1hJywgJzIwMCcsICctaW1hZScsICc8aW5maWxlLm1hZT4nLCAnLW9tYWUnLCAnPG91dGZpbGUubWFlPic=

>  <r_epik_Ionization_Penalty>  (109) 
0.0404818

>  <r_epik_Ionization_Penalty_Charging>  (109) 
0.00416375

>  <r_epik_Ionization_Penalty_Neutral>  (109) 
0.0363181

>  <r_epik_State_Penalty>  (109) 
0.0559084

>  <r_epik_Charging_Adjusted_Penalty>  (109) 
0.0600721

>  <i_epik_Tot_Q>  (109) 
1

>  <i_epik_Tot_abs_Q>  (109) 
1

>  <s_epik_Chemistry_Notes>  (109) 
This compound has an imine and may undergo hydrolysis.

>  <s_lp_Force_Field>  (109) 
OPLS3e

>  <r_lp_Energy>  (109) 
8.83374

>  <b_lp_Chiralities_Consistent>  (109) 
1

>  <s_lp_Variant>  (109) 
36:0-1

>  <s_i_glide_gridfile>  (109) 
pfpi4k_grid

>  <i_i_glide_lignum>  (109) 
45

>  <i_i_glide_rotatable_bonds>  (109) 
4

>  <r_i_docking_score>  (109) 
-3.10087

>  <r_i_glide_ligand_efficiency>  (109) 
-0.221491

>  <r_i_glide_ligand_efficiency_sa>  (109) 
-0.533824

>  <r_i_glide_ligand_efficiency_ln>  (109) 
-0.852108

>  <r_i_glide_gscore>  (109) 
-3.10087

>  <r_i_glide_lipo>  (109) 
-0.133313

>  <r_i_glide_hbond>  (109) 
-0.2

>  <r_i_glide_metal>  (109) 
-0

>  <r_i_glide_rewards>  (109) 
-2.04369

>  <r_i_glide_evdw>  (109) 
-9.85065

>  <r_i_glide_ecoul>  (109) 
-5.66215

>  <r_i_glide_erotb>  (109) 
0.814913

>  <r_i_glide_esite>  (109) 
-0.196919

>  <r_i_glide_emodel>  (109) 
-20.8263

>  <r_i_glide_energy>  (109) 
-15.5128

>  <r_i_glide_einternal>  (109) 
1.08959

>  <r_i_glide_intrahb_reward>  (109) 
-0

>  <i_i_glide_confnum>  (109) 
2

>  <i_i_glide_posenum>  (109) 
35

>  <r_i_glide_eff_state_penalty>  (109) 
0

>  <ligand_id>  (109) 
36

>  <original_smiles>  (109) 
C(CN1CCOCC1)N=C1NCCO1

>  <smiles>  (109) 
[H]N(C1=[N+]([H])C([H])([H])C([H])([H])O1)C([H])([H])C([H])([H])N1C([H])([H])C([H])([H])OC([H])([H])C1([H])[H]

$$$$
36:0:2
     RDKit          3D

 32 33  0  0  1  0  0  0  0  0999 V2000
   -1.5159    1.4203    5.0587 C   0  0  0  0  0  0  0  0  0  0  0  0
   -2.1937    2.5055    5.9167 C   0  0  0  0  0  0  0  0  0  0  0  0
   -2.1669    2.2445    7.3586 N   0  0  0  0  0  0  0  0  0  0  0  0
   -0.8226    2.4644    7.9060 C   0  0  0  0  0  0  0  0  0  0  0  0
   -0.7822    2.2665    9.4270 C   0  0  0  0  0  0  0  0  0  0  0  0
   -1.7076    3.1602   10.0322 O   0  0  0  0  0  0  0  0  0  0  0  0
   -3.0386    2.9496    9.5854 C   0  0  0  0  0  0  0  0  0  0  0  0
   -3.0981    3.1207    8.0589 C   0  0  0  0  0  0  0  0  0  0  0  0
   -1.0485    1.9619    3.7710 N   0  0  0  0  0  0  0  0  0  0  0  0
   -0.0830    1.3557    3.0648 C   0  0  0  0  0  0  0  0  0  0  0  0
    0.4166    1.7509    1.8997 N   0  0  0  0  0  0  0  0  0  0  0  0
    1.4823    0.8390    1.4970 C   0  0  0  0  0  0  0  0  0  0  0  0
    1.3170   -0.3281    2.4958 C   0  0  0  0  0  0  0  0  0  0  0  0
    0.4589    0.1907    3.5154 O   0  0  0  0  0  0  0  0  0  0  0  0
   -0.6388    1.0130    5.5611 H   0  0  0  0  0  0  0  0  0  0  0  0
   -2.1824    0.5726    4.8893 H   0  0  0  0  0  0  0  0  0  0  0  0
   -1.7521    3.4815    5.7066 H   0  0  0  0  0  0  0  0  0  0  0  0
   -3.2314    2.5742    5.5809 H   0  0  0  0  0  0  0  0  0  0  0  0
   -0.0894    1.7862    7.4686 H   0  0  0  0  0  0  0  0  0  0  0  0
   -0.5037    3.4853    7.6754 H   0  0  0  0  0  0  0  0  0  0  0  0
   -1.0073    1.2287    9.6819 H   0  0  0  0  0  0  0  0  0  0  0  0
    0.2191    2.4776    9.8002 H   0  0  0  0  0  0  0  0  0  0  0  0
   -3.3694    1.9562    9.8676 H   0  0  0  0  0  0  0  0  0  0  0  0
   -3.6920    3.6609   10.0843 H   0  0  0  0  0  0  0  0  0  0  0  0
   -2.8708    4.1587    7.8195 H   0  0  0  0  0  0  0  0  0  0  0  0
   -4.1108    2.9189    7.7149 H   0  0  0  0  0  0  0  0  0  0  0  0
    0.2169    2.6409    1.4377 H   0  0  0  0  0  0  0  0  0  0  0  0
    1.4362    0.5323    0.4549 H   0  0  0  0  0  0  0  0  0  0  0  0
    2.4382    1.3499    1.6788 H   0  0  0  0  0  0  0  0  0  0  0  0
    0.8119   -1.1666    2.0135 H   0  0  0  0  0  0  0  0  0  0  0  0
    2.2723   -0.7087    2.8644 H   0  0  0  0  0  0  0  0  0  0  0  0
   -1.5803    2.6970    3.3266 H   0  0  0  0  0  0  0  0  0  0  0  0
  1  2  1  0
  1  9  1  0
  1 15  1  0
  1 16  1  0
  2  3  1  0
  2 17  1  0
  2 18  1  0
  3  8  1  0
  3  4  1  0
  4  5  1  0
  4 19  1  0
  4 20  1  0
  5  6  1  0
  5 21  1  0
  5 22  1  0
  6  7  1  0
  7  8  1  0
  7 23  1  0
  7 24  1  0
  8 25  1  0
  8 26  1  0
  9 10  1  0
  9 32  1  0
 10 14  1  0
 10 11  2  0
 11 12  1  0
 11 27  1  0
 12 13  1  0
 12 28  1  0
 12 29  1  0
 13 14  1  0
 13 30  1  0
 13 31  1  0
M  CHG  1  11   1
M  END
>  <i_m_ct_stereo_status>  (110) 
1

>  <s_m_source_file>  (110) 
/var/tmp/pbs.5076255.sched01/tmphrtf3o8j/0_qqz9eae.sdf

>  <i_m_source_file_index>  (110) 
45

>  <i_lp_mmshare_version>  (110) 
48012

>  <i_f3d_flags>  (110) 
0

>  <s_epik_input>  (110) 
TzFbQ0gyXVtDSDJdW05IXS9DMT1OXFtDSDJdW0NIMl1OMltDSDJdW0NIMl1PW0NIMl1bQ0gyXTI=

>  <s_epik_cmdline>  (110) 
J2VwaWtfcHl0aG9uJywgJy1waHQnLCAnMi4wJywgJy1waCcsICc3LjAnLCAnLXRuJywgJzgnLCAnLW1hJywgJzIwMCcsICctaW1hZScsICc8aW5maWxlLm1hZT4nLCAnLW9tYWUnLCAnPG91dGZpbGUubWFlPic=

>  <r_epik_Ionization_Penalty>  (110) 
0.0404818

>  <r_epik_Ionization_Penalty_Charging>  (110) 
0.00416375

>  <r_epik_Ionization_Penalty_Neutral>  (110) 
0.0363181

>  <r_epik_State_Penalty>  (110) 
0.0559084

>  <r_epik_Charging_Adjusted_Penalty>  (110) 
0.0600721

>  <i_epik_Tot_Q>  (110) 
1

>  <i_epik_Tot_abs_Q>  (110) 
1

>  <s_epik_Chemistry_Notes>  (110) 
This compound has an imine and may undergo hydrolysis.

>  <s_lp_Force_Field>  (110) 
OPLS3e

>  <r_lp_Energy>  (110) 
8.83374

>  <b_lp_Chiralities_Consistent>  (110) 
1

>  <s_lp_Variant>  (110) 
36:0-1

>  <s_i_glide_gridfile>  (110) 
pfpi4k_grid

>  <i_i_glide_lignum>  (110) 
45

>  <i_i_glide_rotatable_bonds>  (110) 
4

>  <r_i_docking_score>  (110) 
-2.93595

>  <r_i_glide_ligand_efficiency>  (110) 
-0.209711

>  <r_i_glide_ligand_efficiency_sa>  (110) 
-0.505433

>  <r_i_glide_ligand_efficiency_ln>  (110) 
-0.806789

>  <r_i_glide_gscore>  (110) 
-2.93595

>  <r_i_glide_lipo>  (110) 
-0.160033

>  <r_i_glide_hbond>  (110) 
-0.2

>  <r_i_glide_metal>  (110) 
-0

>  <r_i_glide_rewards>  (110) 
-2.04369

>  <r_i_glide_evdw>  (110) 
-11.2577

>  <r_i_glide_ecoul>  (110) 
-4.24963

>  <r_i_glide_erotb>  (110) 
0.814913

>  <r_i_glide_esite>  (110) 
-0.146809

>  <r_i_glide_emodel>  (110) 
-20.61

>  <r_i_glide_energy>  (110) 
-15.5073

>  <r_i_glide_einternal>  (110) 
1.31967

>  <r_i_glide_intrahb_reward>  (110) 
-0

>  <i_i_glide_confnum>  (110) 
3

>  <i_i_glide_posenum>  (110) 
4

>  <r_i_glide_eff_state_penalty>  (110) 
0

>  <ligand_id>  (110) 
36

>  <original_smiles>  (110) 
C(CN1CCOCC1)N=C1NCCO1

>  <smiles>  (110) 
[H]N(C1=[N+]([H])C([H])([H])C([H])([H])O1)C([H])([H])C([H])([H])N1C([H])([H])C([H])([H])OC([H])([H])C1([H])[H]

$$$$
36:1:0
     RDKit          3D

 31 32  0  0  1  0  0  0  0  0999 V2000
    1.4927    0.2705    2.4418 C   0  0  0  0  0  0  0  0  0  0  0  0
    0.4501    1.3314    2.0649 C   0  0  0  0  0  0  0  0  0  0  0  0
   -0.2595    1.8792    3.2258 N   0  0  0  0  0  0  0  0  0  0  0  0
    0.4809    2.9900    3.8278 C   0  0  0  0  0  0  0  0  0  0  0  0
   -0.2664    3.6061    5.0258 C   0  0  0  0  0  0  0  0  0  0  0  0
   -1.5734    4.0218    4.6328 O   0  0  0  0  0  0  0  0  0  0  0  0
   -2.3330    2.9482    4.0825 C   0  0  0  0  0  0  0  0  0  0  0  0
   -1.5917    2.3497    2.8752 C   0  0  0  0  0  0  0  0  0  0  0  0
    2.2196   -0.2190    1.2838 N   0  0  0  0  0  0  0  0  0  0  0  0
    3.5710   -0.5211    1.2795 C   0  0  0  0  0  0  0  0  0  0  0  0
    4.3212   -0.8189    0.2743 N   0  0  0  0  0  0  0  0  0  0  0  0
    5.6511   -1.0033    0.7910 C   0  0  0  0  0  0  0  0  0  0  0  0
    5.5410   -0.7720    2.3038 C   0  0  0  0  0  0  0  0  0  0  0  0
    4.1685   -0.4944    2.4967 O   0  0  0  0  0  0  0  0  0  0  0  0
    2.1923    0.6973    3.1586 H   0  0  0  0  0  0  0  0  0  0  0  0
    1.0037   -0.5735    2.9367 H   0  0  0  0  0  0  0  0  0  0  0  0
    0.9224    2.1385    1.5009 H   0  0  0  0  0  0  0  0  0  0  0  0
   -0.2507    0.8713    1.3698 H   0  0  0  0  0  0  0  0  0  0  0  0
    1.4692    2.6576    4.1483 H   0  0  0  0  0  0  0  0  0  0  0  0
    0.6438    3.7689    3.0805 H   0  0  0  0  0  0  0  0  0  0  0  0
   -0.3358    2.8870    5.8432 H   0  0  0  0  0  0  0  0  0  0  0  0
    0.2778    4.4702    5.4066 H   0  0  0  0  0  0  0  0  0  0  0  0
   -2.5077    2.1901    4.8489 H   0  0  0  0  0  0  0  0  0  0  0  0
   -3.3097    3.3237    3.7790 H   0  0  0  0  0  0  0  0  0  0  0  0
   -1.5268    3.0970    2.0783 H   0  0  0  0  0  0  0  0  0  0  0  0
   -2.1755    1.5191    2.4812 H   0  0  0  0  0  0  0  0  0  0  0  0
    6.0188   -2.0042    0.5668 H   0  0  0  0  0  0  0  0  0  0  0  0
    6.3432   -0.2965    0.3339 H   0  0  0  0  0  0  0  0  0  0  0  0
    5.8471   -1.6525    2.8667 H   0  0  0  0  0  0  0  0  0  0  0  0
    6.1427    0.0745    2.6311 H   0  0  0  0  0  0  0  0  0  0  0  0
    1.6406   -0.3977    0.4390 H   0  0  0  0  0  0  0  0  0  0  0  0
  1  2  1  0
  1  9  1  0
  1 15  1  0
  1 16  1  0
  2  3  1  0
  2 17  1  0
  2 18  1  0
  3  8  1  0
  3  4  1  0
  4  5  1  0
  4 19  1  0
  4 20  1  0
  5  6  1  0
  5 21  1  0
  5 22  1  0
  6  7  1  0
  7  8  1  0
  7 23  1  0
  7 24  1  0
  8 25  1  0
  8 26  1  0
  9 10  1  0
  9 31  1  0
 10 14  1  0
 10 11  2  0
 11 12  1  0
 12 13  1  0
 12 27  1  0
 12 28  1  0
 13 14  1  0
 13 29  1  0
 13 30  1  0
M  END
>  <i_m_ct_stereo_status>  (111) 
1

>  <s_m_source_file>  (111) 
/var/tmp/pbs.5076255.sched01/tmpkddd28mm/459jwin2qj.sdf

>  <i_m_source_file_index>  (111) 
1

>  <i_lp_mmshare_version>  (111) 
48012

>  <i_f3d_flags>  (111) 
0

>  <s_epik_input>  (111) 
TzFbQ0gyXVtDSDJdW05IXS9DMT1OXFtDSDJdW0NIMl1OMltDSDJdW0NIMl1PW0NIMl1bQ0gyXTI=

>  <s_epik_cmdline>  (111) 
J2VwaWtfcHl0aG9uJywgJy1waHQnLCAnMi4wJywgJy1waCcsICc3LjAnLCAnLXRuJywgJzgnLCAnLW1hJywgJzIwMCcsICctaW1hZScsICc8aW5maWxlLm1hZT4nLCAnLW9tYWUnLCAnPG91dGZpbGUubWFlPic=

>  <r_epik_Ionization_Penalty>  (111) 
2.21352

>  <r_epik_Ionization_Penalty_Charging>  (111) 
2.11868

>  <r_epik_Ionization_Penalty_Neutral>  (111) 
0.0948365

>  <r_epik_State_Penalty>  (111) 
1.73142

>  <r_epik_Charging_Adjusted_Penalty>  (111) 
3.85011

>  <i_epik_Tot_Q>  (111) 
0

>  <i_epik_Tot_abs_Q>  (111) 
0

>  <s_epik_Chemistry_Notes>  (111) 
This compound has an imine and may undergo hydrolysis.

>  <s_lp_Force_Field>  (111) 
OPLS3e

>  <r_lp_Energy>  (111) 
-3.14197

>  <b_lp_Chiralities_Consistent>  (111) 
1

>  <s_lp_Variant>  (111) 
36:0-2

>  <s_i_glide_gridfile>  (111) 
pfpi4k_grid

>  <i_i_glide_lignum>  (111) 
1

>  <i_i_glide_rotatable_bonds>  (111) 
4

>  <r_i_docking_score>  (111) 
-3.41008

>  <r_i_glide_ligand_efficiency>  (111) 
-0.243577

>  <r_i_glide_ligand_efficiency_sa>  (111) 
-0.587055

>  <r_i_glide_ligand_efficiency_ln>  (111) 
-0.937077

>  <r_i_glide_gscore>  (111) 
-3.41008

>  <r_i_glide_lipo>  (111) 
-0.210691

>  <r_i_glide_hbond>  (111) 
-0.16

>  <r_i_glide_metal>  (111) 
-0

>  <r_i_glide_rewards>  (111) 
-2.05057

>  <r_i_glide_evdw>  (111) 
-15.5349

>  <r_i_glide_ecoul>  (111) 
-6.26371

>  <r_i_glide_erotb>  (111) 
0.821794

>  <r_i_glide_esite>  (111) 
-0.0943144

>  <r_i_glide_emodel>  (111) 
-24.0756

>  <r_i_glide_energy>  (111) 
-21.7986

>  <r_i_glide_einternal>  (111) 
5.8615

>  <r_i_glide_intrahb_reward>  (111) 
-0

>  <i_i_glide_confnum>  (111) 
3

>  <i_i_glide_posenum>  (111) 
40

>  <r_i_glide_eff_state_penalty>  (111) 
0

>  <ligand_id>  (111) 
36

>  <original_smiles>  (111) 
C(CN1CCOCC1)N=C1NCCO1

>  <smiles>  (111) 
[H]N(C1=NC([H])([H])C([H])([H])O1)C([H])([H])C([H])([H])N1C([H])([H])C([H])([H])OC([H])([H])C1([H])[H]

$$$$
36:1:1
     RDKit          3D

 31 32  0  0  1  0  0  0  0  0999 V2000
    0.7077    0.1191    2.5443 C   0  0  0  0  0  0  0  0  0  0  0  0
    1.0832    1.5199    3.0936 C   0  0  0  0  0  0  0  0  0  0  0  0
    0.0014    2.2679    3.7390 N   0  0  0  0  0  0  0  0  0  0  0  0
   -1.2280    2.2790    2.9636 C   0  0  0  0  0  0  0  0  0  0  0  0
   -2.3240    3.1516    3.5932 C   0  0  0  0  0  0  0  0  0  0  0  0
   -2.5479    2.6986    4.9259 O   0  0  0  0  0  0  0  0  0  0  0  0
   -1.3774    2.7360    5.7333 C   0  0  0  0  0  0  0  0  0  0  0  0
   -0.2495    1.8779    5.1191 C   0  0  0  0  0  0  0  0  0  0  0  0
    1.7181   -0.4574    1.6715 N   0  0  0  0  0  0  0  0  0  0  0  0
    3.0293   -0.7295    2.0224 C   0  0  0  0  0  0  0  0  0  0  0  0
    3.6532   -0.5677    3.1314 N   0  0  0  0  0  0  0  0  0  0  0  0
    5.0108   -0.9684    2.8868 C   0  0  0  0  0  0  0  0  0  0  0  0
    5.0500   -1.4447    1.4237 C   0  0  0  0  0  0  0  0  0  0  0  0
    3.7405   -1.2232    0.9762 O   0  0  0  0  0  0  0  0  0  0  0  0
    0.4818   -0.5993    3.3382 H   0  0  0  0  0  0  0  0  0  0  0  0
   -0.1695    0.1913    1.8806 H   0  0  0  0  0  0  0  0  0  0  0  0
    1.9252    1.4544    3.7880 H   0  0  0  0  0  0  0  0  0  0  0  0
    1.4645    2.1313    2.2694 H   0  0  0  0  0  0  0  0  0  0  0  0
   -1.0111    2.6178    1.9542 H   0  0  0  0  0  0  0  0  0  0  0  0
   -1.6109    1.2551    2.8813 H   0  0  0  0  0  0  0  0  0  0  0  0
   -2.1066    4.2301    3.5751 H   0  0  0  0  0  0  0  0  0  0  0  0
   -3.2375    2.9863    3.0299 H   0  0  0  0  0  0  0  0  0  0  0  0
   -1.0665    3.7769    5.8264 H   0  0  0  0  0  0  0  0  0  0  0  0
   -1.6144    2.3688    6.7330 H   0  0  0  0  0  0  0  0  0  0  0  0
   -0.5014    0.8207    5.1698 H   0  0  0  0  0  0  0  0  0  0  0  0
    0.6572    2.0158    5.7052 H   0  0  0  0  0  0  0  0  0  0  0  0
    5.6915   -0.1267    3.0360 H   0  0  0  0  0  0  0  0  0  0  0  0
    5.3226   -1.7623    3.5709 H   0  0  0  0  0  0  0  0  0  0  0  0
    5.7345   -0.8519    0.8138 H   0  0  0  0  0  0  0  0  0  0  0  0
    5.2755   -2.5105    1.3530 H   0  0  0  0  0  0  0  0  0  0  0  0
    1.3627   -0.6717    0.7272 H   0  0  0  0  0  0  0  0  0  0  0  0
  1  2  1  0
  1  9  1  0
  1 15  1  0
  1 16  1  0
  2  3  1  0
  2 17  1  0
  2 18  1  0
  3  8  1  0
  3  4  1  0
  4  5  1  0
  4 19  1  0
  4 20  1  0
  5  6  1  0
  5 21  1  0
  5 22  1  0
  6  7  1  0
  7  8  1  0
  7 23  1  0
  7 24  1  0
  8 25  1  0
  8 26  1  0
  9 10  1  0
  9 31  1  0
 10 14  1  0
 10 11  2  0
 11 12  1  0
 12 13  1  0
 12 27  1  0
 12 28  1  0
 13 14  1  0
 13 29  1  0
 13 30  1  0
M  END
>  <i_m_ct_stereo_status>  (112) 
1

>  <s_m_source_file>  (112) 
/var/tmp/pbs.5076255.sched01/tmpkddd28mm/459jwin2qj.sdf

>  <i_m_source_file_index>  (112) 
1

>  <i_lp_mmshare_version>  (112) 
48012

>  <i_f3d_flags>  (112) 
0

>  <s_epik_input>  (112) 
TzFbQ0gyXVtDSDJdW05IXS9DMT1OXFtDSDJdW0NIMl1OMltDSDJdW0NIMl1PW0NIMl1bQ0gyXTI=

>  <s_epik_cmdline>  (112) 
J2VwaWtfcHl0aG9uJywgJy1waHQnLCAnMi4wJywgJy1waCcsICc3LjAnLCAnLXRuJywgJzgnLCAnLW1hJywgJzIwMCcsICctaW1hZScsICc8aW5maWxlLm1hZT4nLCAnLW9tYWUnLCAnPG91dGZpbGUubWFlPic=

>  <r_epik_Ionization_Penalty>  (112) 
2.21352

>  <r_epik_Ionization_Penalty_Charging>  (112) 
2.11868

>  <r_epik_Ionization_Penalty_Neutral>  (112) 
0.0948365

>  <r_epik_State_Penalty>  (112) 
1.73142

>  <r_epik_Charging_Adjusted_Penalty>  (112) 
3.85011

>  <i_epik_Tot_Q>  (112) 
0

>  <i_epik_Tot_abs_Q>  (112) 
0

>  <s_epik_Chemistry_Notes>  (112) 
This compound has an imine and may undergo hydrolysis.

>  <s_lp_Force_Field>  (112) 
OPLS3e

>  <r_lp_Energy>  (112) 
-3.14197

>  <b_lp_Chiralities_Consistent>  (112) 
1

>  <s_lp_Variant>  (112) 
36:0-2

>  <s_i_glide_gridfile>  (112) 
pfpi4k_grid

>  <i_i_glide_lignum>  (112) 
1

>  <i_i_glide_rotatable_bonds>  (112) 
4

>  <r_i_docking_score>  (112) 
-3.11264

>  <r_i_glide_ligand_efficiency>  (112) 
-0.222331

>  <r_i_glide_ligand_efficiency_sa>  (112) 
-0.53585

>  <r_i_glide_ligand_efficiency_ln>  (112) 
-0.855341

>  <r_i_glide_gscore>  (112) 
-3.11264

>  <r_i_glide_lipo>  (112) 
-0.205537

>  <r_i_glide_hbond>  (112) 
-0.16

>  <r_i_glide_metal>  (112) 
-0

>  <r_i_glide_rewards>  (112) 
-2.05057

>  <r_i_glide_evdw>  (112) 
-13.1866

>  <r_i_glide_ecoul>  (112) 
-4.92715

>  <r_i_glide_erotb>  (112) 
0.821794

>  <r_i_glide_esite>  (112) 
-0.119924

>  <r_i_glide_emodel>  (112) 
-18.114

>  <r_i_glide_energy>  (112) 
-18.1137

>  <r_i_glide_einternal>  (112) 
8.75331

>  <r_i_glide_intrahb_reward>  (112) 
-0

>  <i_i_glide_confnum>  (112) 
3

>  <i_i_glide_posenum>  (112) 
8

>  <r_i_glide_eff_state_penalty>  (112) 
0

>  <ligand_id>  (112) 
36

>  <original_smiles>  (112) 
C(CN1CCOCC1)N=C1NCCO1

>  <smiles>  (112) 
[H]N(C1=NC([H])([H])C([H])([H])O1)C([H])([H])C([H])([H])N1C([H])([H])C([H])([H])OC([H])([H])C1([H])[H]

$$$$
36:1:2
     RDKit          3D

 31 32  0  0  1  0  0  0  0  0999 V2000
   -0.6829    2.2356    2.9479 C   0  0  0  0  0  0  0  0  0  0  0  0
   -1.6017    2.8831    4.0211 C   0  0  0  0  0  0  0  0  0  0  0  0
   -2.7088    3.7125    3.5206 N   0  0  0  0  0  0  0  0  0  0  0  0
   -2.3035    4.7861    2.6333 C   0  0  0  0  0  0  0  0  0  0  0  0
   -3.5170    5.5906    2.0966 C   0  0  0  0  0  0  0  0  0  0  0  0
   -4.5408    4.7638    1.5357 O   0  0  0  0  0  0  0  0  0  0  0  0
   -4.9713    3.7313    2.4232 C   0  0  0  0  0  0  0  0  0  0  0  0
   -3.7640    2.9180    2.9111 C   0  0  0  0  0  0  0  0  0  0  0  0
    0.5922    2.9217    2.8839 N   0  0  0  0  0  0  0  0  0  0  0  0
    1.5427    2.8730    3.9085 C   0  0  0  0  0  0  0  0  0  0  0  0
    1.5194    2.2193    5.0058 N   0  0  0  0  0  0  0  0  0  0  0  0
    2.7263    2.5535    5.7161 C   0  0  0  0  0  0  0  0  0  0  0  0
    3.4798    3.5233    4.8041 C   0  0  0  0  0  0  0  0  0  0  0  0
    2.6244    3.6697    3.6895 O   0  0  0  0  0  0  0  0  0  0  0  0
   -0.5230    1.1709    3.1404 H   0  0  0  0  0  0  0  0  0  0  0  0
   -1.1046    2.2890    1.9286 H   0  0  0  0  0  0  0  0  0  0  0  0
   -2.0146    2.0773    4.6194 H   0  0  0  0  0  0  0  0  0  0  0  0
   -1.0323    3.4661    4.7409 H   0  0  0  0  0  0  0  0  0  0  0  0
   -1.5614    5.4062    3.1393 H   0  0  0  0  0  0  0  0  0  0  0  0
   -1.7825    4.3696    1.7790 H   0  0  0  0  0  0  0  0  0  0  0  0
   -4.0136    6.1683    2.8716 H   0  0  0  0  0  0  0  0  0  0  0  0
   -3.1603    6.2642    1.3219 H   0  0  0  0  0  0  0  0  0  0  0  0
   -5.5701    4.1322    3.2463 H   0  0  0  0  0  0  0  0  0  0  0  0
   -5.6282    3.0611    1.8802 H   0  0  0  0  0  0  0  0  0  0  0  0
   -3.3627    2.3280    2.0924 H   0  0  0  0  0  0  0  0  0  0  0  0
   -4.1120    2.2123    3.6562 H   0  0  0  0  0  0  0  0  0  0  0  0
    2.5048    3.0101    6.6868 H   0  0  0  0  0  0  0  0  0  0  0  0
    3.3202    1.6561    5.9237 H   0  0  0  0  0  0  0  0  0  0  0  0
    3.6571    4.4848    5.2870 H   0  0  0  0  0  0  0  0  0  0  0  0
    4.4300    3.0952    4.4865 H   0  0  0  0  0  0  0  0  0  0  0  0
    0.6155    3.5580    2.0758 H   0  0  0  0  0  0  0  0  0  0  0  0
  1  2  1  0
  1  9  1  0
  1 15  1  0
  1 16  1  0
  2  3  1  0
  2 17  1  0
  2 18  1  0
  3  8  1  0
  3  4  1  0
  4  5  1  0
  4 19  1  0
  4 20  1  0
  5  6  1  0
  5 21  1  0
  5 22  1  0
  6  7  1  0
  7  8  1  0
  7 23  1  0
  7 24  1  0
  8 25  1  0
  8 26  1  0
  9 10  1  0
  9 31  1  0
 10 14  1  0
 10 11  2  0
 11 12  1  0
 12 13  1  0
 12 27  1  0
 12 28  1  0
 13 14  1  0
 13 29  1  0
 13 30  1  0
M  END
>  <i_m_ct_stereo_status>  (113) 
1

>  <s_m_source_file>  (113) 
/var/tmp/pbs.5076255.sched01/tmpkddd28mm/459jwin2qj.sdf

>  <i_m_source_file_index>  (113) 
1

>  <i_lp_mmshare_version>  (113) 
48012

>  <i_f3d_flags>  (113) 
0

>  <s_epik_input>  (113) 
TzFbQ0gyXVtDSDJdW05IXS9DMT1OXFtDSDJdW0NIMl1OMltDSDJdW0NIMl1PW0NIMl1bQ0gyXTI=

>  <s_epik_cmdline>  (113) 
J2VwaWtfcHl0aG9uJywgJy1waHQnLCAnMi4wJywgJy1waCcsICc3LjAnLCAnLXRuJywgJzgnLCAnLW1hJywgJzIwMCcsICctaW1hZScsICc8aW5maWxlLm1hZT4nLCAnLW9tYWUnLCAnPG91dGZpbGUubWFlPic=

>  <r_epik_Ionization_Penalty>  (113) 
2.21352

>  <r_epik_Ionization_Penalty_Charging>  (113) 
2.11868

>  <r_epik_Ionization_Penalty_Neutral>  (113) 
0.0948365

>  <r_epik_State_Penalty>  (113) 
1.73142

>  <r_epik_Charging_Adjusted_Penalty>  (113) 
3.85011

>  <i_epik_Tot_Q>  (113) 
0

>  <i_epik_Tot_abs_Q>  (113) 
0

>  <s_epik_Chemistry_Notes>  (113) 
This compound has an imine and may undergo hydrolysis.

>  <s_lp_Force_Field>  (113) 
OPLS3e

>  <r_lp_Energy>  (113) 
-3.14197

>  <b_lp_Chiralities_Consistent>  (113) 
1

>  <s_lp_Variant>  (113) 
36:0-2

>  <s_i_glide_gridfile>  (113) 
pfpi4k_grid

>  <i_i_glide_lignum>  (113) 
1

>  <i_i_glide_rotatable_bonds>  (113) 
4

>  <r_i_docking_score>  (113) 
-2.90698

>  <r_i_glide_ligand_efficiency>  (113) 
-0.207642

>  <r_i_glide_ligand_efficiency_sa>  (113) 
-0.500446

>  <r_i_glide_ligand_efficiency_ln>  (113) 
-0.798829

>  <r_i_glide_gscore>  (113) 
-2.90698

>  <r_i_glide_lipo>  (113) 
-0.243656

>  <r_i_glide_hbond>  (113) 
-0.16

>  <r_i_glide_metal>  (113) 
-0

>  <r_i_glide_rewards>  (113) 
-2.05057

>  <r_i_glide_evdw>  (113) 
-5.94803

>  <r_i_glide_ecoul>  (113) 
-5.66879

>  <r_i_glide_erotb>  (113) 
0.821794

>  <r_i_glide_esite>  (113) 
-0.126834

>  <r_i_glide_emodel>  (113) 
-8.93003

>  <r_i_glide_energy>  (113) 
-11.6168

>  <r_i_glide_einternal>  (113) 
14.2596

>  <r_i_glide_intrahb_reward>  (113) 
-0

>  <i_i_glide_confnum>  (113) 
3

>  <i_i_glide_posenum>  (113) 
36

>  <r_i_glide_eff_state_penalty>  (113) 
0

>  <ligand_id>  (113) 
36

>  <original_smiles>  (113) 
C(CN1CCOCC1)N=C1NCCO1

>  <smiles>  (113) 
[H]N(C1=NC([H])([H])C([H])([H])O1)C([H])([H])C([H])([H])N1C([H])([H])C([H])([H])OC([H])([H])C1([H])[H]

$$$$
36:2:0
     RDKit          3D

 32 33  0  0  1  0  0  0  0  0999 V2000
    3.8430   -2.8512   -2.4600 C   0  0  0  0  0  0  0  0  0  0  0  0
    3.4971   -3.5116   -1.1219 C   0  0  0  0  0  0  0  0  0  0  0  0
    3.2160   -2.5376   -0.0254 N   0  0  0  0  0  0  0  0  0  0  0  0
    2.7357   -3.2075    1.2112 C   0  0  0  0  0  0  0  0  0  0  0  0
    2.4243   -2.1612    2.2920 C   0  0  0  0  0  0  0  0  0  0  0  0
    3.5808   -1.3776    2.5323 O   0  0  0  0  0  0  0  0  0  0  0  0
    4.0020   -0.6561    1.3863 C   0  0  0  0  0  0  0  0  0  0  0  0
    4.3697   -1.6468    0.2784 C   0  0  0  0  0  0  0  0  0  0  0  0
    2.9999   -1.7087   -2.7646 N   0  0  0  0  0  0  0  0  0  0  0  0
    3.2551   -0.8561   -3.8129 C   0  0  0  0  0  0  0  0  0  0  0  0
    4.1745   -0.8820   -4.6998 N   0  0  0  0  0  0  0  0  0  0  0  0
    3.8782    0.2375   -5.5540 C   0  0  0  0  0  0  0  0  0  0  0  0
    2.6400    0.9191   -5.0435 C   0  0  0  0  0  0  0  0  0  0  0  0
    2.3734    0.1439   -3.9107 O   0  0  0  0  0  0  0  0  0  0  0  0
    4.8789   -2.5160   -2.4307 H   0  0  0  0  0  0  0  0  0  0  0  0
    3.7782   -3.5864   -3.2615 H   0  0  0  0  0  0  0  0  0  0  0  0
    2.6322   -4.1658   -1.2679 H   0  0  0  0  0  0  0  0  0  0  0  0
    4.3255   -4.1726   -0.8380 H   0  0  0  0  0  0  0  0  0  0  0  0
    1.8503   -3.8009    1.0014 H   0  0  0  0  0  0  0  0  0  0  0  0
    3.4978   -3.9011    1.5707 H   0  0  0  0  0  0  0  0  0  0  0  0
    1.5846   -1.5319    2.0045 H   0  0  0  0  0  0  0  0  0  0  0  0
    2.1459   -2.6637    3.2188 H   0  0  0  0  0  0  0  0  0  0  0  0
    3.2307    0.0349    1.0536 H   0  0  0  0  0  0  0  0  0  0  0  0
    4.8792   -0.0612    1.6410 H   0  0  0  0  0  0  0  0  0  0  0  0
    5.2236   -2.2560    0.5808 H   0  0  0  0  0  0  0  0  0  0  0  0
    4.6777   -1.0791   -0.5976 H   0  0  0  0  0  0  0  0  0  0  0  0
    4.7017    0.9413   -5.5190 H   0  0  0  0  0  0  0  0  0  0  0  0
    3.7599   -0.0902   -6.5868 H   0  0  0  0  0  0  0  0  0  0  0  0
    2.8244    1.9642   -4.8025 H   0  0  0  0  0  0  0  0  0  0  0  0
    1.8235    0.8697   -5.7469 H   0  0  0  0  0  0  0  0  0  0  0  0
    2.1471   -1.5800   -2.2212 H   0  0  0  0  0  0  0  0  0  0  0  0
    2.4517   -1.9336   -0.3137 H   0  0  0  0  0  0  0  0  0  0  0  0
  1  2  1  0
  1  9  1  0
  1 15  1  0
  1 16  1  0
  2  3  1  0
  2 17  1  0
  2 18  1  0
  3  8  1  0
  3  4  1  0
  3 32  1  0
  4  5  1  0
  4 19  1  0
  4 20  1  0
  5  6  1  0
  5 21  1  0
  5 22  1  0
  6  7  1  0
  7  8  1  0
  7 23  1  0
  7 24  1  0
  8 25  1  0
  8 26  1  0
  9 10  1  0
  9 31  1  0
 10 14  1  0
 10 11  2  0
 11 12  1  0
 12 13  1  0
 12 27  1  0
 12 28  1  0
 13 14  1  0
 13 29  1  0
 13 30  1  0
M  CHG  1   3   1
M  END
>  <i_m_ct_stereo_status>  (114) 
1

>  <s_m_source_file>  (114) 
/var/tmp/pbs.5076255.sched01/tmpkddd28mm/459jwin2qj.sdf

>  <i_m_source_file_index>  (114) 
2

>  <i_lp_mmshare_version>  (114) 
48012

>  <i_f3d_flags>  (114) 
0

>  <s_epik_input>  (114) 
TzFbQ0gyXVtDSDJdW05IXS9DMT1OXFtDSDJdW0NIMl1OMltDSDJdW0NIMl1PW0NIMl1bQ0gyXTI=

>  <s_epik_cmdline>  (114) 
J2VwaWtfcHl0aG9uJywgJy1waHQnLCAnMi4wJywgJy1waCcsICc3LjAnLCAnLXRuJywgJzgnLCAnLW1hJywgJzIwMCcsICctaW1hZScsICc8aW5maWxlLm1hZT4nLCAnLW9tYWUnLCAnPG91dGZpbGUubWFlPic=

>  <r_epik_Ionization_Penalty>  (114) 
1.21599

>  <r_epik_Ionization_Penalty_Charging>  (114) 
1.21599

>  <r_epik_Ionization_Penalty_Neutral>  (114) 
1.5787e-15

>  <r_epik_State_Penalty>  (114) 
2.27117

>  <r_epik_Charging_Adjusted_Penalty>  (114) 
3.48716

>  <i_epik_Tot_Q>  (114) 
1

>  <i_epik_Tot_abs_Q>  (114) 
1

>  <s_epik_Chemistry_Notes>  (114) 
This compound has an imine and may undergo hydrolysis.

>  <s_lp_Force_Field>  (114) 
OPLS3e

>  <r_lp_Energy>  (114) 
2.76291

>  <b_lp_Chiralities_Consistent>  (114) 
1

>  <s_lp_Variant>  (114) 
36:0-3

>  <s_i_glide_gridfile>  (114) 
pfpi4k_grid

>  <i_i_glide_lignum>  (114) 
2

>  <i_i_glide_rotatable_bonds>  (114) 
4

>  <r_i_docking_score>  (114) 
-4.14068

>  <r_i_glide_ligand_efficiency>  (114) 
-0.295763

>  <r_i_glide_ligand_efficiency_sa>  (114) 
-0.712831

>  <r_i_glide_ligand_efficiency_ln>  (114) 
-1.13784

>  <r_i_glide_gscore>  (114) 
-4.14068

>  <r_i_glide_lipo>  (114) 
-0.106045

>  <r_i_glide_hbond>  (114) 
-0.602112

>  <r_i_glide_metal>  (114) 
-0

>  <r_i_glide_rewards>  (114) 
-2.33755

>  <r_i_glide_evdw>  (114) 
-8.53469

>  <r_i_glide_ecoul>  (114) 
-9.27924

>  <r_i_glide_erotb>  (114) 
0.814913

>  <r_i_glide_esite>  (114) 
-0.0912667

>  <r_i_glide_emodel>  (114) 
-20.1583

>  <r_i_glide_energy>  (114) 
-17.8139

>  <r_i_glide_einternal>  (114) 
7.34512

>  <r_i_glide_intrahb_reward>  (114) 
-0

>  <i_i_glide_confnum>  (114) 
4

>  <i_i_glide_posenum>  (114) 
5

>  <r_i_glide_eff_state_penalty>  (114) 
0

>  <ligand_id>  (114) 
36

>  <original_smiles>  (114) 
C(CN1CCOCC1)N=C1NCCO1

>  <smiles>  (114) 
[H]N(C1=NC([H])([H])C([H])([H])O1)C([H])([H])C([H])([H])[N+]1([H])C([H])([H])C([H])([H])OC([H])([H])C1([H])[H]

$$$$
36:2:1
     RDKit          3D

 32 33  0  0  1  0  0  0  0  0999 V2000
    2.6211   -3.0695   -2.2384 C   0  0  0  0  0  0  0  0  0  0  0  0
    2.6475   -3.7956   -0.8846 C   0  0  0  0  0  0  0  0  0  0  0  0
    3.9942   -4.3153   -0.5010 N   0  0  0  0  0  0  0  0  0  0  0  0
    4.9502   -3.2591   -0.0525 C   0  0  0  0  0  0  0  0  0  0  0  0
    6.3001   -3.8483    0.3430 C   0  0  0  0  0  0  0  0  0  0  0  0
    6.1267   -4.8167    1.3630 O   0  0  0  0  0  0  0  0  0  0  0  0
    5.2983   -5.8899    0.9385 C   0  0  0  0  0  0  0  0  0  0  0  0
    3.8992   -5.3701    0.5432 C   0  0  0  0  0  0  0  0  0  0  0  0
    3.4581   -1.8881   -2.2322 N   0  0  0  0  0  0  0  0  0  0  0  0
    3.5203   -0.9633   -3.2411 C   0  0  0  0  0  0  0  0  0  0  0  0
    4.1829    0.1258   -3.2903 N   0  0  0  0  0  0  0  0  0  0  0  0
    3.8793    0.7411   -4.5464 C   0  0  0  0  0  0  0  0  0  0  0  0
    2.9590   -0.2568   -5.2722 C   0  0  0  0  0  0  0  0  0  0  0  0
    2.8021   -1.2979   -4.3201 O   0  0  0  0  0  0  0  0  0  0  0  0
    2.9375   -3.7383   -3.0449 H   0  0  0  0  0  0  0  0  0  0  0  0
    1.5908   -2.7690   -2.4629 H   0  0  0  0  0  0  0  0  0  0  0  0
    2.2595   -3.1484   -0.0968 H   0  0  0  0  0  0  0  0  0  0  0  0
    1.9506   -4.6266   -0.9690 H   0  0  0  0  0  0  0  0  0  0  0  0
    5.2149   -2.5445   -0.8312 H   0  0  0  0  0  0  0  0  0  0  0  0
    4.5067   -2.7171    0.7878 H   0  0  0  0  0  0  0  0  0  0  0  0
    6.7807   -4.2679   -0.5396 H   0  0  0  0  0  0  0  0  0  0  0  0
    6.9348   -3.0320    0.6890 H   0  0  0  0  0  0  0  0  0  0  0  0
    5.7631   -6.4093    0.1007 H   0  0  0  0  0  0  0  0  0  0  0  0
    5.2238   -6.5953    1.7681 H   0  0  0  0  0  0  0  0  0  0  0  0
    3.4088   -4.9568    1.4244 H   0  0  0  0  0  0  0  0  0  0  0  0
    3.2841   -6.2063    0.2059 H   0  0  0  0  0  0  0  0  0  0  0  0
    3.4168    1.7197   -4.4075 H   0  0  0  0  0  0  0  0  0  0  0  0
    4.7696    0.9305   -5.1329 H   0  0  0  0  0  0  0  0  0  0  0  0
    1.9859    0.1840   -5.4973 H   0  0  0  0  0  0  0  0  0  0  0  0
    3.4216   -0.6142   -6.1970 H   0  0  0  0  0  0  0  0  0  0  0  0
    3.9874   -1.7170   -1.3892 H   0  0  0  0  0  0  0  0  0  0  0  0
    4.3676   -4.7828   -1.3185 H   0  0  0  0  0  0  0  0  0  0  0  0
  1  2  1  0
  1  9  1  0
  1 15  1  0
  1 16  1  0
  2  3  1  0
  2 17  1  0
  2 18  1  0
  3  8  1  0
  3  4  1  0
  3 32  1  0
  4  5  1  0
  4 19  1  0
  4 20  1  0
  5  6  1  0
  5 21  1  0
  5 22  1  0
  6  7  1  0
  7  8  1  0
  7 23  1  0
  7 24  1  0
  8 25  1  0
  8 26  1  0
  9 10  1  0
  9 31  1  0
 10 14  1  0
 10 11  2  0
 11 12  1  0
 12 13  1  0
 12 27  1  0
 12 28  1  0
 13 14  1  0
 13 29  1  0
 13 30  1  0
M  CHG  1   3   1
M  END
>  <i_m_ct_stereo_status>  (115) 
1

>  <s_m_source_file>  (115) 
/var/tmp/pbs.5076255.sched01/tmpkddd28mm/459jwin2qj.sdf

>  <i_m_source_file_index>  (115) 
2

>  <i_lp_mmshare_version>  (115) 
48012

>  <i_f3d_flags>  (115) 
0

>  <s_epik_input>  (115) 
TzFbQ0gyXVtDSDJdW05IXS9DMT1OXFtDSDJdW0NIMl1OMltDSDJdW0NIMl1PW0NIMl1bQ0gyXTI=

>  <s_epik_cmdline>  (115) 
J2VwaWtfcHl0aG9uJywgJy1waHQnLCAnMi4wJywgJy1waCcsICc3LjAnLCAnLXRuJywgJzgnLCAnLW1hJywgJzIwMCcsICctaW1hZScsICc8aW5maWxlLm1hZT4nLCAnLW9tYWUnLCAnPG91dGZpbGUubWFlPic=

>  <r_epik_Ionization_Penalty>  (115) 
1.21599

>  <r_epik_Ionization_Penalty_Charging>  (115) 
1.21599

>  <r_epik_Ionization_Penalty_Neutral>  (115) 
1.5787e-15

>  <r_epik_State_Penalty>  (115) 
2.27117

>  <r_epik_Charging_Adjusted_Penalty>  (115) 
3.48716

>  <i_epik_Tot_Q>  (115) 
1

>  <i_epik_Tot_abs_Q>  (115) 
1

>  <s_epik_Chemistry_Notes>  (115) 
This compound has an imine and may undergo hydrolysis.

>  <s_lp_Force_Field>  (115) 
OPLS3e

>  <r_lp_Energy>  (115) 
2.76291

>  <b_lp_Chiralities_Consistent>  (115) 
1

>  <s_lp_Variant>  (115) 
36:0-3

>  <s_i_glide_gridfile>  (115) 
pfpi4k_grid

>  <i_i_glide_lignum>  (115) 
2

>  <i_i_glide_rotatable_bonds>  (115) 
4

>  <r_i_docking_score>  (115) 
-3.0573

>  <r_i_glide_ligand_efficiency>  (115) 
-0.218379

>  <r_i_glide_ligand_efficiency_sa>  (115) 
-0.526324

>  <r_i_glide_ligand_efficiency_ln>  (115) 
-0.840136

>  <r_i_glide_gscore>  (115) 
-3.0573

>  <r_i_glide_lipo>  (115) 
-0.385482

>  <r_i_glide_hbond>  (115) 
0

>  <r_i_glide_metal>  (115) 
-0

>  <r_i_glide_rewards>  (115) 
-2.18583

>  <r_i_glide_evdw>  (115) 
-16.8063

>  <r_i_glide_ecoul>  (115) 
-2.53894

>  <r_i_glide_erotb>  (115) 
0.814913

>  <r_i_glide_esite>  (115) 
-0.0797466

>  <r_i_glide_emodel>  (115) 
-19.0438

>  <r_i_glide_energy>  (115) 
-19.3453

>  <r_i_glide_einternal>  (115) 
8.17047

>  <r_i_glide_intrahb_reward>  (115) 
-0

>  <i_i_glide_confnum>  (115) 
4

>  <i_i_glide_posenum>  (115) 
1

>  <r_i_glide_eff_state_penalty>  (115) 
0

>  <ligand_id>  (115) 
36

>  <original_smiles>  (115) 
C(CN1CCOCC1)N=C1NCCO1

>  <smiles>  (115) 
[H]N(C1=NC([H])([H])C([H])([H])O1)C([H])([H])C([H])([H])[N+]1([H])C([H])([H])C([H])([H])OC([H])([H])C1([H])[H]

$$$$
36:2:2
     RDKit          3D

 32 33  0  0  1  0  0  0  0  0999 V2000
    2.3800   -3.2288   -2.1004 C   0  0  0  0  0  0  0  0  0  0  0  0
    3.6883   -2.4632   -2.2360 C   0  0  0  0  0  0  0  0  0  0  0  0
    3.4792   -1.2838   -3.0972 N   0  0  0  0  0  0  0  0  0  0  0  0
    4.4339   -0.2429   -2.7562 C   0  0  0  0  0  0  0  0  0  0  0  0
    4.2539    0.9085   -3.7604 C   0  0  0  0  0  0  0  0  0  0  0  0
    4.2255    0.5652   -5.0933 O   0  0  0  0  0  0  0  0  0  0  0  0
    3.3053   -0.4121   -5.4448 C   0  0  0  0  0  0  0  0  0  0  0  0
    3.5560   -1.6312   -4.5356 C   0  0  0  0  0  0  0  0  0  0  0  0
    2.4341   -4.1351   -0.9696 N   0  0  0  0  0  0  0  0  0  0  0  0
    2.6242   -3.7710    0.3392 C   0  0  0  0  0  0  0  0  0  0  0  0
    2.6202   -4.5375    1.3918 N   0  0  0  0  0  0  0  0  0  0  0  0
    2.7373   -3.6519    2.5188 C   0  0  0  0  0  0  0  0  0  0  0  0
    2.8922   -2.2379    1.9332 C   0  0  0  0  0  0  0  0  0  0  0  0
    2.7578   -2.4503    0.5581 O   0  0  0  0  0  0  0  0  0  0  0  0
    1.5103   -2.5892   -2.0038 H   0  0  0  0  0  0  0  0  0  0  0  0
    2.2067   -3.8155   -3.0066 H   0  0  0  0  0  0  0  0  0  0  0  0
    4.0672   -2.0936   -1.2825 H   0  0  0  0  0  0  0  0  0  0  0  0
    4.4986   -3.1203   -2.5776 H   0  0  0  0  0  0  0  0  0  0  0  0
    4.3090    0.1462   -1.7489 H   0  0  0  0  0  0  0  0  0  0  0  0
    5.4090   -0.7216   -2.7497 H   0  0  0  0  0  0  0  0  0  0  0  0
    3.3395    1.3451   -3.7952 H   0  0  0  0  0  0  0  0  0  0  0  0
    4.9563    1.7336   -3.6103 H   0  0  0  0  0  0  0  0  0  0  0  0
    2.3060    0.0078   -5.3524 H   0  0  0  0  0  0  0  0  0  0  0  0
    3.4968   -0.6369   -6.4925 H   0  0  0  0  0  0  0  0  0  0  0  0
    4.5525   -2.0515   -4.7091 H   0  0  0  0  0  0  0  0  0  0  0  0
    2.8199   -2.4029   -4.7202 H   0  0  0  0  0  0  0  0  0  0  0  0
    1.8525   -3.6943    3.1590 H   0  0  0  0  0  0  0  0  0  0  0  0
    3.6037   -3.9280    3.1183 H   0  0  0  0  0  0  0  0  0  0  0  0
    2.1249   -1.5366    2.2692 H   0  0  0  0  0  0  0  0  0  0  0  0
    3.8841   -1.8267    2.1186 H   0  0  0  0  0  0  0  0  0  0  0  0
    2.3095   -5.0860   -1.2958 H   0  0  0  0  0  0  0  0  0  0  0  0
    2.5671   -0.8698   -2.8999 H   0  0  0  0  0  0  0  0  0  0  0  0
  1  2  1  0
  1  9  1  0
  1 15  1  0
  1 16  1  0
  2  3  1  0
  2 17  1  0
  2 18  1  0
  3  8  1  0
  3  4  1  0
  3 32  1  0
  4  5  1  0
  4 19  1  0
  4 20  1  0
  5  6  1  0
  5 21  1  0
  5 22  1  0
  6  7  1  0
  7  8  1  0
  7 23  1  0
  7 24  1  0
  8 25  1  0
  8 26  1  0
  9 10  1  0
  9 31  1  0
 10 14  1  0
 10 11  2  0
 11 12  1  0
 12 13  1  0
 12 27  1  0
 12 28  1  0
 13 14  1  0
 13 29  1  0
 13 30  1  0
M  CHG  1   3   1
M  END
>  <i_m_ct_stereo_status>  (116) 
1

>  <s_m_source_file>  (116) 
/var/tmp/pbs.5076255.sched01/tmpkddd28mm/459jwin2qj.sdf

>  <i_m_source_file_index>  (116) 
2

>  <i_lp_mmshare_version>  (116) 
48012

>  <i_f3d_flags>  (116) 
0

>  <s_epik_input>  (116) 
TzFbQ0gyXVtDSDJdW05IXS9DMT1OXFtDSDJdW0NIMl1OMltDSDJdW0NIMl1PW0NIMl1bQ0gyXTI=

>  <s_epik_cmdline>  (116) 
J2VwaWtfcHl0aG9uJywgJy1waHQnLCAnMi4wJywgJy1waCcsICc3LjAnLCAnLXRuJywgJzgnLCAnLW1hJywgJzIwMCcsICctaW1hZScsICc8aW5maWxlLm1hZT4nLCAnLW9tYWUnLCAnPG91dGZpbGUubWFlPic=

>  <r_epik_Ionization_Penalty>  (116) 
1.21599

>  <r_epik_Ionization_Penalty_Charging>  (116) 
1.21599

>  <r_epik_Ionization_Penalty_Neutral>  (116) 
1.5787e-15

>  <r_epik_State_Penalty>  (116) 
2.27117

>  <r_epik_Charging_Adjusted_Penalty>  (116) 
3.48716

>  <i_epik_Tot_Q>  (116) 
1

>  <i_epik_Tot_abs_Q>  (116) 
1

>  <s_epik_Chemistry_Notes>  (116) 
This compound has an imine and may undergo hydrolysis.

>  <s_lp_Force_Field>  (116) 
OPLS3e

>  <r_lp_Energy>  (116) 
2.76291

>  <b_lp_Chiralities_Consistent>  (116) 
1

>  <s_lp_Variant>  (116) 
36:0-3

>  <s_i_glide_gridfile>  (116) 
pfpi4k_grid

>  <i_i_glide_lignum>  (116) 
2

>  <i_i_glide_rotatable_bonds>  (116) 
4

>  <r_i_docking_score>  (116) 
-2.89336

>  <r_i_glide_ligand_efficiency>  (116) 
-0.206669

>  <r_i_glide_ligand_efficiency_sa>  (116) 
-0.498101

>  <r_i_glide_ligand_efficiency_ln>  (116) 
-0.795086

>  <r_i_glide_gscore>  (116) 
-2.89336

>  <r_i_glide_lipo>  (116) 
-0.21627

>  <r_i_glide_hbond>  (116) 
-0.243713

>  <r_i_glide_metal>  (116) 
-0

>  <r_i_glide_rewards>  (116) 
-2.0987

>  <r_i_glide_evdw>  (116) 
-1.12932

>  <r_i_glide_ecoul>  (116) 
-6.74577

>  <r_i_glide_erotb>  (116) 
0.814913

>  <r_i_glide_esite>  (116) 
-0.0812611

>  <r_i_glide_emodel>  (116) 
-8.64073

>  <r_i_glide_energy>  (116) 
-7.87509

>  <r_i_glide_einternal>  (116) 
3.4428

>  <r_i_glide_intrahb_reward>  (116) 
-0

>  <i_i_glide_confnum>  (116) 
3

>  <i_i_glide_posenum>  (116) 
15

>  <r_i_glide_eff_state_penalty>  (116) 
0

>  <ligand_id>  (116) 
36

>  <original_smiles>  (116) 
C(CN1CCOCC1)N=C1NCCO1

>  <smiles>  (116) 
[H]N(C1=NC([H])([H])C([H])([H])O1)C([H])([H])C([H])([H])[N+]1([H])C([H])([H])C([H])([H])OC([H])([H])C1([H])[H]

$$$$
37:0:0
     RDKit          3D

 28 30  0  0  1  0  0  0  0  0999 V2000
    4.2164   -1.3761   -4.3963 O   0  0  0  0  0  0  0  0  0  0  0  0
    4.2071   -2.4630   -3.7744 C   0  0  0  0  0  0  0  0  0  0  0  0
    4.0479   -3.5749   -4.3203 O   0  0  0  0  0  0  0  0  0  0  0  0
    4.4566   -2.4640   -2.2488 C   0  0  1  0  0  0  0  0  0  0  0  0
    4.8495   -1.0523   -1.7439 C   0  0  0  0  0  0  0  0  0  0  0  0
    5.0926   -1.0779   -0.2234 C   0  0  2  0  0  0  0  0  0  0  0  0
    6.2327   -2.0609    0.1095 C   0  0  0  0  0  0  0  0  0  0  0  0
    5.8461   -3.4734   -0.3843 C   0  0  1  0  0  0  0  0  0  0  0  0
    4.5550   -3.9332    0.3275 C   0  0  0  0  0  0  0  0  0  0  0  0
    3.4157   -2.9417    0.0088 C   0  0  1  0  0  0  0  0  0  0  0  0
    3.7969   -1.5250    0.4850 C   0  0  0  0  0  0  0  0  0  0  0  0
    3.1699   -2.9183   -1.5144 C   0  0  0  0  0  0  0  0  0  0  0  0
    5.6059   -3.4480   -1.9067 C   0  0  0  0  0  0  0  0  0  0  0  0
    5.7497   -0.7056   -2.2507 H   0  0  0  0  0  0  0  0  0  0  0  0
    4.0653   -0.3262   -1.9727 H   0  0  0  0  0  0  0  0  0  0  0  0
    5.3605   -0.0791    0.1190 H   0  0  0  0  0  0  0  0  0  0  0  0
    7.1585   -1.7466   -0.3686 H   0  0  0  0  0  0  0  0  0  0  0  0
    6.4254   -2.0725    1.1843 H   0  0  0  0  0  0  0  0  0  0  0  0
    6.6516   -4.1713   -0.1532 H   0  0  0  0  0  0  0  0  0  0  0  0
    4.2818   -4.9340   -0.0107 H   0  0  0  0  0  0  0  0  0  0  0  0
    4.7189   -4.0011    1.4058 H   0  0  0  0  0  0  0  0  0  0  0  0
    2.5065   -3.2591    0.5182 H   0  0  0  0  0  0  0  0  0  0  0  0
    3.9172   -1.4960    1.5692 H   0  0  0  0  0  0  0  0  0  0  0  0
    2.9911   -0.8252    0.2405 H   0  0  0  0  0  0  0  0  0  0  0  0
    2.3389   -2.2548   -1.7549 H   0  0  0  0  0  0  0  0  0  0  0  0
    2.8612   -3.9049   -1.8537 H   0  0  0  0  0  0  0  0  0  0  0  0
    5.3625   -4.4551   -2.2526 H   0  0  0  0  0  0  0  0  0  0  0  0
    6.5210   -3.1613   -2.4299 H   0  0  0  0  0  0  0  0  0  0  0  0
  1  2  2  0
  2  3  1  0
  4  2  1  6
  4 12  1  0
  4 13  1  0
  4  5  1  0
  5  6  1  0
  5 14  1  0
  5 15  1  0
  6 11  1  0
  6  7  1  0
  6 16  1  1
  7  8  1  0
  7 17  1  0
  7 18  1  0
  8  9  1  0
  8 13  1  0
  8 19  1  6
  9 10  1  0
  9 20  1  0
  9 21  1  0
 10 11  1  0
 10 12  1  0
 10 22  1  1
 11 23  1  0
 11 24  1  0
 12 25  1  0
 12 26  1  0
 13 27  1  0
 13 28  1  0
M  CHG  1   3  -1
M  END
>  <i_m_ct_stereo_status>  (117) 
1

>  <s_m_source_file>  (117) 
/var/tmp/pbs.5076255.sched01/tmpkddd28mm/459jwin2qj.sdf

>  <i_m_source_file_index>  (117) 
3

>  <i_lp_mmshare_version>  (117) 
48012

>  <i_f3d_flags>  (117) 
0

>  <s_epik_input>  (117) 
Tz1DKFtPSF0pQzEyW0NIMl1bQ0BIXTNbQ0gyXVtDQEBIXShbQ0gyXTIpW0NIMl1bQ0BIXShbQ0gyXTMpW0NIMl0x

>  <s_epik_cmdline>  (117) 
J2VwaWtfcHl0aG9uJywgJy1waHQnLCAnMi4wJywgJy1waCcsICc3LjAnLCAnLXRuJywgJzgnLCAnLW1hJywgJzIwMCcsICctaW1hZScsICc8aW5maWxlLm1hZT4nLCAnLW9tYWUnLCAnPG91dGZpbGUubWFlPic=

>  <r_epik_Ionization_Penalty>  (117) 
0.00908834

>  <r_epik_Ionization_Penalty_Charging>  (117) 
0.00908834

>  <r_epik_Ionization_Penalty_Neutral>  (117) 
0

>  <r_epik_State_Penalty>  (117) 
0.00688369

>  <r_epik_Charging_Adjusted_Penalty>  (117) 
0.015972

>  <i_epik_Tot_Q>  (117) 
-1

>  <i_epik_Tot_abs_Q>  (117) 
1

>  <s_lp_Force_Field>  (117) 
OPLS3e

>  <r_lp_Energy>  (117) 
11.5398

>  <b_lp_Chiralities_Consistent>  (117) 
1

>  <s_lp_Variant>  (117) 
37:0-1

>  <s_i_glide_gridfile>  (117) 
pfpi4k_grid

>  <i_i_glide_lignum>  (117) 
3

>  <i_i_glide_rotatable_bonds>  (117) 
1

>  <r_i_docking_score>  (117) 
-4.10531

>  <r_i_glide_ligand_efficiency>  (117) 
-0.315793

>  <r_i_glide_ligand_efficiency_sa>  (117) 
-0.742535

>  <r_i_glide_ligand_efficiency_ln>  (117) 
-1.15158

>  <r_i_glide_gscore>  (117) 
-4.10531

>  <r_i_glide_lipo>  (117) 
-0.318888

>  <r_i_glide_hbond>  (117) 
-0.216446

>  <r_i_glide_metal>  (117) 
-0

>  <r_i_glide_rewards>  (117) 
-2.32988

>  <r_i_glide_evdw>  (117) 
-18.2154

>  <r_i_glide_ecoul>  (117) 
-2.19554

>  <r_i_glide_erotb>  (117) 
0

>  <r_i_glide_esite>  (117) 
0

>  <r_i_glide_emodel>  (117) 
-27.2155

>  <r_i_glide_energy>  (117) 
-20.4109

>  <r_i_glide_einternal>  (117) 
0.0834632

>  <r_i_glide_intrahb_reward>  (117) 
-0

>  <i_i_glide_confnum>  (117) 
2

>  <i_i_glide_posenum>  (117) 
1

>  <r_i_glide_eff_state_penalty>  (117) 
0

>  <ligand_id>  (117) 
37

>  <original_smiles>  (117) 
O=C(O)C12CC3CC(CC(C3)C1)C2

>  <smiles>  (117) 
[H]C1([H])C2([H])C([H])([H])C3([H])C([H])([H])C1([H])C([H])([H])C(C(=O)[O-])(C2([H])[H])C3([H])[H]

$$$$
37:0:1
     RDKit          3D

 28 30  0  0  1  0  0  0  0  0999 V2000
    1.3581   -5.8172    0.1235 O   0  0  0  0  0  0  0  0  0  0  0  0
    2.2169   -5.4527    0.9619 C   0  0  0  0  0  0  0  0  0  0  0  0
    2.2607   -5.8881    2.1319 O   0  0  0  0  0  0  0  0  0  0  0  0
    3.2426   -4.3584    0.5649 C   0  0  1  0  0  0  0  0  0  0  0  0
    2.7810   -3.5598   -0.6881 C   0  0  0  0  0  0  0  0  0  0  0  0
    3.8422   -2.5001   -1.0634 C   0  0  2  0  0  0  0  0  0  0  0  0
    5.1832   -3.1979   -1.3770 C   0  0  0  0  0  0  0  0  0  0  0  0
    5.6528   -3.9752   -0.1285 C   0  0  1  0  0  0  0  0  0  0  0  0
    5.8476   -2.9989    1.0467 C   0  0  0  0  0  0  0  0  0  0  0  0
    4.5083   -2.2953    1.3495 C   0  0  1  0  0  0  0  0  0  0  0  0
    4.0217   -1.5169    0.1090 C   0  0  0  0  0  0  0  0  0  0  0  0
    3.4540   -3.3550    1.7381 C   0  0  0  0  0  0  0  0  0  0  0  0
    4.5979   -5.0431    0.2457 C   0  0  0  0  0  0  0  0  0  0  0  0
    2.6214   -4.2369   -1.5285 H   0  0  0  0  0  0  0  0  0  0  0  0
    1.8289   -3.0609   -0.5006 H   0  0  0  0  0  0  0  0  0  0  0  0
    3.5036   -1.9484   -1.9411 H   0  0  0  0  0  0  0  0  0  0  0  0
    5.0630   -3.8808   -2.2190 H   0  0  0  0  0  0  0  0  0  0  0  0
    5.9347   -2.4660   -1.6734 H   0  0  0  0  0  0  0  0  0  0  0  0
    6.6024   -4.4681   -0.3335 H   0  0  0  0  0  0  0  0  0  0  0  0
    6.1903   -3.5430    1.9298 H   0  0  0  0  0  0  0  0  0  0  0  0
    6.6209   -2.2685    0.8093 H   0  0  0  0  0  0  0  0  0  0  0  0
    4.6466   -1.6018    2.1787 H   0  0  0  0  0  0  0  0  0  0  0  0
    4.7274   -0.7283   -0.1486 H   0  0  0  0  0  0  0  0  0  0  0  0
    3.0747   -1.0242    0.3255 H   0  0  0  0  0  0  0  0  0  0  0  0
    2.5147   -2.8635    1.9946 H   0  0  0  0  0  0  0  0  0  0  0  0
    3.7857   -3.8722    2.6408 H   0  0  0  0  0  0  0  0  0  0  0  0
    4.9427   -5.6193    1.1067 H   0  0  0  0  0  0  0  0  0  0  0  0
    4.4821   -5.7569   -0.5742 H   0  0  0  0  0  0  0  0  0  0  0  0
  1  2  2  0
  2  3  1  0
  4  2  1  1
  4 12  1  0
  4 13  1  0
  4  5  1  0
  5  6  1  0
  5 14  1  0
  5 15  1  0
  6 11  1  0
  6  7  1  0
  6 16  1  6
  7  8  1  0
  7 17  1  0
  7 18  1  0
  8  9  1  0
  8 13  1  0
  8 19  1  6
  9 10  1  0
  9 20  1  0
  9 21  1  0
 10 11  1  0
 10 12  1  0
 10 22  1  1
 11 23  1  0
 11 24  1  0
 12 25  1  0
 12 26  1  0
 13 27  1  0
 13 28  1  0
M  CHG  1   3  -1
M  END
>  <i_m_ct_stereo_status>  (118) 
1

>  <s_m_source_file>  (118) 
/var/tmp/pbs.5076255.sched01/tmpkddd28mm/459jwin2qj.sdf

>  <i_m_source_file_index>  (118) 
3

>  <i_lp_mmshare_version>  (118) 
48012

>  <i_f3d_flags>  (118) 
0

>  <s_epik_input>  (118) 
Tz1DKFtPSF0pQzEyW0NIMl1bQ0BIXTNbQ0gyXVtDQEBIXShbQ0gyXTIpW0NIMl1bQ0BIXShbQ0gyXTMpW0NIMl0x

>  <s_epik_cmdline>  (118) 
J2VwaWtfcHl0aG9uJywgJy1waHQnLCAnMi4wJywgJy1waCcsICc3LjAnLCAnLXRuJywgJzgnLCAnLW1hJywgJzIwMCcsICctaW1hZScsICc8aW5maWxlLm1hZT4nLCAnLW9tYWUnLCAnPG91dGZpbGUubWFlPic=

>  <r_epik_Ionization_Penalty>  (118) 
0.00908834

>  <r_epik_Ionization_Penalty_Charging>  (118) 
0.00908834

>  <r_epik_Ionization_Penalty_Neutral>  (118) 
0

>  <r_epik_State_Penalty>  (118) 
0.00688369

>  <r_epik_Charging_Adjusted_Penalty>  (118) 
0.015972

>  <i_epik_Tot_Q>  (118) 
-1

>  <i_epik_Tot_abs_Q>  (118) 
1

>  <s_lp_Force_Field>  (118) 
OPLS3e

>  <r_lp_Energy>  (118) 
11.5398

>  <b_lp_Chiralities_Consistent>  (118) 
1

>  <s_lp_Variant>  (118) 
37:0-1

>  <s_i_glide_gridfile>  (118) 
pfpi4k_grid

>  <i_i_glide_lignum>  (118) 
3

>  <i_i_glide_rotatable_bonds>  (118) 
1

>  <r_i_docking_score>  (118) 
-3.66956

>  <r_i_glide_ligand_efficiency>  (118) 
-0.282274

>  <r_i_glide_ligand_efficiency_sa>  (118) 
-0.66372

>  <r_i_glide_ligand_efficiency_ln>  (118) 
-1.02934

>  <r_i_glide_gscore>  (118) 
-3.66956

>  <r_i_glide_lipo>  (118) 
-0.256137

>  <r_i_glide_hbond>  (118) 
-0.223665

>  <r_i_glide_metal>  (118) 
-0

>  <r_i_glide_rewards>  (118) 
-2.18703

>  <r_i_glide_evdw>  (118) 
-13.9337

>  <r_i_glide_ecoul>  (118) 
-1.73299

>  <r_i_glide_erotb>  (118) 
0

>  <r_i_glide_esite>  (118) 
-0.0460976

>  <r_i_glide_emodel>  (118) 
-21.7796

>  <r_i_glide_energy>  (118) 
-15.6667

>  <r_i_glide_einternal>  (118) 
0.0195285

>  <r_i_glide_intrahb_reward>  (118) 
-0

>  <i_i_glide_confnum>  (118) 
2

>  <i_i_glide_posenum>  (118) 
7

>  <r_i_glide_eff_state_penalty>  (118) 
0

>  <ligand_id>  (118) 
37

>  <original_smiles>  (118) 
O=C(O)C12CC3CC(CC(C3)C1)C2

>  <smiles>  (118) 
[H]C1([H])C2([H])C([H])([H])C3([H])C([H])([H])C1([H])C([H])([H])C(C(=O)[O-])(C2([H])[H])C3([H])[H]

$$$$
37:0:2
     RDKit          3D

 28 30  0  0  1  0  0  0  0  0999 V2000
    1.8180   -5.1193    0.1568 O   0  0  0  0  0  0  0  0  0  0  0  0
    2.6234   -4.2567    0.5813 C   0  0  0  0  0  0  0  0  0  0  0  0
    2.7921   -4.0042    1.7922 O   0  0  0  0  0  0  0  0  0  0  0  0
    3.4356   -3.4372   -0.4583 C   0  0  1  0  0  0  0  0  0  0  0  0
    4.7654   -4.1821   -0.7485 C   0  0  0  0  0  0  0  0  0  0  0  0
    5.5850   -3.3866   -1.7891 C   0  0  2  0  0  0  0  0  0  0  0  0
    5.9139   -1.9994   -1.2289 C   0  0  0  0  0  0  0  0  0  0  0  0
    4.6073   -1.2416   -0.9576 C   0  0  1  0  0  0  0  0  0  0  0  0
    3.8096   -1.1064   -2.2708 C   0  0  0  0  0  0  0  0  0  0  0  0
    3.4854   -2.4988   -2.8270 C   0  0  1  0  0  0  0  0  0  0  0  0
    4.7848   -3.2716   -3.1016 C   0  0  0  0  0  0  0  0  0  0  0  0
    2.6422   -3.2658   -1.7897 C   0  0  0  0  0  0  0  0  0  0  0  0
    3.7808   -2.0191    0.0877 C   0  0  0  0  0  0  0  0  0  0  0  0
    5.3413   -4.3086    0.1698 H   0  0  0  0  0  0  0  0  0  0  0  0
    4.5664   -5.1905   -1.1159 H   0  0  0  0  0  0  0  0  0  0  0  0
    6.5413   -3.8546   -2.0020 H   0  0  0  0  0  0  0  0  0  0  0  0
    6.5023   -2.0922   -0.3144 H   0  0  0  0  0  0  0  0  0  0  0  0
    6.5242   -1.4588   -1.9416 H   0  0  0  0  0  0  0  0  0  0  0  0
    4.8440   -0.2535   -0.5601 H   0  0  0  0  0  0  0  0  0  0  0  0
    2.8603   -0.6112   -2.0835 H   0  0  0  0  0  0  0  0  0  0  0  0
    4.3557   -0.5012   -2.9926 H   0  0  0  0  0  0  0  0  0  0  0  0
    2.9120   -2.3942   -3.7482 H   0  0  0  0  0  0  0  0  0  0  0  0
    5.3689   -2.7650   -3.8622 H   0  0  0  0  0  0  0  0  0  0  0  0
    4.5501   -4.2614   -3.4913 H   0  0  0  0  0  0  0  0  0  0  0  0
    2.3288   -4.2261   -2.1952 H   0  0  0  0  0  0  0  0  0  0  0  0
    1.7136   -2.7277   -1.6135 H   0  0  0  0  0  0  0  0  0  0  0  0
    2.8679   -1.4649    0.3238 H   0  0  0  0  0  0  0  0  0  0  0  0
    4.3485   -2.0797    1.0205 H   0  0  0  0  0  0  0  0  0  0  0  0
  1  2  2  0
  2  3  1  0
  4  2  1  1
  4 12  1  0
  4 13  1  0
  4  5  1  0
  5  6  1  0
  5 14  1  0
  5 15  1  0
  6 11  1  0
  6  7  1  0
  6 16  1  6
  7  8  1  0
  7 17  1  0
  7 18  1  0
  8  9  1  0
  8 13  1  0
  8 19  1  1
  9 10  1  0
  9 20  1  0
  9 21  1  0
 10 11  1  0
 10 12  1  0
 10 22  1  6
 11 23  1  0
 11 24  1  0
 12 25  1  0
 12 26  1  0
 13 27  1  0
 13 28  1  0
M  CHG  1   3  -1
M  END
>  <i_m_ct_stereo_status>  (119) 
1

>  <s_m_source_file>  (119) 
/var/tmp/pbs.5076255.sched01/tmpkddd28mm/459jwin2qj.sdf

>  <i_m_source_file_index>  (119) 
3

>  <i_lp_mmshare_version>  (119) 
48012

>  <i_f3d_flags>  (119) 
0

>  <s_epik_input>  (119) 
Tz1DKFtPSF0pQzEyW0NIMl1bQ0BIXTNbQ0gyXVtDQEBIXShbQ0gyXTIpW0NIMl1bQ0BIXShbQ0gyXTMpW0NIMl0x

>  <s_epik_cmdline>  (119) 
J2VwaWtfcHl0aG9uJywgJy1waHQnLCAnMi4wJywgJy1waCcsICc3LjAnLCAnLXRuJywgJzgnLCAnLW1hJywgJzIwMCcsICctaW1hZScsICc8aW5maWxlLm1hZT4nLCAnLW9tYWUnLCAnPG91dGZpbGUubWFlPic=

>  <r_epik_Ionization_Penalty>  (119) 
0.00908834

>  <r_epik_Ionization_Penalty_Charging>  (119) 
0.00908834

>  <r_epik_Ionization_Penalty_Neutral>  (119) 
0

>  <r_epik_State_Penalty>  (119) 
0.00688369

>  <r_epik_Charging_Adjusted_Penalty>  (119) 
0.015972

>  <i_epik_Tot_Q>  (119) 
-1

>  <i_epik_Tot_abs_Q>  (119) 
1

>  <s_lp_Force_Field>  (119) 
OPLS3e

>  <r_lp_Energy>  (119) 
11.5398

>  <b_lp_Chiralities_Consistent>  (119) 
1

>  <s_lp_Variant>  (119) 
37:0-1

>  <s_i_glide_gridfile>  (119) 
pfpi4k_grid

>  <i_i_glide_lignum>  (119) 
3

>  <i_i_glide_rotatable_bonds>  (119) 
1

>  <r_i_docking_score>  (119) 
-3.55574

>  <r_i_glide_ligand_efficiency>  (119) 
-0.273518

>  <r_i_glide_ligand_efficiency_sa>  (119) 
-0.643133

>  <r_i_glide_ligand_efficiency_ln>  (119) 
-0.997417

>  <r_i_glide_gscore>  (119) 
-3.55574

>  <r_i_glide_lipo>  (119) 
-0.476304

>  <r_i_glide_hbond>  (119) 
-0.0950698

>  <r_i_glide_metal>  (119) 
-0

>  <r_i_glide_rewards>  (119) 
-2.18703

>  <r_i_glide_evdw>  (119) 
-15.2981

>  <r_i_glide_ecoul>  (119) 
-0.0108066

>  <r_i_glide_erotb>  (119) 
0

>  <r_i_glide_esite>  (119) 
-0.0308101

>  <r_i_glide_emodel>  (119) 
-21.2065

>  <r_i_glide_energy>  (119) 
-15.3089

>  <r_i_glide_einternal>  (119) 
0.0166309

>  <r_i_glide_intrahb_reward>  (119) 
-0

>  <i_i_glide_confnum>  (119) 
1

>  <i_i_glide_posenum>  (119) 
28

>  <r_i_glide_eff_state_penalty>  (119) 
0

>  <ligand_id>  (119) 
37

>  <original_smiles>  (119) 
O=C(O)C12CC3CC(CC(C3)C1)C2

>  <smiles>  (119) 
[H]C1([H])C2([H])C([H])([H])C3([H])C([H])([H])C1([H])C([H])([H])C(C(=O)[O-])(C2([H])[H])C3([H])[H]

$$$$
37:1:0
     RDKit          3D

 29 31  0  0  1  0  0  0  0  0999 V2000
    0.6136   -5.8587    2.4326 O   0  0  0  0  0  0  0  0  0  0  0  0
    0.6143   -7.0309    2.0659 C   0  0  0  0  0  0  0  0  0  0  0  0
    0.0764   -7.4480    0.8861 O   0  0  0  0  0  0  0  0  0  0  0  0
    1.1952   -8.1690    2.9187 C   0  0  2  0  0  0  0  0  0  0  0  0
    2.2353   -8.9756    2.0913 C   0  0  0  0  0  0  0  0  0  0  0  0
    2.7996  -10.1241    2.9390 C   0  0  1  0  0  0  0  0  0  0  0  0
    3.5063   -9.5444    4.1781 C   0  0  0  0  0  0  0  0  0  0  0  0
    2.4887   -8.7578    5.0276 C   0  0  2  0  0  0  0  0  0  0  0  0
    1.3473   -9.6948    5.4714 C   0  0  0  0  0  0  0  0  0  0  0  0
    0.6453  -10.2605    4.2250 C   0  0  2  0  0  0  0  0  0  0  0  0
    1.6479  -11.0525    3.3733 C   0  0  0  0  0  0  0  0  0  0  0  0
    0.0526   -9.1131    3.3851 C   0  0  0  0  0  0  0  0  0  0  0  0
    1.9061   -7.6044    4.1891 C   0  0  0  0  0  0  0  0  0  0  0  0
    0.1715   -8.3853    0.7100 H   0  0  0  0  0  0  0  0  0  0  0  0
    1.8016   -9.4097    1.1897 H   0  0  0  0  0  0  0  0  0  0  0  0
    3.0458   -8.3230    1.7526 H   0  0  0  0  0  0  0  0  0  0  0  0
    3.5145  -10.6876    2.3402 H   0  0  0  0  0  0  0  0  0  0  0  0
    3.9473  -10.3463    4.7739 H   0  0  0  0  0  0  0  0  0  0  0  0
    4.3265   -8.8890    3.8709 H   0  0  0  0  0  0  0  0  0  0  0  0
    2.9897   -8.3559    5.9098 H   0  0  0  0  0  0  0  0  0  0  0  0
    1.7471  -10.5090    6.0779 H   0  0  0  0  0  0  0  0  0  0  0  0
    0.6357   -9.1564    6.0957 H   0  0  0  0  0  0  0  0  0  0  0  0
   -0.1473  -10.9359    4.5393 H   0  0  0  0  0  0  0  0  0  0  0  0
    1.1360  -11.4570    2.5026 H   0  0  0  0  0  0  0  0  0  0  0  0
    2.0402  -11.9006    3.9328 H   0  0  0  0  0  0  0  0  0  0  0  0
   -0.6822   -8.5695    3.9811 H   0  0  0  0  0  0  0  0  0  0  0  0
   -0.4936   -9.5303    2.5377 H   0  0  0  0  0  0  0  0  0  0  0  0
    2.7067   -6.9114    3.9113 H   0  0  0  0  0  0  0  0  0  0  0  0
    1.2111   -7.0264    4.8054 H   0  0  0  0  0  0  0  0  0  0  0  0
  1  2  2  0
  2  3  1  0
  4  2  1  6
  3 14  1  0
  4 12  1  0
  4 13  1  0
  4  5  1  0
  5  6  1  0
  5 15  1  0
  5 16  1  0
  6 11  1  0
  6  7  1  0
  6 17  1  6
  7  8  1  0
  7 18  1  0
  7 19  1  0
  8  9  1  0
  8 13  1  0
  8 20  1  1
  9 10  1  0
  9 21  1  0
  9 22  1  0
 10 11  1  0
 10 12  1  0
 10 23  1  1
 11 24  1  0
 11 25  1  0
 12 26  1  0
 12 27  1  0
 13 28  1  0
 13 29  1  0
M  END
>  <i_m_ct_stereo_status>  (120) 
1

>  <s_m_source_file>  (120) 
/var/tmp/pbs.5076255.sched01/tmpkddd28mm/459jwin2qj.sdf

>  <i_m_source_file_index>  (120) 
4

>  <i_lp_mmshare_version>  (120) 
48012

>  <i_f3d_flags>  (120) 
0

>  <s_epik_input>  (120) 
Tz1DKFtPSF0pQzEyW0NIMl1bQ0BIXTNbQ0gyXVtDQEBIXShbQ0gyXTIpW0NIMl1bQ0BIXShbQ0gyXTMpW0NIMl0x

>  <s_epik_cmdline>  (120) 
J2VwaWtfcHl0aG9uJywgJy1waHQnLCAnMi4wJywgJy1waCcsICc3LjAnLCAnLXRuJywgJzgnLCAnLW1hJywgJzIwMCcsICctaW1hZScsICc8aW5maWxlLm1hZT4nLCAnLW9tYWUnLCAnPG91dGZpbGUubWFlPic=

>  <r_epik_Ionization_Penalty>  (120) 
2.47955

>  <r_epik_Ionization_Penalty_Charging>  (120) 
0

>  <r_epik_Ionization_Penalty_Neutral>  (120) 
2.47955

>  <r_epik_State_Penalty>  (120) 
2.64306

>  <r_epik_Charging_Adjusted_Penalty>  (120) 
2.64306

>  <i_epik_Tot_Q>  (120) 
0

>  <i_epik_Tot_abs_Q>  (120) 
0

>  <s_lp_Force_Field>  (120) 
OPLS3e

>  <r_lp_Energy>  (120) 
1.92064

>  <b_lp_Chiralities_Consistent>  (120) 
1

>  <s_lp_Variant>  (120) 
37:0-2

>  <s_i_glide_gridfile>  (120) 
pfpi4k_grid

>  <i_i_glide_lignum>  (120) 
4

>  <i_i_glide_rotatable_bonds>  (120) 
2

>  <r_i_docking_score>  (120) 
-4.3252

>  <r_i_glide_ligand_efficiency>  (120) 
-0.332707

>  <r_i_glide_ligand_efficiency_sa>  (120) 
-0.782307

>  <r_i_glide_ligand_efficiency_ln>  (120) 
-1.21326

>  <r_i_glide_gscore>  (120) 
-4.3252

>  <r_i_glide_lipo>  (120) 
-0.182929

>  <r_i_glide_hbond>  (120) 
-0.117682

>  <r_i_glide_metal>  (120) 
-0

>  <r_i_glide_rewards>  (120) 
-2.18016

>  <r_i_glide_evdw>  (120) 
-14.7039

>  <r_i_glide_ecoul>  (120) 
-6.94696

>  <r_i_glide_erotb>  (120) 
0

>  <r_i_glide_esite>  (120) 
-0.0671868

>  <r_i_glide_emodel>  (120) 
-27.8069

>  <r_i_glide_energy>  (120) 
-21.6509

>  <r_i_glide_einternal>  (120) 
1.27346

>  <r_i_glide_intrahb_reward>  (120) 
-0

>  <i_i_glide_confnum>  (120) 
1

>  <i_i_glide_posenum>  (120) 
16

>  <r_i_glide_eff_state_penalty>  (120) 
0

>  <ligand_id>  (120) 
37

>  <original_smiles>  (120) 
O=C(O)C12CC3CC(CC(C3)C1)C2

>  <smiles>  (120) 
[H]OC(=O)C12C([H])([H])C3([H])C([H])([H])C([H])(C([H])([H])C([H])(C3([H])[H])C1([H])[H])C2([H])[H]

$$$$
37:1:1
     RDKit          3D

 29 31  0  0  1  0  0  0  0  0999 V2000
    1.8336   -5.4912    0.4453 O   0  0  0  0  0  0  0  0  0  0  0  0
    3.0153   -5.3053    0.7406 C   0  0  0  0  0  0  0  0  0  0  0  0
    3.7397   -6.1397    1.5414 O   0  0  0  0  0  0  0  0  0  0  0  0
    3.8398   -4.0830    0.2750 C   0  0  2  0  0  0  0  0  0  0  0  0
    4.1892   -3.1816    1.4905 C   0  0  0  0  0  0  0  0  0  0  0  0
    5.0175   -1.9608    1.0348 C   0  0  1  0  0  0  0  0  0  0  0  0
    6.3256   -2.4453    0.3773 C   0  0  0  0  0  0  0  0  0  0  0  0
    5.9863   -3.3105   -0.8521 C   0  0  2  0  0  0  0  0  0  0  0  0
    5.1724   -2.4841   -1.8684 C   0  0  0  0  0  0  0  0  0  0  0  0
    3.8656   -2.0110   -1.2025 C   0  0  2  0  0  0  0  0  0  0  0  0
    4.1911   -1.1379    0.0262 C   0  0  0  0  0  0  0  0  0  0  0  0
    3.0389   -3.2342   -0.7529 C   0  0  0  0  0  0  0  0  0  0  0  0
    5.1614   -4.5381   -0.4024 C   0  0  0  0  0  0  0  0  0  0  0  0
    3.2371   -6.8918    1.8157 H   0  0  0  0  0  0  0  0  0  0  0  0
    3.2820   -2.8437    1.9939 H   0  0  0  0  0  0  0  0  0  0  0  0
    4.7566   -3.7388    2.2378 H   0  0  0  0  0  0  0  0  0  0  0  0
    5.2557   -1.3390    1.8979 H   0  0  0  0  0  0  0  0  0  0  0  0
    6.9452   -1.5963    0.0873 H   0  0  0  0  0  0  0  0  0  0  0  0
    6.9106   -3.0244    1.0934 H   0  0  0  0  0  0  0  0  0  0  0  0
    6.9102   -3.6454   -1.3209 H   0  0  0  0  0  0  0  0  0  0  0  0
    5.7547   -1.6280   -2.2141 H   0  0  0  0  0  0  0  0  0  0  0  0
    4.9488   -3.0865   -2.7506 H   0  0  0  0  0  0  0  0  0  0  0  0
    3.2813   -1.4267   -1.9153 H   0  0  0  0  0  0  0  0  0  0  0  0
    3.2668   -0.7903    0.4879 H   0  0  0  0  0  0  0  0  0  0  0  0
    4.7362   -0.2448   -0.2745 H   0  0  0  0  0  0  0  0  0  0  0  0
    2.7723   -3.8350   -1.6250 H   0  0  0  0  0  0  0  0  0  0  0  0
    2.1009   -2.8909   -0.3163 H   0  0  0  0  0  0  0  0  0  0  0  0
    5.7650   -5.1415    0.2783 H   0  0  0  0  0  0  0  0  0  0  0  0
    4.9477   -5.1765   -1.2632 H   0  0  0  0  0  0  0  0  0  0  0  0
  1  2  2  0
  2  3  1  0
  4  2  1  1
  3 14  1  0
  4 12  1  0
  4 13  1  0
  4  5  1  0
  5  6  1  0
  5 15  1  0
  5 16  1  0
  6 11  1  0
  6  7  1  0
  6 17  1  1
  7  8  1  0
  7 18  1  0
  7 19  1  0
  8  9  1  0
  8 13  1  0
  8 20  1  6
  9 10  1  0
  9 21  1  0
  9 22  1  0
 10 11  1  0
 10 12  1  0
 10 23  1  6
 11 24  1  0
 11 25  1  0
 12 26  1  0
 12 27  1  0
 13 28  1  0
 13 29  1  0
M  END
>  <i_m_ct_stereo_status>  (121) 
1

>  <s_m_source_file>  (121) 
/var/tmp/pbs.5076255.sched01/tmpkddd28mm/459jwin2qj.sdf

>  <i_m_source_file_index>  (121) 
4

>  <i_lp_mmshare_version>  (121) 
48012

>  <i_f3d_flags>  (121) 
0

>  <s_epik_input>  (121) 
Tz1DKFtPSF0pQzEyW0NIMl1bQ0BIXTNbQ0gyXVtDQEBIXShbQ0gyXTIpW0NIMl1bQ0BIXShbQ0gyXTMpW0NIMl0x

>  <s_epik_cmdline>  (121) 
J2VwaWtfcHl0aG9uJywgJy1waHQnLCAnMi4wJywgJy1waCcsICc3LjAnLCAnLXRuJywgJzgnLCAnLW1hJywgJzIwMCcsICctaW1hZScsICc8aW5maWxlLm1hZT4nLCAnLW9tYWUnLCAnPG91dGZpbGUubWFlPic=

>  <r_epik_Ionization_Penalty>  (121) 
2.47955

>  <r_epik_Ionization_Penalty_Charging>  (121) 
0

>  <r_epik_Ionization_Penalty_Neutral>  (121) 
2.47955

>  <r_epik_State_Penalty>  (121) 
2.64306

>  <r_epik_Charging_Adjusted_Penalty>  (121) 
2.64306

>  <i_epik_Tot_Q>  (121) 
0

>  <i_epik_Tot_abs_Q>  (121) 
0

>  <s_lp_Force_Field>  (121) 
OPLS3e

>  <r_lp_Energy>  (121) 
1.92064

>  <b_lp_Chiralities_Consistent>  (121) 
1

>  <s_lp_Variant>  (121) 
37:0-2

>  <s_i_glide_gridfile>  (121) 
pfpi4k_grid

>  <i_i_glide_lignum>  (121) 
4

>  <i_i_glide_rotatable_bonds>  (121) 
2

>  <r_i_docking_score>  (121) 
-3.75298

>  <r_i_glide_ligand_efficiency>  (121) 
-0.288691

>  <r_i_glide_ligand_efficiency_sa>  (121) 
-0.678808

>  <r_i_glide_ligand_efficiency_ln>  (121) 
-1.05274

>  <r_i_glide_gscore>  (121) 
-3.75298

>  <r_i_glide_lipo>  (121) 
-0.299637

>  <r_i_glide_hbond>  (121) 
-0.0923522

>  <r_i_glide_metal>  (121) 
-0

>  <r_i_glide_rewards>  (121) 
-2.18016

>  <r_i_glide_evdw>  (121) 
-17.4434

>  <r_i_glide_ecoul>  (121) 
-1.91633

>  <r_i_glide_erotb>  (121) 
0

>  <r_i_glide_esite>  (121) 
-0.0212107

>  <r_i_glide_emodel>  (121) 
-25.1995

>  <r_i_glide_energy>  (121) 
-19.3597

>  <r_i_glide_einternal>  (121) 
0.124732

>  <r_i_glide_intrahb_reward>  (121) 
-0

>  <i_i_glide_confnum>  (121) 
2

>  <i_i_glide_posenum>  (121) 
22

>  <r_i_glide_eff_state_penalty>  (121) 
0

>  <ligand_id>  (121) 
37

>  <original_smiles>  (121) 
O=C(O)C12CC3CC(CC(C3)C1)C2

>  <smiles>  (121) 
[H]OC(=O)C12C([H])([H])C3([H])C([H])([H])C([H])(C([H])([H])C([H])(C3([H])[H])C1([H])[H])C2([H])[H]

$$$$
37:1:2
     RDKit          3D

 29 31  0  0  1  0  0  0  0  0999 V2000
    2.0756   -5.5177    1.7864 O   0  0  0  0  0  0  0  0  0  0  0  0
    1.4080   -6.5293    1.5671 C   0  0  0  0  0  0  0  0  0  0  0  0
    0.5997   -6.6923    0.4803 O   0  0  0  0  0  0  0  0  0  0  0  0
    1.3485   -7.7566    2.5053 C   0  0  2  0  0  0  0  0  0  0  0  0
    1.8990   -7.3860    3.9106 C   0  0  0  0  0  0  0  0  0  0  0  0
    1.8200   -8.6014    4.8539 C   0  0  1  0  0  0  0  0  0  0  0  0
    0.3498   -9.0487    4.9929 C   0  0  0  0  0  0  0  0  0  0  0  0
   -0.1847   -9.4492    3.6054 C   0  0  2  0  0  0  0  0  0  0  0  0
    0.6556  -10.6053    3.0364 C   0  0  0  0  0  0  0  0  0  0  0  0
    2.1213  -10.1451    2.8870 C   0  0  2  0  0  0  0  0  0  0  0  0
    2.6736   -9.7449    4.2703 C   0  0  0  0  0  0  0  0  0  0  0  0
    2.1961   -8.9293    1.9352 C   0  0  0  0  0  0  0  0  0  0  0  0
   -0.1246   -8.2421    2.6610 C   0  0  0  0  0  0  0  0  0  0  0  0
    0.2392   -7.5725    0.4697 H   0  0  0  0  0  0  0  0  0  0  0  0
    2.9323   -7.0418    3.8427 H   0  0  0  0  0  0  0  0  0  0  0  0
    1.3304   -6.5583    4.3344 H   0  0  0  0  0  0  0  0  0  0  0  0
    2.2094   -8.3248    5.8337 H   0  0  0  0  0  0  0  0  0  0  0  0
    0.2675   -9.8900    5.6836 H   0  0  0  0  0  0  0  0  0  0  0  0
   -0.2505   -8.2389    5.4090 H   0  0  0  0  0  0  0  0  0  0  0  0
   -1.2244   -9.7711    3.6808 H   0  0  0  0  0  0  0  0  0  0  0  0
    0.5957  -11.4748    3.6950 H   0  0  0  0  0  0  0  0  0  0  0  0
    0.2488  -10.9185    2.0762 H   0  0  0  0  0  0  0  0  0  0  0  0
    2.7171  -10.9640    2.4801 H   0  0  0  0  0  0  0  0  0  0  0  0
    3.7140   -9.4323    4.1806 H   0  0  0  0  0  0  0  0  0  0  0  0
    2.6698  -10.6009    4.9451 H   0  0  0  0  0  0  0  0  0  0  0  0
    1.8444   -9.2280    0.9470 H   0  0  0  0  0  0  0  0  0  0  0  0
    3.2373   -8.6280    1.8046 H   0  0  0  0  0  0  0  0  0  0  0  0
   -0.7533   -7.4394    3.0484 H   0  0  0  0  0  0  0  0  0  0  0  0
   -0.5679   -8.5526    1.7125 H   0  0  0  0  0  0  0  0  0  0  0  0
  1  2  2  0
  2  3  1  0
  4  2  1  6
  3 14  1  0
  4 12  1  0
  4 13  1  0
  4  5  1  0
  5  6  1  0
  5 15  1  0
  5 16  1  0
  6 11  1  0
  6  7  1  0
  6 17  1  1
  7  8  1  0
  7 18  1  0
  7 19  1  0
  8  9  1  0
  8 13  1  0
  8 20  1  1
  9 10  1  0
  9 21  1  0
  9 22  1  0
 10 11  1  0
 10 12  1  0
 10 23  1  6
 11 24  1  0
 11 25  1  0
 12 26  1  0
 12 27  1  0
 13 28  1  0
 13 29  1  0
M  END
>  <i_m_ct_stereo_status>  (122) 
1

>  <s_m_source_file>  (122) 
/var/tmp/pbs.5076255.sched01/tmpkddd28mm/459jwin2qj.sdf

>  <i_m_source_file_index>  (122) 
4

>  <i_lp_mmshare_version>  (122) 
48012

>  <i_f3d_flags>  (122) 
0

>  <s_epik_input>  (122) 
Tz1DKFtPSF0pQzEyW0NIMl1bQ0BIXTNbQ0gyXVtDQEBIXShbQ0gyXTIpW0NIMl1bQ0BIXShbQ0gyXTMpW0NIMl0x

>  <s_epik_cmdline>  (122) 
J2VwaWtfcHl0aG9uJywgJy1waHQnLCAnMi4wJywgJy1waCcsICc3LjAnLCAnLXRuJywgJzgnLCAnLW1hJywgJzIwMCcsICctaW1hZScsICc8aW5maWxlLm1hZT4nLCAnLW9tYWUnLCAnPG91dGZpbGUubWFlPic=

>  <r_epik_Ionization_Penalty>  (122) 
2.47955

>  <r_epik_Ionization_Penalty_Charging>  (122) 
0

>  <r_epik_Ionization_Penalty_Neutral>  (122) 
2.47955

>  <r_epik_State_Penalty>  (122) 
2.64306

>  <r_epik_Charging_Adjusted_Penalty>  (122) 
2.64306

>  <i_epik_Tot_Q>  (122) 
0

>  <i_epik_Tot_abs_Q>  (122) 
0

>  <s_lp_Force_Field>  (122) 
OPLS3e

>  <r_lp_Energy>  (122) 
1.92064

>  <b_lp_Chiralities_Consistent>  (122) 
1

>  <s_lp_Variant>  (122) 
37:0-2

>  <s_i_glide_gridfile>  (122) 
pfpi4k_grid

>  <i_i_glide_lignum>  (122) 
4

>  <i_i_glide_rotatable_bonds>  (122) 
2

>  <r_i_docking_score>  (122) 
-3.73115

>  <r_i_glide_ligand_efficiency>  (122) 
-0.287012

>  <r_i_glide_ligand_efficiency_sa>  (122) 
-0.674861

>  <r_i_glide_ligand_efficiency_ln>  (122) 
-1.04662

>  <r_i_glide_gscore>  (122) 
-3.73115

>  <r_i_glide_lipo>  (122) 
-0.164911

>  <r_i_glide_hbond>  (122) 
0

>  <r_i_glide_metal>  (122) 
-0

>  <r_i_glide_rewards>  (122) 
-2.18016

>  <r_i_glide_evdw>  (122) 
-17.1187

>  <r_i_glide_ecoul>  (122) 
-3.16213

>  <r_i_glide_erotb>  (122) 
0

>  <r_i_glide_esite>  (122) 
-0.0558316

>  <r_i_glide_emodel>  (122) 
-25.2127

>  <r_i_glide_energy>  (122) 
-20.2808

>  <r_i_glide_einternal>  (122) 
1.69963

>  <r_i_glide_intrahb_reward>  (122) 
-0

>  <i_i_glide_confnum>  (122) 
2

>  <i_i_glide_posenum>  (122) 
25

>  <r_i_glide_eff_state_penalty>  (122) 
0

>  <ligand_id>  (122) 
37

>  <original_smiles>  (122) 
O=C(O)C12CC3CC(CC(C3)C1)C2

>  <smiles>  (122) 
[H]OC(=O)C12C([H])([H])C3([H])C([H])([H])C([H])(C([H])([H])C([H])(C3([H])[H])C1([H])[H])C2([H])[H]

$$$$
38:0:0
     RDKit          3D

 36 38  0  0  1  0  0  0  0  0999 V2000
    2.8239   -2.9439   -3.5448 C   0  0  0  0  0  0  0  0  0  0  0  0
    3.5860   -3.0447   -2.3535 O   0  0  0  0  0  0  0  0  0  0  0  0
    2.9864   -3.4584   -1.2197 C   0  0  0  0  0  0  0  0  0  0  0  0
    1.8175   -3.8400   -1.1507 O   0  0  0  0  0  0  0  0  0  0  0  0
    3.9185   -3.4204    0.0232 C   0  0  2  0  0  0  0  0  0  0  0  0
    4.6640   -2.0808    0.1409 C   0  0  0  0  0  0  0  0  0  0  0  0
    6.0165   -2.4464    0.7655 C   0  0  0  0  0  0  0  0  0  0  0  0
    6.0977   -3.8658    0.7677 O   0  0  0  0  0  0  0  0  0  0  0  0
    5.1159   -4.3752   -0.1239 C   0  0  1  0  0  0  0  0  0  0  0  0
    4.7815   -5.8415    0.1896 C   0  0  0  0  0  0  0  0  0  0  0  0
    3.9379   -6.0075    1.4570 C   0  0  0  0  0  0  0  0  0  0  0  0
    2.7408   -5.1648    1.4071 N   0  0  0  0  0  0  0  0  0  0  0  0
    1.9032   -5.4278    2.5783 C   0  0  0  0  0  0  0  0  0  0  0  0
    1.0953   -6.6877    2.4670 C   0  0  0  0  0  0  0  0  0  0  0  0
    1.5794   -7.9178    2.7827 N   0  0  0  0  0  0  0  0  0  0  0  0
    0.5239   -8.6814    2.4982 C   0  0  0  0  0  0  0  0  0  0  0  0
   -0.5701   -7.9964    2.0853 O   0  0  0  0  0  0  0  0  0  0  0  0
   -0.1755   -6.6535    2.0519 N   0  0  0  0  0  0  0  0  0  0  0  0
    3.1560   -3.7561    1.3438 C   0  0  0  0  0  0  0  0  0  0  0  0
    3.4563   -2.5488   -4.3408 H   0  0  0  0  0  0  0  0  0  0  0  0
    1.9765   -2.2670   -3.4206 H   0  0  0  0  0  0  0  0  0  0  0  0
    2.4519   -3.9212   -3.8540 H   0  0  0  0  0  0  0  0  0  0  0  0
    4.8690   -1.6221   -0.8286 H   0  0  0  0  0  0  0  0  0  0  0  0
    4.1094   -1.3442    0.7243 H   0  0  0  0  0  0  0  0  0  0  0  0
    6.8407   -2.0216    0.1901 H   0  0  0  0  0  0  0  0  0  0  0  0
    6.0933   -2.0804    1.7881 H   0  0  0  0  0  0  0  0  0  0  0  0
    5.5375   -4.3200   -1.1303 H   0  0  0  0  0  0  0  0  0  0  0  0
    4.2483   -6.2815   -0.6533 H   0  0  0  0  0  0  0  0  0  0  0  0
    5.7050   -6.4096    0.3078 H   0  0  0  0  0  0  0  0  0  0  0  0
    3.6659   -7.0577    1.5385 H   0  0  0  0  0  0  0  0  0  0  0  0
    4.5330   -5.7597    2.3364 H   0  0  0  0  0  0  0  0  0  0  0  0
    2.5201   -5.4545    3.4793 H   0  0  0  0  0  0  0  0  0  0  0  0
    1.2058   -4.6048    2.7117 H   0  0  0  0  0  0  0  0  0  0  0  0
    0.5188   -9.7567    2.5793 H   0  0  0  0  0  0  0  0  0  0  0  0
    3.7781   -3.5019    2.2037 H   0  0  0  0  0  0  0  0  0  0  0  0
    2.2739   -3.1142    1.4002 H   0  0  0  0  0  0  0  0  0  0  0  0
  1  2  1  0
  1 20  1  0
  1 21  1  0
  1 22  1  0
  2  3  1  0
  3  4  2  0
  5  3  1  6
  5  9  1  0
  5 19  1  0
  5  6  1  0
  6  7  1  0
  6 23  1  0
  6 24  1  0
  7  8  1  0
  7 25  1  0
  7 26  1  0
  8  9  1  0
  9 10  1  0
  9 27  1  6
 10 11  1  0
 10 28  1  0
 10 29  1  0
 11 12  1  0
 11 30  1  0
 11 31  1  0
 12 13  1  0
 12 19  1  0
 13 14  1  0
 13 32  1  0
 13 33  1  0
 14 18  2  0
 14 15  1  0
 15 16  2  0
 16 17  1  0
 16 34  1  0
 17 18  1  0
 19 35  1  0
 19 36  1  0
M  END
>  <i_m_ct_stereo_status>  (123) 
1

>  <s_m_source_file>  (123) 
/var/tmp/pbs.5076255.sched01/tmpkddd28mm/459jwin2qj.sdf

>  <i_m_source_file_index>  (123) 
5

>  <i_lp_mmshare_version>  (123) 
48012

>  <i_f3d_flags>  (123) 
0

>  <s_epik_input>  (123) 
W0NIM11PQyg9TylbQ0BAXTEyW0NAQEhdKE9bQ0gyXVtDSDJdMSlbQ0gyXVtDSDJdTihbQ0gyXTIpW0NIMl1jM25bY0hdb24z

>  <s_epik_cmdline>  (123) 
J2VwaWtfcHl0aG9uJywgJy1waHQnLCAnMi4wJywgJy1waCcsICc3LjAnLCAnLXRuJywgJzgnLCAnLW1hJywgJzIwMCcsICctaW1hZScsICc8aW5maWxlLm1hZT4nLCAnLW9tYWUnLCAnPG91dGZpbGUubWFlPic=

>  <r_lp_tautomer_probability>  (123) 
1

>  <r_epik_Ionization_Penalty>  (123) 
0.015133

>  <r_epik_Ionization_Penalty_Charging>  (123) 
0

>  <r_epik_Ionization_Penalty_Neutral>  (123) 
0.015133

>  <r_epik_State_Penalty>  (123) 
0.0118756

>  <r_epik_Charging_Adjusted_Penalty>  (123) 
0.0118756

>  <i_epik_Tot_Q>  (123) 
0

>  <i_epik_Tot_abs_Q>  (123) 
0

>  <s_epik_Chemistry_Notes>  (123) 
This compound has an ester and may undergo hydrolysis at high or low pH.

>  <s_lp_Force_Field>  (123) 
OPLS3e

>  <r_lp_Energy>  (123) 
2.57999

>  <b_lp_Chiralities_Consistent>  (123) 
1

>  <s_lp_Variant>  (123) 
38:0-1

>  <s_i_glide_gridfile>  (123) 
pfpi4k_grid

>  <i_i_glide_lignum>  (123) 
5

>  <i_i_glide_rotatable_bonds>  (123) 
4

>  <r_i_docking_score>  (123) 
-3.58101

>  <r_i_glide_ligand_efficiency>  (123) 
-0.188474

>  <r_i_glide_ligand_efficiency_sa>  (123) 
-0.502925

>  <r_i_glide_ligand_efficiency_ln>  (123) 
-0.907863

>  <r_i_glide_gscore>  (123) 
-3.58101

>  <r_i_glide_lipo>  (123) 
-0.511303

>  <r_i_glide_hbond>  (123) 
-0.0076524

>  <r_i_glide_metal>  (123) 
-0

>  <r_i_glide_rewards>  (123) 
-1.69015

>  <r_i_glide_evdw>  (123) 
-24.942

>  <r_i_glide_ecoul>  (123) 
-4.40914

>  <r_i_glide_erotb>  (123) 
0.748722

>  <r_i_glide_esite>  (123) 
-0.212155

>  <r_i_glide_emodel>  (123) 
-35.1197

>  <r_i_glide_energy>  (123) 
-29.3511

>  <r_i_glide_einternal>  (123) 
2.17925

>  <r_i_glide_intrahb_reward>  (123) 
-0

>  <i_i_glide_confnum>  (123) 
2

>  <i_i_glide_posenum>  (123) 
1

>  <r_i_glide_eff_state_penalty>  (123) 
0

>  <ligand_id>  (123) 
38

>  <original_smiles>  (123) 
COC(=O)C12CCOC1CCN(Cc1ncon1)C2

>  <smiles>  (123) 
[H]c1nc(C([H])([H])N2C([H])([H])C([H])([H])C3([H])OC([H])([H])C([H])([H])C3(C(=O)OC([H])([H])[H])C2([H])[H])no1

$$$$
38:0:1
     RDKit          3D

 36 38  0  0  1  0  0  0  0  0999 V2000
    2.6327   -2.7353   -3.5519 C   0  0  0  0  0  0  0  0  0  0  0  0
    3.3090   -2.4814   -2.3337 O   0  0  0  0  0  0  0  0  0  0  0  0
    2.9147   -3.1084   -1.2114 C   0  0  0  0  0  0  0  0  0  0  0  0
    1.9315   -3.8571   -1.1464 O   0  0  0  0  0  0  0  0  0  0  0  0
    3.7543   -2.7386    0.0413 C   0  0  2  0  0  0  0  0  0  0  0  0
    3.4248   -1.3426    0.5382 C   0  0  0  0  0  0  0  0  0  0  0  0
    4.7457   -0.8459    1.1567 C   0  0  0  0  0  0  0  0  0  0  0  0
    5.7513   -1.7974    0.8181 O   0  0  0  0  0  0  0  0  0  0  0  0
    5.2527   -2.5951   -0.2459 C   0  0  1  0  0  0  0  0  0  0  0  0
    5.9682   -3.9500   -0.3526 C   0  0  0  0  0  0  0  0  0  0  0  0
    5.5883   -4.9304    0.7691 C   0  0  0  0  0  0  0  0  0  0  0  0
    4.1238   -5.0644    0.8351 N   0  0  0  0  0  0  0  0  0  0  0  0
    3.7530   -6.1152    1.8066 C   0  0  0  0  0  0  0  0  0  0  0  0
    2.3379   -6.6537    1.7169 C   0  0  0  0  0  0  0  0  0  0  0  0
    2.0082   -7.8904    2.1207 N   0  0  0  0  0  0  0  0  0  0  0  0
    0.7074   -7.9346    1.8529 C   0  0  0  0  0  0  0  0  0  0  0  0
    0.2284   -6.7822    1.3323 O   0  0  0  0  0  0  0  0  0  0  0  0
    1.3377   -5.9297    1.2446 N   0  0  0  0  0  0  0  0  0  0  0  0
    3.5716   -3.7436    1.1928 C   0  0  0  0  0  0  0  0  0  0  0  0
    3.1173   -2.1641   -4.3375 H   0  0  0  0  0  0  0  0  0  0  0  0
    1.5846   -2.4373   -3.5023 H   0  0  0  0  0  0  0  0  0  0  0  0
    2.6860   -3.7930   -3.8099 H   0  0  0  0  0  0  0  0  0  0  0  0
    3.1336   -0.6820   -0.2792 H   0  0  0  0  0  0  0  0  0  0  0  0
    2.6002   -1.3302    1.2609 H   0  0  0  0  0  0  0  0  0  0  0  0
    5.0026    0.1424    0.7770 H   0  0  0  0  0  0  0  0  0  0  0  0
    4.6850   -0.7902    2.2407 H   0  0  0  0  0  0  0  0  0  0  0  0
    5.4352   -2.0171   -1.1468 H   0  0  0  0  0  0  0  0  0  0  0  0
    5.6935   -4.3887   -1.3119 H   0  0  0  0  0  0  0  0  0  0  0  0
    7.0453   -3.7865   -0.3698 H   0  0  0  0  0  0  0  0  0  0  0  0
    6.0546   -5.8945    0.5610 H   0  0  0  0  0  0  0  0  0  0  0  0
    5.9912   -4.5796    1.7202 H   0  0  0  0  0  0  0  0  0  0  0  0
    4.4247   -6.9666    1.6688 H   0  0  0  0  0  0  0  0  0  0  0  0
    3.9377   -5.7373    2.8172 H   0  0  0  0  0  0  0  0  0  0  0  0
    0.0681   -8.7932    2.0066 H   0  0  0  0  0  0  0  0  0  0  0  0
    4.0483   -3.3815    2.1111 H   0  0  0  0  0  0  0  0  0  0  0  0
    2.5015   -3.7378    1.4067 H   0  0  0  0  0  0  0  0  0  0  0  0
  1  2  1  0
  1 20  1  0
  1 21  1  0
  1 22  1  0
  2  3  1  0
  3  4  2  0
  5  3  1  6
  5  9  1  0
  5 19  1  0
  5  6  1  0
  6  7  1  0
  6 23  1  0
  6 24  1  0
  7  8  1  0
  7 25  1  0
  7 26  1  0
  8  9  1  0
  9 10  1  0
  9 27  1  6
 10 11  1  0
 10 28  1  0
 10 29  1  0
 11 12  1  0
 11 30  1  0
 11 31  1  0
 12 13  1  0
 12 19  1  0
 13 14  1  0
 13 32  1  0
 13 33  1  0
 14 18  2  0
 14 15  1  0
 15 16  2  0
 16 17  1  0
 16 34  1  0
 17 18  1  0
 19 35  1  0
 19 36  1  0
M  END
>  <i_m_ct_stereo_status>  (124) 
1

>  <s_m_source_file>  (124) 
/var/tmp/pbs.5076255.sched01/tmpkddd28mm/459jwin2qj.sdf

>  <i_m_source_file_index>  (124) 
5

>  <i_lp_mmshare_version>  (124) 
48012

>  <i_f3d_flags>  (124) 
0

>  <s_epik_input>  (124) 
W0NIM11PQyg9TylbQ0BAXTEyW0NAQEhdKE9bQ0gyXVtDSDJdMSlbQ0gyXVtDSDJdTihbQ0gyXTIpW0NIMl1jM25bY0hdb24z

>  <s_epik_cmdline>  (124) 
J2VwaWtfcHl0aG9uJywgJy1waHQnLCAnMi4wJywgJy1waCcsICc3LjAnLCAnLXRuJywgJzgnLCAnLW1hJywgJzIwMCcsICctaW1hZScsICc8aW5maWxlLm1hZT4nLCAnLW9tYWUnLCAnPG91dGZpbGUubWFlPic=

>  <r_lp_tautomer_probability>  (124) 
1

>  <r_epik_Ionization_Penalty>  (124) 
0.015133

>  <r_epik_Ionization_Penalty_Charging>  (124) 
0

>  <r_epik_Ionization_Penalty_Neutral>  (124) 
0.015133

>  <r_epik_State_Penalty>  (124) 
0.0118756

>  <r_epik_Charging_Adjusted_Penalty>  (124) 
0.0118756

>  <i_epik_Tot_Q>  (124) 
0

>  <i_epik_Tot_abs_Q>  (124) 
0

>  <s_epik_Chemistry_Notes>  (124) 
This compound has an ester and may undergo hydrolysis at high or low pH.

>  <s_lp_Force_Field>  (124) 
OPLS3e

>  <r_lp_Energy>  (124) 
2.57999

>  <b_lp_Chiralities_Consistent>  (124) 
1

>  <s_lp_Variant>  (124) 
38:0-1

>  <s_i_glide_gridfile>  (124) 
pfpi4k_grid

>  <i_i_glide_lignum>  (124) 
5

>  <i_i_glide_rotatable_bonds>  (124) 
4

>  <r_i_docking_score>  (124) 
-3.35702

>  <r_i_glide_ligand_efficiency>  (124) 
-0.176685

>  <r_i_glide_ligand_efficiency_sa>  (124) 
-0.471467

>  <r_i_glide_ligand_efficiency_ln>  (124) 
-0.851077

>  <r_i_glide_gscore>  (124) 
-3.35702

>  <r_i_glide_lipo>  (124) 
-0.510568

>  <r_i_glide_hbond>  (124) 
0

>  <r_i_glide_metal>  (124) 
-0

>  <r_i_glide_rewards>  (124) 
-1.59117

>  <r_i_glide_evdw>  (124) 
-24.4129

>  <r_i_glide_ecoul>  (124) 
-3.83917

>  <r_i_glide_erotb>  (124) 
0.748722

>  <r_i_glide_esite>  (124) 
-0.207483

>  <r_i_glide_emodel>  (124) 
-33.2068

>  <r_i_glide_energy>  (124) 
-28.252

>  <r_i_glide_einternal>  (124) 
3.01865

>  <r_i_glide_intrahb_reward>  (124) 
-0

>  <i_i_glide_confnum>  (124) 
2

>  <i_i_glide_posenum>  (124) 
15

>  <r_i_glide_eff_state_penalty>  (124) 
0

>  <ligand_id>  (124) 
38

>  <original_smiles>  (124) 
COC(=O)C12CCOC1CCN(Cc1ncon1)C2

>  <smiles>  (124) 
[H]c1nc(C([H])([H])N2C([H])([H])C([H])([H])C3([H])OC([H])([H])C([H])([H])C3(C(=O)OC([H])([H])[H])C2([H])[H])no1

$$$$
38:0:2
     RDKit          3D

 36 38  0  0  1  0  0  0  0  0999 V2000
    2.3915   -1.0067    1.6820 C   0  0  0  0  0  0  0  0  0  0  0  0
    3.2458   -2.0716    1.3006 O   0  0  0  0  0  0  0  0  0  0  0  0
    4.5475   -1.8336    1.0640 C   0  0  0  0  0  0  0  0  0  0  0  0
    5.0798   -0.7212    1.0588 O   0  0  0  0  0  0  0  0  0  0  0  0
    5.3370   -3.1361    0.7954 C   0  0  2  0  0  0  0  0  0  0  0  0
    4.9678   -4.2303    1.8052 C   0  0  0  0  0  0  0  0  0  0  0  0
    6.2458   -5.0563    1.9909 C   0  0  0  0  0  0  0  0  0  0  0  0
    7.2787   -4.3491    1.3185 O   0  0  0  0  0  0  0  0  0  0  0  0
    6.8363   -3.0170    1.0990 C   0  0  1  0  0  0  0  0  0  0  0  0
    7.6706   -2.3248    0.0121 C   0  0  0  0  0  0  0  0  0  0  0  0
    7.3177   -2.8433   -1.3850 C   0  0  0  0  0  0  0  0  0  0  0  0
    5.8716   -2.7526   -1.6010 N   0  0  0  0  0  0  0  0  0  0  0  0
    5.5569   -3.1730   -2.9557 C   0  0  0  0  0  0  0  0  0  0  0  0
    4.2585   -2.6463   -3.4491 C   0  0  0  0  0  0  0  0  0  0  0  0
    3.1242   -3.3926   -3.4761 N   0  0  0  0  0  0  0  0  0  0  0  0
    2.2530   -2.4876   -3.8993 C   0  0  0  0  0  0  0  0  0  0  0  0
    2.8018   -1.2772   -4.2016 O   0  0  0  0  0  0  0  0  0  0  0  0
    4.1647   -1.4064   -3.9163 N   0  0  0  0  0  0  0  0  0  0  0  0
    5.1566   -3.6206   -0.6595 C   0  0  0  0  0  0  0  0  0  0  0  0
    1.3824   -1.3926    1.8312 H   0  0  0  0  0  0  0  0  0  0  0  0
    2.3459   -0.2505    0.8916 H   0  0  0  0  0  0  0  0  0  0  0  0
    2.7270   -0.5411    2.6060 H   0  0  0  0  0  0  0  0  0  0  0  0
    4.6942   -3.7935    2.7690 H   0  0  0  0  0  0  0  0  0  0  0  0
    4.1273   -4.8428    1.4768 H   0  0  0  0  0  0  0  0  0  0  0  0
    6.4811   -5.1841    3.0493 H   0  0  0  0  0  0  0  0  0  0  0  0
    6.1499   -6.0452    1.5464 H   0  0  0  0  0  0  0  0  0  0  0  0
    6.9490   -2.4643    2.0305 H   0  0  0  0  0  0  0  0  0  0  0  0
    7.4952   -1.2526    0.0754 H   0  0  0  0  0  0  0  0  0  0  0  0
    8.7350   -2.4719    0.2076 H   0  0  0  0  0  0  0  0  0  0  0  0
    7.8522   -2.2603   -2.1339 H   0  0  0  0  0  0  0  0  0  0  0  0
    7.6771   -3.8595   -1.5039 H   0  0  0  0  0  0  0  0  0  0  0  0
    6.3365   -2.7785   -3.5884 H   0  0  0  0  0  0  0  0  0  0  0  0
    5.5807   -4.2585   -3.0693 H   0  0  0  0  0  0  0  0  0  0  0  0
    1.2014   -2.6812   -4.0488 H   0  0  0  0  0  0  0  0  0  0  0  0
    5.5191   -4.6450   -0.7568 H   0  0  0  0  0  0  0  0  0  0  0  0
    4.0913   -3.6422   -0.9007 H   0  0  0  0  0  0  0  0  0  0  0  0
  1  2  1  0
  1 20  1  0
  1 21  1  0
  1 22  1  0
  2  3  1  0
  3  4  2  0
  5  3  1  1
  5  9  1  0
  5 19  1  0
  5  6  1  0
  6  7  1  0
  6 23  1  0
  6 24  1  0
  7  8  1  0
  7 25  1  0
  7 26  1  0
  8  9  1  0
  9 10  1  0
  9 27  1  1
 10 11  1  0
 10 28  1  0
 10 29  1  0
 11 12  1  0
 11 30  1  0
 11 31  1  0
 12 13  1  0
 12 19  1  0
 13 14  1  0
 13 32  1  0
 13 33  1  0
 14 18  2  0
 14 15  1  0
 15 16  2  0
 16 17  1  0
 16 34  1  0
 17 18  1  0
 19 35  1  0
 19 36  1  0
M  END
>  <i_m_ct_stereo_status>  (125) 
1

>  <s_m_source_file>  (125) 
/var/tmp/pbs.5076255.sched01/tmpkddd28mm/459jwin2qj.sdf

>  <i_m_source_file_index>  (125) 
5

>  <i_lp_mmshare_version>  (125) 
48012

>  <i_f3d_flags>  (125) 
0

>  <s_epik_input>  (125) 
W0NIM11PQyg9TylbQ0BAXTEyW0NAQEhdKE9bQ0gyXVtDSDJdMSlbQ0gyXVtDSDJdTihbQ0gyXTIpW0NIMl1jM25bY0hdb24z

>  <s_epik_cmdline>  (125) 
J2VwaWtfcHl0aG9uJywgJy1waHQnLCAnMi4wJywgJy1waCcsICc3LjAnLCAnLXRuJywgJzgnLCAnLW1hJywgJzIwMCcsICctaW1hZScsICc8aW5maWxlLm1hZT4nLCAnLW9tYWUnLCAnPG91dGZpbGUubWFlPic=

>  <r_lp_tautomer_probability>  (125) 
1

>  <r_epik_Ionization_Penalty>  (125) 
0.015133

>  <r_epik_Ionization_Penalty_Charging>  (125) 
0

>  <r_epik_Ionization_Penalty_Neutral>  (125) 
0.015133

>  <r_epik_State_Penalty>  (125) 
0.0118756

>  <r_epik_Charging_Adjusted_Penalty>  (125) 
0.0118756

>  <i_epik_Tot_Q>  (125) 
0

>  <i_epik_Tot_abs_Q>  (125) 
0

>  <s_epik_Chemistry_Notes>  (125) 
This compound has an ester and may undergo hydrolysis at high or low pH.

>  <s_lp_Force_Field>  (125) 
OPLS3e

>  <r_lp_Energy>  (125) 
2.57999

>  <b_lp_Chiralities_Consistent>  (125) 
1

>  <s_lp_Variant>  (125) 
38:0-1

>  <s_i_glide_gridfile>  (125) 
pfpi4k_grid

>  <i_i_glide_lignum>  (125) 
5

>  <i_i_glide_rotatable_bonds>  (125) 
4

>  <r_i_docking_score>  (125) 
-3.21726

>  <r_i_glide_ligand_efficiency>  (125) 
-0.16933

>  <r_i_glide_ligand_efficiency_sa>  (125) 
-0.451839

>  <r_i_glide_ligand_efficiency_ln>  (125) 
-0.815645

>  <r_i_glide_gscore>  (125) 
-3.21726

>  <r_i_glide_lipo>  (125) 
-0.680824

>  <r_i_glide_hbond>  (125) 
0

>  <r_i_glide_metal>  (125) 
-0

>  <r_i_glide_rewards>  (125) 
-1.82716

>  <r_i_glide_evdw>  (125) 
-24.7089

>  <r_i_glide_ecoul>  (125) 
-1.48368

>  <r_i_glide_erotb>  (125) 
0.748722

>  <r_i_glide_esite>  (125) 
0

>  <r_i_glide_emodel>  (125) 
-31.346

>  <r_i_glide_energy>  (125) 
-26.1926

>  <r_i_glide_einternal>  (125) 
1.70231

>  <r_i_glide_intrahb_reward>  (125) 
-0

>  <i_i_glide_confnum>  (125) 
4

>  <i_i_glide_posenum>  (125) 
19

>  <r_i_glide_eff_state_penalty>  (125) 
0

>  <ligand_id>  (125) 
38

>  <original_smiles>  (125) 
COC(=O)C12CCOC1CCN(Cc1ncon1)C2

>  <smiles>  (125) 
[H]c1nc(C([H])([H])N2C([H])([H])C([H])([H])C3([H])OC([H])([H])C([H])([H])C3(C(=O)OC([H])([H])[H])C2([H])[H])no1

$$$$
38:1:0
     RDKit          3D

 37 39  0  0  1  0  0  0  0  0999 V2000
    1.9163   -2.7161    3.2296 C   0  0  0  0  0  0  0  0  0  0  0  0
    2.6691   -3.7432    2.6103 O   0  0  0  0  0  0  0  0  0  0  0  0
    3.1662   -3.5571    1.3770 C   0  0  0  0  0  0  0  0  0  0  0  0
    3.0238   -2.5364    0.7060 O   0  0  0  0  0  0  0  0  0  0  0  0
    3.9759   -4.7645    0.8461 C   0  0  2  0  0  0  0  0  0  0  0  0
    3.1702   -6.0657    0.9134 C   0  0  0  0  0  0  0  0  0  0  0  0
    4.2229   -7.1542    1.1582 C   0  0  0  0  0  0  0  0  0  0  0  0
    5.4481   -6.4705    1.4084 O   0  0  0  0  0  0  0  0  0  0  0  0
    5.1456   -5.1317    1.7728 C   0  0  1  0  0  0  0  0  0  0  0  0
    6.3627   -4.1951    1.6396 C   0  0  0  0  0  0  0  0  0  0  0  0
    6.7448   -3.8735    0.1846 C   0  0  0  0  0  0  0  0  0  0  0  0
    5.5622   -3.4496   -0.6099 N   0  0  1  0  0  0  0  0  0  0  0  0
    5.9282   -3.0128   -1.9822 C   0  0  0  0  0  0  0  0  0  0  0  0
    4.8369   -2.2506   -2.6527 C   0  0  0  0  0  0  0  0  0  0  0  0
    4.4174   -1.0321   -2.2162 N   0  0  0  0  0  0  0  0  0  0  0  0
    3.4661   -0.7588   -3.1121 C   0  0  0  0  0  0  0  0  0  0  0  0
    3.3306   -1.7020   -4.0754 O   0  0  0  0  0  0  0  0  0  0  0  0
    4.2469   -2.7080   -3.7490 N   0  0  0  0  0  0  0  0  0  0  0  0
    4.5183   -4.5119   -0.5901 C   0  0  0  0  0  0  0  0  0  0  0  0
    1.5826   -3.0587    4.2083 H   0  0  0  0  0  0  0  0  0  0  0  0
    1.0361   -2.4582    2.6396 H   0  0  0  0  0  0  0  0  0  0  0  0
    2.5237   -1.8219    3.3685 H   0  0  0  0  0  0  0  0  0  0  0  0
    2.4736   -6.0747    1.7534 H   0  0  0  0  0  0  0  0  0  0  0  0
    2.5794   -6.2475    0.0151 H   0  0  0  0  0  0  0  0  0  0  0  0
    3.9420   -7.7821    2.0052 H   0  0  0  0  0  0  0  0  0  0  0  0
    4.3359   -7.7978    0.2877 H   0  0  0  0  0  0  0  0  0  0  0  0
    4.8286   -5.1481    2.8194 H   0  0  0  0  0  0  0  0  0  0  0  0
    6.1532   -3.2633    2.1719 H   0  0  0  0  0  0  0  0  0  0  0  0
    7.2152   -4.6567    2.1383 H   0  0  0  0  0  0  0  0  0  0  0  0
    7.5068   -3.0911    0.1817 H   0  0  0  0  0  0  0  0  0  0  0  0
    7.1967   -4.7512   -0.2778 H   0  0  0  0  0  0  0  0  0  0  0  0
    6.7968   -2.3563   -1.9359 H   0  0  0  0  0  0  0  0  0  0  0  0
    6.2162   -3.8586   -2.6052 H   0  0  0  0  0  0  0  0  0  0  0  0
    2.8525    0.1309   -3.1123 H   0  0  0  0  0  0  0  0  0  0  0  0
    4.9570   -5.4262   -0.9973 H   0  0  0  0  0  0  0  0  0  0  0  0
    3.6956   -4.2430   -1.2545 H   0  0  0  0  0  0  0  0  0  0  0  0
    5.1531   -2.6347   -0.1644 H   0  0  0  0  0  0  0  0  0  0  0  0
  1  2  1  0
  1 20  1  0
  1 21  1  0
  1 22  1  0
  2  3  1  0
  3  4  2  0
  5  3  1  1
  5  9  1  0
  5 19  1  0
  5  6  1  0
  6  7  1  0
  6 23  1  0
  6 24  1  0
  7  8  1  0
  7 25  1  0
  7 26  1  0
  8  9  1  0
  9 10  1  0
  9 27  1  1
 10 11  1  0
 10 28  1  0
 10 29  1  0
 11 12  1  0
 11 30  1  0
 11 31  1  0
 12 13  1  0
 12 19  1  0
 12 37  1  1
 13 14  1  0
 13 32  1  0
 13 33  1  0
 14 18  2  0
 14 15  1  0
 15 16  2  0
 16 17  1  0
 16 34  1  0
 17 18  1  0
 19 35  1  0
 19 36  1  0
M  CHG  1  12   1
M  END
>  <i_m_ct_stereo_status>  (126) 
1

>  <s_m_source_file>  (126) 
/var/tmp/pbs.5076255.sched01/tmpkddd28mm/459jwin2qj.sdf

>  <i_m_source_file_index>  (126) 
6

>  <i_lp_mmshare_version>  (126) 
48012

>  <i_f3d_flags>  (126) 
0

>  <s_epik_input>  (126) 
W0NIM11PQyg9TylbQ0BAXTEyW0NAQEhdKE9bQ0gyXVtDSDJdMSlbQ0gyXVtDSDJdTihbQ0gyXTIpW0NIMl1jM25bY0hdb24z

>  <s_epik_cmdline>  (126) 
J2VwaWtfcHl0aG9uJywgJy1waHQnLCAnMi4wJywgJy1waCcsICc3LjAnLCAnLXRuJywgJzgnLCAnLW1hJywgJzIwMCcsICctaW1hZScsICc8aW5maWxlLm1hZT4nLCAnLW9tYWUnLCAnPG91dGZpbGUubWFlPic=

>  <r_lp_tautomer_probability>  (126) 
1

>  <r_epik_Ionization_Penalty>  (126) 
2.18046

>  <r_epik_Ionization_Penalty_Charging>  (126) 
2.18046

>  <r_epik_Ionization_Penalty_Neutral>  (126) 
2.22202e-13

>  <r_epik_State_Penalty>  (126) 
2.32245

>  <r_epik_Charging_Adjusted_Penalty>  (126) 
4.50291

>  <i_epik_Tot_Q>  (126) 
1

>  <i_epik_Tot_abs_Q>  (126) 
1

>  <s_epik_Chemistry_Notes>  (126) 
This compound has an ester and may undergo hydrolysis at high or low pH.

>  <s_lp_Force_Field>  (126) 
OPLS3e

>  <r_lp_Energy>  (126) 
10.584

>  <b_lp_Chiralities_Consistent>  (126) 
1

>  <s_lp_Variant>  (126) 
38:0-2

>  <s_i_glide_gridfile>  (126) 
pfpi4k_grid

>  <i_i_glide_lignum>  (126) 
6

>  <i_i_glide_rotatable_bonds>  (126) 
4

>  <r_i_docking_score>  (126) 
-3.87093

>  <r_i_glide_ligand_efficiency>  (126) 
-0.203733

>  <r_i_glide_ligand_efficiency_sa>  (126) 
-0.543641

>  <r_i_glide_ligand_efficiency_ln>  (126) 
-0.981363

>  <r_i_glide_gscore>  (126) 
-3.87093

>  <r_i_glide_lipo>  (126) 
-0.520112

>  <r_i_glide_hbond>  (126) 
0

>  <r_i_glide_metal>  (126) 
-0

>  <r_i_glide_rewards>  (126) 
-2.25736

>  <r_i_glide_evdw>  (126) 
-25.8424

>  <r_i_glide_ecoul>  (126) 
-3.63469

>  <r_i_glide_erotb>  (126) 
0.743868

>  <r_i_glide_esite>  (126) 
0

>  <r_i_glide_emodel>  (126) 
-42.288

>  <r_i_glide_energy>  (126) 
-29.4771

>  <r_i_glide_einternal>  (126) 
0.717853

>  <r_i_glide_intrahb_reward>  (126) 
-0.5

>  <i_i_glide_confnum>  (126) 
3

>  <i_i_glide_posenum>  (126) 
31

>  <r_i_glide_eff_state_penalty>  (126) 
0

>  <ligand_id>  (126) 
38

>  <original_smiles>  (126) 
COC(=O)C12CCOC1CCN(Cc1ncon1)C2

>  <smiles>  (126) 
[H]c1nc(C([H])([H])[N+]2([H])C([H])([H])C([H])([H])C3([H])OC([H])([H])C([H])([H])C3(C(=O)OC([H])([H])[H])C2([H])[H])no1

$$$$
38:1:1
     RDKit          3D

 37 39  0  0  1  0  0  0  0  0999 V2000
    2.6020   -2.6638   -3.6711 C   0  0  0  0  0  0  0  0  0  0  0  0
    3.2527   -2.3979   -2.4447 O   0  0  0  0  0  0  0  0  0  0  0  0
    2.8821   -3.0595   -1.3375 C   0  0  0  0  0  0  0  0  0  0  0  0
    1.9424   -3.8522   -1.2678 O   0  0  0  0  0  0  0  0  0  0  0  0
    3.7503   -2.7272   -0.0983 C   0  0  2  0  0  0  0  0  0  0  0  0
    3.4255   -1.3492    0.4661 C   0  0  0  0  0  0  0  0  0  0  0  0
    4.7538   -0.8628    1.0574 C   0  0  0  0  0  0  0  0  0  0  0  0
    5.7461   -1.8082    0.6627 O   0  0  0  0  0  0  0  0  0  0  0  0
    5.2365   -2.5365   -0.4414 C   0  0  1  0  0  0  0  0  0  0  0  0
    5.9757   -3.8633   -0.6873 C   0  0  0  0  0  0  0  0  0  0  0  0
    5.6614   -4.9494    0.3654 C   0  0  0  0  0  0  0  0  0  0  0  0
    4.1947   -5.1136    0.5604 N   0  0  1  0  0  0  0  0  0  0  0  0
    3.8679   -6.2613    1.4562 C   0  0  0  0  0  0  0  0  0  0  0  0
    2.4315   -6.7154    1.4176 C   0  0  0  0  0  0  0  0  0  0  0  0
    2.0300   -7.8734    2.0067 N   0  0  0  0  0  0  0  0  0  0  0  0
    0.7239   -7.8575    1.7523 C   0  0  0  0  0  0  0  0  0  0  0  0
    0.3037   -6.7704    1.0648 O   0  0  0  0  0  0  0  0  0  0  0  0
    1.4614   -6.0242    0.8212 N   0  0  0  0  0  0  0  0  0  0  0  0
    3.6185   -3.8099    1.0059 C   0  0  0  0  0  0  0  0  0  0  0  0
    3.0379   -2.0292   -4.4422 H   0  0  0  0  0  0  0  0  0  0  0  0
    1.5346   -2.4514   -3.6140 H   0  0  0  0  0  0  0  0  0  0  0  0
    2.7375   -3.7048   -3.9656 H   0  0  0  0  0  0  0  0  0  0  0  0
    3.1136   -0.6711   -0.3303 H   0  0  0  0  0  0  0  0  0  0  0  0
    2.6168   -1.3659    1.2001 H   0  0  0  0  0  0  0  0  0  0  0  0
    4.9964    0.1369    0.6946 H   0  0  0  0  0  0  0  0  0  0  0  0
    4.7128   -0.8232    2.1456 H   0  0  0  0  0  0  0  0  0  0  0  0
    5.3690   -1.8925   -1.3140 H   0  0  0  0  0  0  0  0  0  0  0  0
    5.7068   -4.2365   -1.6777 H   0  0  0  0  0  0  0  0  0  0  0  0
    7.0502   -3.6747   -0.7111 H   0  0  0  0  0  0  0  0  0  0  0  0
    6.1118   -5.8903    0.0409 H   0  0  0  0  0  0  0  0  0  0  0  0
    6.1398   -4.6907    1.3134 H   0  0  0  0  0  0  0  0  0  0  0  0
    4.4814   -7.1214    1.1727 H   0  0  0  0  0  0  0  0  0  0  0  0
    4.1394   -6.0184    2.4855 H   0  0  0  0  0  0  0  0  0  0  0  0
    0.0393   -8.6474    2.0284 H   0  0  0  0  0  0  0  0  0  0  0  0
    4.1460   -3.4953    1.9102 H   0  0  0  0  0  0  0  0  0  0  0  0
    2.5736   -3.8671    1.3055 H   0  0  0  0  0  0  0  0  0  0  0  0
    3.7903   -5.3435   -0.3425 H   0  0  0  0  0  0  0  0  0  0  0  0
  1  2  1  0
  1 20  1  0
  1 21  1  0
  1 22  1  0
  2  3  1  0
  3  4  2  0
  5  3  1  6
  5  9  1  0
  5 19  1  0
  5  6  1  0
  6  7  1  0
  6 23  1  0
  6 24  1  0
  7  8  1  0
  7 25  1  0
  7 26  1  0
  8  9  1  0
  9 10  1  0
  9 27  1  6
 10 11  1  0
 10 28  1  0
 10 29  1  0
 11 12  1  0
 11 30  1  0
 11 31  1  0
 12 13  1  0
 12 19  1  0
 12 37  1  6
 13 14  1  0
 13 32  1  0
 13 33  1  0
 14 18  2  0
 14 15  1  0
 15 16  2  0
 16 17  1  0
 16 34  1  0
 17 18  1  0
 19 35  1  0
 19 36  1  0
M  CHG  1  12   1
M  END
>  <i_m_ct_stereo_status>  (127) 
1

>  <s_m_source_file>  (127) 
/var/tmp/pbs.5076255.sched01/tmpkddd28mm/459jwin2qj.sdf

>  <i_m_source_file_index>  (127) 
6

>  <i_lp_mmshare_version>  (127) 
48012

>  <i_f3d_flags>  (127) 
0

>  <s_epik_input>  (127) 
W0NIM11PQyg9TylbQ0BAXTEyW0NAQEhdKE9bQ0gyXVtDSDJdMSlbQ0gyXVtDSDJdTihbQ0gyXTIpW0NIMl1jM25bY0hdb24z

>  <s_epik_cmdline>  (127) 
J2VwaWtfcHl0aG9uJywgJy1waHQnLCAnMi4wJywgJy1waCcsICc3LjAnLCAnLXRuJywgJzgnLCAnLW1hJywgJzIwMCcsICctaW1hZScsICc8aW5maWxlLm1hZT4nLCAnLW9tYWUnLCAnPG91dGZpbGUubWFlPic=

>  <r_lp_tautomer_probability>  (127) 
1

>  <r_epik_Ionization_Penalty>  (127) 
2.18046

>  <r_epik_Ionization_Penalty_Charging>  (127) 
2.18046

>  <r_epik_Ionization_Penalty_Neutral>  (127) 
2.22202e-13

>  <r_epik_State_Penalty>  (127) 
2.32245

>  <r_epik_Charging_Adjusted_Penalty>  (127) 
4.50291

>  <i_epik_Tot_Q>  (127) 
1

>  <i_epik_Tot_abs_Q>  (127) 
1

>  <s_epik_Chemistry_Notes>  (127) 
This compound has an ester and may undergo hydrolysis at high or low pH.

>  <s_lp_Force_Field>  (127) 
OPLS3e

>  <r_lp_Energy>  (127) 
10.584

>  <b_lp_Chiralities_Consistent>  (127) 
1

>  <s_lp_Variant>  (127) 
38:0-2

>  <s_i_glide_gridfile>  (127) 
pfpi4k_grid

>  <i_i_glide_lignum>  (127) 
6

>  <i_i_glide_rotatable_bonds>  (127) 
4

>  <r_i_docking_score>  (127) 
-3.78247

>  <r_i_glide_ligand_efficiency>  (127) 
-0.199078

>  <r_i_glide_ligand_efficiency_sa>  (127) 
-0.531219

>  <r_i_glide_ligand_efficiency_ln>  (127) 
-0.958938

>  <r_i_glide_gscore>  (127) 
-3.78247

>  <r_i_glide_lipo>  (127) 
-0.556478

>  <r_i_glide_hbond>  (127) 
0

>  <r_i_glide_metal>  (127) 
-0

>  <r_i_glide_rewards>  (127) 
-1.57985

>  <r_i_glide_evdw>  (127) 
-24.945

>  <r_i_glide_ecoul>  (127) 
-6.29045

>  <r_i_glide_erotb>  (127) 
0.743868

>  <r_i_glide_esite>  (127) 
-0.199197

>  <r_i_glide_emodel>  (127) 
-38.0258

>  <r_i_glide_energy>  (127) 
-31.2355

>  <r_i_glide_einternal>  (127) 
1.99402

>  <r_i_glide_intrahb_reward>  (127) 
-0

>  <i_i_glide_confnum>  (127) 
3

>  <i_i_glide_posenum>  (127) 
37

>  <r_i_glide_eff_state_penalty>  (127) 
0

>  <ligand_id>  (127) 
38

>  <original_smiles>  (127) 
COC(=O)C12CCOC1CCN(Cc1ncon1)C2

>  <smiles>  (127) 
[H]c1nc(C([H])([H])[N+]2([H])C([H])([H])C([H])([H])C3([H])OC([H])([H])C([H])([H])C3(C(=O)OC([H])([H])[H])C2([H])[H])no1

$$$$
38:1:2
     RDKit          3D

 37 39  0  0  1  0  0  0  0  0999 V2000
    3.4054    0.5296    1.8099 C   0  0  0  0  0  0  0  0  0  0  0  0
    3.0588   -0.8386    1.7247 O   0  0  0  0  0  0  0  0  0  0  0  0
    4.0038   -1.7725    1.9032 C   0  0  0  0  0  0  0  0  0  0  0  0
    5.1908   -1.5473    2.1452 O   0  0  0  0  0  0  0  0  0  0  0  0
    3.4542   -3.2017    1.7194 C   0  0  2  0  0  0  0  0  0  0  0  0
    2.3534   -3.5092    2.7386 C   0  0  0  0  0  0  0  0  0  0  0  0
    2.4492   -5.0224    2.9728 C   0  0  0  0  0  0  0  0  0  0  0  0
    3.6347   -5.4461    2.3083 O   0  0  0  0  0  0  0  0  0  0  0  0
    4.4566   -4.3078    2.0925 C   0  0  1  0  0  0  0  0  0  0  0  0
    5.5413   -4.5567    1.0252 C   0  0  0  0  0  0  0  0  0  0  0  0
    4.9763   -4.6189   -0.4055 C   0  0  0  0  0  0  0  0  0  0  0  0
    4.0999   -3.4579   -0.7048 N   0  0  1  0  0  0  0  0  0  0  0  0
    3.6597   -3.4250   -2.1295 C   0  0  0  0  0  0  0  0  0  0  0  0
    3.7065   -2.0664   -2.7474 C   0  0  0  0  0  0  0  0  0  0  0  0
    3.0484   -1.7777   -3.9014 N   0  0  0  0  0  0  0  0  0  0  0  0
    3.3516   -0.4964   -4.0613 C   0  0  0  0  0  0  0  0  0  0  0  0
    4.2092   -0.0214   -3.1308 O   0  0  0  0  0  0  0  0  0  0  0  0
    4.4625   -1.0903   -2.2565 N   0  0  0  0  0  0  0  0  0  0  0  0
    2.9689   -3.4106    0.2581 C   0  0  0  0  0  0  0  0  0  0  0  0
    2.5252    1.1471    1.6324 H   0  0  0  0  0  0  0  0  0  0  0  0
    4.1555    0.7856    1.0605 H   0  0  0  0  0  0  0  0  0  0  0  0
    3.8006    0.7741    2.7967 H   0  0  0  0  0  0  0  0  0  0  0  0
    2.5441   -2.9936    3.6821 H   0  0  0  0  0  0  0  0  0  0  0  0
    1.3643   -3.1968    2.4105 H   0  0  0  0  0  0  0  0  0  0  0  0
    2.4874   -5.2535    4.0387 H   0  0  0  0  0  0  0  0  0  0  0  0
    1.5912   -5.5465    2.5542 H   0  0  0  0  0  0  0  0  0  0  0  0
    4.9390   -4.0815    3.0485 H   0  0  0  0  0  0  0  0  0  0  0  0
    6.2906   -3.7655    1.0868 H   0  0  0  0  0  0  0  0  0  0  0  0
    6.0672   -5.4860    1.2461 H   0  0  0  0  0  0  0  0  0  0  0  0
    5.8153   -4.6329   -1.1024 H   0  0  0  0  0  0  0  0  0  0  0  0
    4.4236   -5.5497   -0.5504 H   0  0  0  0  0  0  0  0  0  0  0  0
    4.3009   -4.0584   -2.7446 H   0  0  0  0  0  0  0  0  0  0  0  0
    2.6475   -3.8250   -2.2345 H   0  0  0  0  0  0  0  0  0  0  0  0
    2.9878    0.1054   -4.8767 H   0  0  0  0  0  0  0  0  0  0  0  0
    2.4349   -4.3595    0.1914 H   0  0  0  0  0  0  0  0  0  0  0  0
    2.2559   -2.6360   -0.0275 H   0  0  0  0  0  0  0  0  0  0  0  0
    4.6469   -2.6148   -0.5703 H   0  0  0  0  0  0  0  0  0  0  0  0
  1  2  1  0
  1 20  1  0
  1 21  1  0
  1 22  1  0
  2  3  1  0
  3  4  2  0
  5  3  1  6
  5  9  1  0
  5 19  1  0
  5  6  1  0
  6  7  1  0
  6 23  1  0
  6 24  1  0
  7  8  1  0
  7 25  1  0
  7 26  1  0
  8  9  1  0
  9 10  1  0
  9 27  1  1
 10 11  1  0
 10 28  1  0
 10 29  1  0
 11 12  1  0
 11 30  1  0
 11 31  1  0
 12 13  1  0
 12 19  1  0
 12 37  1  1
 13 14  1  0
 13 32  1  0
 13 33  1  0
 14 18  2  0
 14 15  1  0
 15 16  2  0
 16 17  1  0
 16 34  1  0
 17 18  1  0
 19 35  1  0
 19 36  1  0
M  CHG  1  12   1
M  END
>  <i_m_ct_stereo_status>  (128) 
1

>  <s_m_source_file>  (128) 
/var/tmp/pbs.5076255.sched01/tmpkddd28mm/459jwin2qj.sdf

>  <i_m_source_file_index>  (128) 
6

>  <i_lp_mmshare_version>  (128) 
48012

>  <i_f3d_flags>  (128) 
0

>  <s_epik_input>  (128) 
W0NIM11PQyg9TylbQ0BAXTEyW0NAQEhdKE9bQ0gyXVtDSDJdMSlbQ0gyXVtDSDJdTihbQ0gyXTIpW0NIMl1jM25bY0hdb24z

>  <s_epik_cmdline>  (128) 
J2VwaWtfcHl0aG9uJywgJy1waHQnLCAnMi4wJywgJy1waCcsICc3LjAnLCAnLXRuJywgJzgnLCAnLW1hJywgJzIwMCcsICctaW1hZScsICc8aW5maWxlLm1hZT4nLCAnLW9tYWUnLCAnPG91dGZpbGUubWFlPic=

>  <r_lp_tautomer_probability>  (128) 
1

>  <r_epik_Ionization_Penalty>  (128) 
2.18046

>  <r_epik_Ionization_Penalty_Charging>  (128) 
2.18046

>  <r_epik_Ionization_Penalty_Neutral>  (128) 
2.22202e-13

>  <r_epik_State_Penalty>  (128) 
2.32245

>  <r_epik_Charging_Adjusted_Penalty>  (128) 
4.50291

>  <i_epik_Tot_Q>  (128) 
1

>  <i_epik_Tot_abs_Q>  (128) 
1

>  <s_epik_Chemistry_Notes>  (128) 
This compound has an ester and may undergo hydrolysis at high or low pH.

>  <s_lp_Force_Field>  (128) 
OPLS3e

>  <r_lp_Energy>  (128) 
10.584

>  <b_lp_Chiralities_Consistent>  (128) 
1

>  <s_lp_Variant>  (128) 
38:0-2

>  <s_i_glide_gridfile>  (128) 
pfpi4k_grid

>  <i_i_glide_lignum>  (128) 
6

>  <i_i_glide_rotatable_bonds>  (128) 
4

>  <r_i_docking_score>  (128) 
-3.29271

>  <r_i_glide_ligand_efficiency>  (128) 
-0.1733

>  <r_i_glide_ligand_efficiency_sa>  (128) 
-0.462435

>  <r_i_glide_ligand_efficiency_ln>  (128) 
-0.834772

>  <r_i_glide_gscore>  (128) 
-3.29271

>  <r_i_glide_lipo>  (128) 
-0.451676

>  <r_i_glide_hbond>  (128) 
0

>  <r_i_glide_metal>  (128) 
-0

>  <r_i_glide_rewards>  (128) 
-1.57985

>  <r_i_glide_evdw>  (128) 
-24.4583

>  <r_i_glide_ecoul>  (128) 
-4.96868

>  <r_i_glide_erotb>  (128) 
0.743868

>  <r_i_glide_esite>  (128) 
-0.0368322

>  <r_i_glide_emodel>  (128) 
-35.1918

>  <r_i_glide_energy>  (128) 
-29.427

>  <r_i_glide_einternal>  (128) 
2.18624

>  <r_i_glide_intrahb_reward>  (128) 
-0

>  <i_i_glide_confnum>  (128) 
1

>  <i_i_glide_posenum>  (128) 
27

>  <r_i_glide_eff_state_penalty>  (128) 
0

>  <ligand_id>  (128) 
38

>  <original_smiles>  (128) 
COC(=O)C12CCOC1CCN(Cc1ncon1)C2

>  <smiles>  (128) 
[H]c1nc(C([H])([H])[N+]2([H])C([H])([H])C([H])([H])C3([H])OC([H])([H])C([H])([H])C3(C(=O)OC([H])([H])[H])C2([H])[H])no1

$$$$
40:0:0
     RDKit          3D

 31 32  0  0  1  0  0  0  0  0999 V2000
   -3.8016    3.3776    8.6948 C   0  0  0  0  0  0  0  0  0  0  0  0
   -2.8996    3.2752    7.6182 O   0  0  0  0  0  0  0  0  0  0  0  0
   -1.6328    3.8264    7.9383 C   0  0  0  0  0  0  0  0  0  0  0  0
   -0.7378    3.5158    6.7760 C   0  0  2  0  0  0  0  0  0  0  0  0
    0.3154    2.4154    6.9049 C   0  0  0  0  0  0  0  0  0  0  0  0
    0.7379    3.8676    6.7853 C   0  0  1  0  0  0  0  0  0  0  0  0
    1.4391    4.3785    5.5475 C   0  0  0  0  0  0  0  0  0  0  0  0
    2.3460    5.4420    5.6786 N   0  0  0  0  0  0  0  0  0  0  0  0
    2.9222    5.7780    4.5245 C   0  0  0  0  0  0  0  0  0  0  0  0
    2.4129    4.7985    3.1700 S   0  0  0  0  0  0  0  0  0  0  0  0
    1.3399    3.9370    4.2555 C   0  0  0  0  0  0  0  0  0  0  0  0
    0.4897    2.9162    3.6258 C   0  0  0  0  0  0  0  0  0  0  0  0
   -0.7339    3.1165    3.6104 O   0  0  0  0  0  0  0  0  0  0  0  0
    1.1856    1.8348    3.0877 N   0  0  0  0  0  0  0  0  0  0  0  0
    0.6219    1.0786    2.2100 C   0  0  0  0  0  0  0  0  0  0  0  0
   -0.6499    1.2100    1.6915 N   0  0  0  0  0  0  0  0  0  0  0  0
    1.2786   -0.0224    1.7021 N   0  0  0  0  0  0  0  0  0  0  0  0
   -4.7626    2.9472    8.4143 H   0  0  0  0  0  0  0  0  0  0  0  0
   -3.9566    4.4238    8.9561 H   0  0  0  0  0  0  0  0  0  0  0  0
   -3.4139    2.8389    9.5587 H   0  0  0  0  0  0  0  0  0  0  0  0
   -1.7018    4.9132    8.0365 H   0  0  0  0  0  0  0  0  0  0  0  0
   -1.2161    3.3921    8.8530 H   0  0  0  0  0  0  0  0  0  0  0  0
   -1.2524    3.7505    5.8452 H   0  0  0  0  0  0  0  0  0  0  0  0
    0.4386    1.9273    7.8750 H   0  0  0  0  0  0  0  0  0  0  0  0
    0.5364    1.7659    6.0587 H   0  0  0  0  0  0  0  0  0  0  0  0
    1.1237    4.3653    7.6768 H   0  0  0  0  0  0  0  0  0  0  0  0
    3.6424    6.5837    4.4729 H   0  0  0  0  0  0  0  0  0  0  0  0
   -1.1841    2.0400    1.9297 H   0  0  0  0  0  0  0  0  0  0  0  0
   -0.8865    0.9145    0.7238 H   0  0  0  0  0  0  0  0  0  0  0  0
    2.2459   -0.1922    1.9062 H   0  0  0  0  0  0  0  0  0  0  0  0
    1.0201   -0.3677    0.7649 H   0  0  0  0  0  0  0  0  0  0  0  0
  1  2  1  0
  1 18  1  0
  1 19  1  0
  1 20  1  0
  2  3  1  0
  3  4  1  0
  3 21  1  0
  3 22  1  0
  4  6  1  0
  4  5  1  0
  4 23  1  6
  5  6  1  0
  5 24  1  0
  5 25  1  0
  6  7  1  0
  6 26  1  1
  7 11  2  0
  7  8  1  0
  8  9  2  0
  9 10  1  0
  9 27  1  0
 10 11  1  0
 11 12  1  0
 12 13  2  0
 12 14  1  0
 14 15  2  3
 15 16  1  0
 15 17  1  0
 16 28  1  0
 16 29  1  0
 17 30  1  0
 17 31  1  0
M  END
>  <i_m_ct_stereo_status>  (129) 
1

>  <s_m_source_file>  (129) 
/var/tmp/pbs.5076255.sched01/tmpkddd28mm/459jwin2qj.sdf

>  <i_m_source_file_index>  (129) 
8

>  <i_lp_mmshare_version>  (129) 
48012

>  <i_f3d_flags>  (129) 
0

>  <s_epik_input>  (129) 
W0NIM11PW0NIMl1bQ0BASF0xW0NIMl1bQ0BIXTFjMm5bY0hdc2MyQyg9TylOPUMoW05IMl0pW05IMl0=

>  <s_epik_cmdline>  (129) 
J2VwaWtfcHl0aG9uJywgJy1waHQnLCAnMi4wJywgJy1waCcsICc3LjAnLCAnLXRuJywgJzgnLCAnLW1hJywgJzIwMCcsICctaW1hZScsICc8aW5maWxlLm1hZT4nLCAnLW9tYWUnLCAnPG91dGZpbGUubWFlPic=

>  <r_lp_tautomer_probability>  (129) 
0.499995

>  <r_epik_Ionization_Penalty>  (129) 
0.445162

>  <r_epik_Ionization_Penalty_Charging>  (129) 
0

>  <r_epik_Ionization_Penalty_Neutral>  (129) 
0.445162

>  <r_epik_State_Penalty>  (129) 
0.000166245

>  <r_epik_Charging_Adjusted_Penalty>  (129) 
0.000166245

>  <i_epik_Tot_Q>  (129) 
0

>  <i_epik_Tot_abs_Q>  (129) 
0

>  <s_epik_Chemistry_Notes>  (129) 
This compound has an imine and may undergo hydrolysis.

>  <s_lp_Force_Field>  (129) 
OPLS3e

>  <r_lp_Energy>  (129) 
11.8426

>  <b_lp_Chiralities_Consistent>  (129) 
1

>  <s_lp_Variant>  (129) 
40:0-1

>  <s_i_glide_gridfile>  (129) 
pfpi4k_grid

>  <i_i_glide_lignum>  (129) 
8

>  <i_i_glide_rotatable_bonds>  (129) 
5

>  <r_i_docking_score>  (129) 
-3.77427

>  <r_i_glide_ligand_efficiency>  (129) 
-0.222016

>  <r_i_glide_ligand_efficiency_sa>  (129) 
-0.570865

>  <r_i_glide_ligand_efficiency_ln>  (129) 
-0.984622

>  <r_i_glide_gscore>  (129) 
-3.77427

>  <r_i_glide_lipo>  (129) 
-0.0245246

>  <r_i_glide_hbond>  (129) 
-0.304

>  <r_i_glide_metal>  (129) 
-0

>  <r_i_glide_rewards>  (129) 
-2.17516

>  <r_i_glide_evdw>  (129) 
-17.8236

>  <r_i_glide_ecoul>  (129) 
-8.04254

>  <r_i_glide_erotb>  (129) 
1.08763

>  <r_i_glide_esite>  (129) 
-0.260646

>  <r_i_glide_emodel>  (129) 
-32.5343

>  <r_i_glide_energy>  (129) 
-25.8662

>  <r_i_glide_einternal>  (129) 
9.3816

>  <r_i_glide_intrahb_reward>  (129) 
-0.5

>  <i_i_glide_confnum>  (129) 
1

>  <i_i_glide_posenum>  (129) 
38

>  <r_i_glide_eff_state_penalty>  (129) 
0

>  <ligand_id>  (129) 
40

>  <original_smiles>  (129) 
COCC1CC1c1ncsc1C(=O)N=C(N)N

>  <smiles>  (129) 
[H]c1nc(C2([H])C([H])([H])C2([H])C([H])([H])OC([H])([H])[H])c(C(=O)N=C(N([H])[H])N([H])[H])s1

$$$$
40:0:1
     RDKit          3D

 31 32  0  0  1  0  0  0  0  0999 V2000
   -3.6624    3.4396    9.8184 C   0  0  0  0  0  0  0  0  0  0  0  0
   -2.6701    2.4741    9.5374 O   0  0  0  0  0  0  0  0  0  0  0  0
   -1.4084    3.0411    9.2293 C   0  0  0  0  0  0  0  0  0  0  0  0
   -1.4019    3.4953    7.7922 C   0  0  2  0  0  0  0  0  0  0  0  0
   -1.6355    2.4824    6.6981 C   0  0  0  0  0  0  0  0  0  0  0  0
   -0.2759    3.1353    6.8596 C   0  0  1  0  0  0  0  0  0  0  0  0
    0.2154    4.1397    5.8784 C   0  0  0  0  0  0  0  0  0  0  0  0
    0.7388    5.3539    6.3256 N   0  0  0  0  0  0  0  0  0  0  0  0
    1.1047    6.1427    5.3169 C   0  0  0  0  0  0  0  0  0  0  0  0
    0.8461    5.4488    3.7250 S   0  0  0  0  0  0  0  0  0  0  0  0
    0.1975    4.0246    4.5081 C   0  0  0  0  0  0  0  0  0  0  0  0
   -0.3278    2.9627    3.6365 C   0  0  0  0  0  0  0  0  0  0  0  0
   -1.5533    2.9401    3.4618 O   0  0  0  0  0  0  0  0  0  0  0  0
    0.6429    2.1186    3.1102 N   0  0  0  0  0  0  0  0  0  0  0  0
    0.3491    1.2405    2.2033 C   0  0  0  0  0  0  0  0  0  0  0  0
   -0.8844    0.9574    1.6821 N   0  0  0  0  0  0  0  0  0  0  0  0
    1.3335    0.4720    1.6324 N   0  0  0  0  0  0  0  0  0  0  0  0
   -4.6036    2.9416   10.0433 H   0  0  0  0  0  0  0  0  0  0  0  0
   -3.8280    4.1147    8.9776 H   0  0  0  0  0  0  0  0  0  0  0  0
   -3.3751    4.0313   10.6885 H   0  0  0  0  0  0  0  0  0  0  0  0
   -1.1305    3.8582    9.8969 H   0  0  0  0  0  0  0  0  0  0  0  0
   -0.6607    2.2588    9.3481 H   0  0  0  0  0  0  0  0  0  0  0  0
   -1.8592    4.4688    7.6348 H   0  0  0  0  0  0  0  0  0  0  0  0
   -1.7208    1.4346    6.9750 H   0  0  0  0  0  0  0  0  0  0  0  0
   -2.2597    2.7957    5.8635 H   0  0  0  0  0  0  0  0  0  0  0  0
    0.5460    2.5495    7.2600 H   0  0  0  0  0  0  0  0  0  0  0  0
    1.5194    7.1181    5.5333 H   0  0  0  0  0  0  0  0  0  0  0  0
   -1.6534    1.5645    1.9166 H   0  0  0  0  0  0  0  0  0  0  0  0
   -0.9785    0.6078    0.7039 H   0  0  0  0  0  0  0  0  0  0  0  0
    2.3097    0.5680    1.8741 H   0  0  0  0  0  0  0  0  0  0  0  0
    1.1833   -0.0485    0.7598 H   0  0  0  0  0  0  0  0  0  0  0  0
  1  2  1  0
  1 18  1  0
  1 19  1  0
  1 20  1  0
  2  3  1  0
  3  4  1  0
  3 21  1  0
  3 22  1  0
  4  6  1  0
  4  5  1  0
  4 23  1  1
  5  6  1  0
  5 24  1  0
  5 25  1  0
  6  7  1  0
  6 26  1  1
  7 11  2  0
  7  8  1  0
  8  9  2  0
  9 10  1  0
  9 27  1  0
 10 11  1  0
 11 12  1  0
 12 13  2  0
 12 14  1  0
 14 15  2  3
 15 16  1  0
 15 17  1  0
 16 28  1  0
 16 29  1  0
 17 30  1  0
 17 31  1  0
M  END
>  <i_m_ct_stereo_status>  (130) 
1

>  <s_m_source_file>  (130) 
/var/tmp/pbs.5076255.sched01/tmpkddd28mm/459jwin2qj.sdf

>  <i_m_source_file_index>  (130) 
8

>  <i_lp_mmshare_version>  (130) 
48012

>  <i_f3d_flags>  (130) 
0

>  <s_epik_input>  (130) 
W0NIM11PW0NIMl1bQ0BASF0xW0NIMl1bQ0BIXTFjMm5bY0hdc2MyQyg9TylOPUMoW05IMl0pW05IMl0=

>  <s_epik_cmdline>  (130) 
J2VwaWtfcHl0aG9uJywgJy1waHQnLCAnMi4wJywgJy1waCcsICc3LjAnLCAnLXRuJywgJzgnLCAnLW1hJywgJzIwMCcsICctaW1hZScsICc8aW5maWxlLm1hZT4nLCAnLW9tYWUnLCAnPG91dGZpbGUubWFlPic=

>  <r_lp_tautomer_probability>  (130) 
0.499995

>  <r_epik_Ionization_Penalty>  (130) 
0.445162

>  <r_epik_Ionization_Penalty_Charging>  (130) 
0

>  <r_epik_Ionization_Penalty_Neutral>  (130) 
0.445162

>  <r_epik_State_Penalty>  (130) 
0.000166245

>  <r_epik_Charging_Adjusted_Penalty>  (130) 
0.000166245

>  <i_epik_Tot_Q>  (130) 
0

>  <i_epik_Tot_abs_Q>  (130) 
0

>  <s_epik_Chemistry_Notes>  (130) 
This compound has an imine and may undergo hydrolysis.

>  <s_lp_Force_Field>  (130) 
OPLS3e

>  <r_lp_Energy>  (130) 
11.8426

>  <b_lp_Chiralities_Consistent>  (130) 
1

>  <s_lp_Variant>  (130) 
40:0-1

>  <s_i_glide_gridfile>  (130) 
pfpi4k_grid

>  <i_i_glide_lignum>  (130) 
8

>  <i_i_glide_rotatable_bonds>  (130) 
5

>  <r_i_docking_score>  (130) 
-3.66795

>  <r_i_glide_ligand_efficiency>  (130) 
-0.215762

>  <r_i_glide_ligand_efficiency_sa>  (130) 
-0.554785

>  <r_i_glide_ligand_efficiency_ln>  (130) 
-0.956887

>  <r_i_glide_gscore>  (130) 
-3.66795

>  <r_i_glide_lipo>  (130) 
-0.0383366

>  <r_i_glide_hbond>  (130) 
-0.303182

>  <r_i_glide_metal>  (130) 
-0

>  <r_i_glide_rewards>  (130) 
-2.17516

>  <r_i_glide_evdw>  (130) 
-17.3214

>  <r_i_glide_ecoul>  (130) 
-7.50431

>  <r_i_glide_erotb>  (130) 
1.08763

>  <r_i_glide_esite>  (130) 
-0.247184

>  <r_i_glide_emodel>  (130) 
-33.0782

>  <r_i_glide_energy>  (130) 
-24.8257

>  <r_i_glide_einternal>  (130) 
6.2423

>  <r_i_glide_intrahb_reward>  (130) 
-0.5

>  <i_i_glide_confnum>  (130) 
1

>  <i_i_glide_posenum>  (130) 
1

>  <r_i_glide_eff_state_penalty>  (130) 
0

>  <ligand_id>  (130) 
40

>  <original_smiles>  (130) 
COCC1CC1c1ncsc1C(=O)N=C(N)N

>  <smiles>  (130) 
[H]c1nc(C2([H])C([H])([H])C2([H])C([H])([H])OC([H])([H])[H])c(C(=O)N=C(N([H])[H])N([H])[H])s1

$$$$
40:0:2
     RDKit          3D

 31 32  0  0  1  0  0  0  0  0999 V2000
   -3.3772    3.0465   10.3496 C   0  0  0  0  0  0  0  0  0  0  0  0
   -3.3823    4.2305    9.5483 O   0  0  0  0  0  0  0  0  0  0  0  0
   -2.2980    4.3660    8.6449 C   0  0  0  0  0  0  0  0  0  0  0  0
   -2.4890    3.4533    7.4616 C   0  0  2  0  0  0  0  0  0  0  0  0
   -2.2593    1.9789    7.6197 C   0  0  0  0  0  0  0  0  0  0  0  0
   -1.3162    2.7950    6.7845 C   0  0  1  0  0  0  0  0  0  0  0  0
   -1.2993    2.5978    5.3143 C   0  0  0  0  0  0  0  0  0  0  0  0
   -1.4029    3.7292    4.5043 N   0  0  0  0  0  0  0  0  0  0  0  0
   -1.3776    3.4055    3.2133 C   0  0  0  0  0  0  0  0  0  0  0  0
   -1.1662    1.7026    2.8797 S   0  0  0  0  0  0  0  0  0  0  0  0
   -1.1830    1.4135    4.6178 C   0  0  0  0  0  0  0  0  0  0  0  0
   -1.0989    0.0126    5.1158 C   0  0  0  0  0  0  0  0  0  0  0  0
   -1.8530   -0.3504    6.0311 O   0  0  0  0  0  0  0  0  0  0  0  0
   -0.1655   -0.8015    4.4750 N   0  0  0  0  0  0  0  0  0  0  0  0
   -0.0023   -2.0415    4.8329 C   0  0  0  0  0  0  0  0  0  0  0  0
   -0.6177   -2.7075    5.8769 N   0  0  0  0  0  0  0  0  0  0  0  0
    0.8510   -2.8626    4.1347 N   0  0  0  0  0  0  0  0  0  0  0  0
   -4.2024    3.0691   11.0670 H   0  0  0  0  0  0  0  0  0  0  0  0
   -2.4457    2.9838   10.9116 H   0  0  0  0  0  0  0  0  0  0  0  0
   -3.4889    2.1510    9.7595 H   0  0  0  0  0  0  0  0  0  0  0  0
   -2.2524    5.3929    8.2726 H   0  0  0  0  0  0  0  0  0  0  0  0
   -1.3463    4.1527    9.1347 H   0  0  0  0  0  0  0  0  0  0  0  0
   -3.3104    3.7337    6.7960 H   0  0  0  0  0  0  0  0  0  0  0  0
   -1.8122    1.5661    8.5247 H   0  0  0  0  0  0  0  0  0  0  0  0
   -3.0509    1.3866    7.1652 H   0  0  0  0  0  0  0  0  0  0  0  0
   -0.3146    2.9893    7.1825 H   0  0  0  0  0  0  0  0  0  0  0  0
   -1.4376    4.1654    2.4666 H   0  0  0  0  0  0  0  0  0  0  0  0
   -1.3090   -2.2088    6.4260 H   0  0  0  0  0  0  0  0  0  0  0  0
   -0.6176   -3.7105    6.0163 H   0  0  0  0  0  0  0  0  0  0  0  0
    1.3345   -2.5428    3.3071 H   0  0  0  0  0  0  0  0  0  0  0  0
    0.8608   -3.8693    4.2506 H   0  0  0  0  0  0  0  0  0  0  0  0
  1  2  1  0
  1 18  1  0
  1 19  1  0
  1 20  1  0
  2  3  1  0
  3  4  1  0
  3 21  1  0
  3 22  1  0
  4  6  1  0
  4  5  1  0
  4 23  1  6
  5  6  1  0
  5 24  1  0
  5 25  1  0
  6  7  1  0
  6 26  1  1
  7 11  2  0
  7  8  1  0
  8  9  2  0
  9 10  1  0
  9 27  1  0
 10 11  1  0
 11 12  1  0
 12 13  2  0
 12 14  1  0
 14 15  2  3
 15 16  1  0
 15 17  1  0
 16 28  1  0
 16 29  1  0
 17 30  1  0
 17 31  1  0
M  END
>  <i_m_ct_stereo_status>  (131) 
1

>  <s_m_source_file>  (131) 
/var/tmp/pbs.5076255.sched01/tmpkddd28mm/459jwin2qj.sdf

>  <i_m_source_file_index>  (131) 
8

>  <i_lp_mmshare_version>  (131) 
48012

>  <i_f3d_flags>  (131) 
0

>  <s_epik_input>  (131) 
W0NIM11PW0NIMl1bQ0BASF0xW0NIMl1bQ0BIXTFjMm5bY0hdc2MyQyg9TylOPUMoW05IMl0pW05IMl0=

>  <s_epik_cmdline>  (131) 
J2VwaWtfcHl0aG9uJywgJy1waHQnLCAnMi4wJywgJy1waCcsICc3LjAnLCAnLXRuJywgJzgnLCAnLW1hJywgJzIwMCcsICctaW1hZScsICc8aW5maWxlLm1hZT4nLCAnLW9tYWUnLCAnPG91dGZpbGUubWFlPic=

>  <r_lp_tautomer_probability>  (131) 
0.499995

>  <r_epik_Ionization_Penalty>  (131) 
0.445162

>  <r_epik_Ionization_Penalty_Charging>  (131) 
0

>  <r_epik_Ionization_Penalty_Neutral>  (131) 
0.445162

>  <r_epik_State_Penalty>  (131) 
0.000166245

>  <r_epik_Charging_Adjusted_Penalty>  (131) 
0.000166245

>  <i_epik_Tot_Q>  (131) 
0

>  <i_epik_Tot_abs_Q>  (131) 
0

>  <s_epik_Chemistry_Notes>  (131) 
This compound has an imine and may undergo hydrolysis.

>  <s_lp_Force_Field>  (131) 
OPLS3e

>  <r_lp_Energy>  (131) 
11.8426

>  <b_lp_Chiralities_Consistent>  (131) 
1

>  <s_lp_Variant>  (131) 
40:0-1

>  <s_i_glide_gridfile>  (131) 
pfpi4k_grid

>  <i_i_glide_lignum>  (131) 
8

>  <i_i_glide_rotatable_bonds>  (131) 
5

>  <r_i_docking_score>  (131) 
-3.08571

>  <r_i_glide_ligand_efficiency>  (131) 
-0.181512

>  <r_i_glide_ligand_efficiency_sa>  (131) 
-0.466719

>  <r_i_glide_ligand_efficiency_ln>  (131) 
-0.804992

>  <r_i_glide_gscore>  (131) 
-3.08571

>  <r_i_glide_lipo>  (131) 
-0.157924

>  <r_i_glide_hbond>  (131) 
-0.135164

>  <r_i_glide_metal>  (131) 
-0

>  <r_i_glide_rewards>  (131) 
-2.17516

>  <r_i_glide_evdw>  (131) 
-21.7076

>  <r_i_glide_ecoul>  (131) 
-3.72128

>  <r_i_glide_erotb>  (131) 
1.08763

>  <r_i_glide_esite>  (131) 
-0.0615122

>  <r_i_glide_emodel>  (131) 
-33.3634

>  <r_i_glide_energy>  (131) 
-25.4289

>  <r_i_glide_einternal>  (131) 
4.26377

>  <r_i_glide_intrahb_reward>  (131) 
-0.5

>  <i_i_glide_confnum>  (131) 
1

>  <i_i_glide_posenum>  (131) 
2

>  <r_i_glide_eff_state_penalty>  (131) 
0

>  <ligand_id>  (131) 
40

>  <original_smiles>  (131) 
COCC1CC1c1ncsc1C(=O)N=C(N)N

>  <smiles>  (131) 
[H]c1nc(C2([H])C([H])([H])C2([H])C([H])([H])OC([H])([H])[H])c(C(=O)N=C(N([H])[H])N([H])[H])s1

$$$$
42:0:0
     RDKit          3D

 21 22  0  0  1  0  0  0  0  0999 V2000
   -3.3816    2.8227    7.3370 C   0  0  0  0  0  0  0  0  0  0  0  0
   -2.1328    3.3230    6.7881 N   0  0  0  0  0  0  0  0  0  0  0  0
   -1.0302    3.4846    7.7249 C   0  0  0  0  0  0  0  0  0  0  0  0
   -1.7705    2.7535    5.5553 C   0  0  0  0  0  0  0  0  0  0  0  0
   -1.7631    3.5359    4.5153 N   0  0  0  0  0  0  0  0  0  0  0  0
   -1.3913    3.0023    3.2943 C   0  0  0  0  0  0  0  0  0  0  0  0
   -1.0514    1.7262    3.1133 N   0  0  0  0  0  0  0  0  0  0  0  0
   -1.0735    0.9290    4.1855 C   0  0  0  0  0  0  0  0  0  0  0  0
   -0.7937   -0.3948    4.3835 C   0  0  0  0  0  0  0  0  0  0  0  0
   -0.9974   -0.6169    5.7637 C   0  0  0  0  0  0  0  0  0  0  0  0
   -1.4028    0.4494    6.4195 N   0  0  0  0  0  0  0  0  0  0  0  0
   -1.4403    1.4288    5.4447 N   0  0  0  0  0  0  0  0  0  0  0  0
   -3.6471    3.3722    8.2403 H   0  0  0  0  0  0  0  0  0  0  0  0
   -3.3004    1.7701    7.6001 H   0  0  0  0  0  0  0  0  0  0  0  0
   -4.1824    2.9415    6.6072 H   0  0  0  0  0  0  0  0  0  0  0  0
   -1.3768    4.0093    8.6157 H   0  0  0  0  0  0  0  0  0  0  0  0
   -0.2183    4.0647    7.2830 H   0  0  0  0  0  0  0  0  0  0  0  0
   -0.6403    2.5160    8.0398 H   0  0  0  0  0  0  0  0  0  0  0  0
   -1.3875    3.6791    2.4464 H   0  0  0  0  0  0  0  0  0  0  0  0
   -0.4677   -1.1008    3.6404 H   0  0  0  0  0  0  0  0  0  0  0  0
   -0.8611   -1.5519    6.2950 H   0  0  0  0  0  0  0  0  0  0  0  0
  1  2  1  0
  1 13  1  0
  1 14  1  0
  1 15  1  0
  2  3  1  0
  2  4  1  0
  3 16  1  0
  3 17  1  0
  3 18  1  0
  4 12  1  0
  4  5  2  0
  5  6  1  0
  6  7  2  0
  6 19  1  0
  7  8  1  0
  8 12  1  0
  8  9  2  0
  9 10  1  0
  9 20  1  0
 10 11  2  0
 10 21  1  0
 11 12  1  0
M  END
>  <i_m_ct_stereo_status>  (132) 
1

>  <s_m_source_file>  (132) 
/var/tmp/pbs.5076255.sched01/tmpkddd28mm/459jwin2qj.sdf

>  <i_m_source_file_index>  (132) 
10

>  <i_lp_mmshare_version>  (132) 
48012

>  <i_f3d_flags>  (132) 
0

>  <s_epik_input>  (132) 
bjFbY0hdbmMoTihbQ0gzXSlbQ0gzXSluKGMxMiluW2NIXVtjSF0y

>  <s_epik_cmdline>  (132) 
J2VwaWtfcHl0aG9uJywgJy1waHQnLCAnMi4wJywgJy1waCcsICc3LjAnLCAnLXRuJywgJzgnLCAnLW1hJywgJzIwMCcsICctaW1hZScsICc8aW5maWxlLm1hZT4nLCAnLW9tYWUnLCAnPG91dGZpbGUubWFlPic=

>  <r_lp_tautomer_probability>  (132) 
1

>  <r_epik_Ionization_Penalty>  (132) 
0.000218332

>  <r_epik_Ionization_Penalty_Charging>  (132) 
0

>  <r_epik_Ionization_Penalty_Neutral>  (132) 
0.000218332

>  <r_epik_State_Penalty>  (132) 
-0

>  <r_epik_Charging_Adjusted_Penalty>  (132) 
0

>  <i_epik_Tot_Q>  (132) 
0

>  <i_epik_Tot_abs_Q>  (132) 
0

>  <s_lp_Force_Field>  (132) 
OPLS3e

>  <r_lp_Energy>  (132) 
32.9441

>  <b_lp_Chiralities_Consistent>  (132) 
1

>  <s_lp_Variant>  (132) 
42:0-1

>  <s_i_glide_gridfile>  (132) 
pfpi4k_grid

>  <i_i_glide_lignum>  (132) 
10

>  <i_i_glide_rotatable_bonds>  (132) 
1

>  <r_i_docking_score>  (132) 
-4.1247

>  <r_i_glide_ligand_efficiency>  (132) 
-0.343725

>  <r_i_glide_ligand_efficiency_sa>  (132) 
-0.786934

>  <r_i_glide_ligand_efficiency_ln>  (132) 
-1.18359

>  <r_i_glide_gscore>  (132) 
-4.1247

>  <r_i_glide_lipo>  (132) 
-0.144057

>  <r_i_glide_hbond>  (132) 
-0.124346

>  <r_i_glide_metal>  (132) 
-0

>  <r_i_glide_rewards>  (132) 
-2.4199

>  <r_i_glide_evdw>  (132) 
-15.2011

>  <r_i_glide_ecoul>  (132) 
-3.77036

>  <r_i_glide_erotb>  (132) 
0

>  <r_i_glide_esite>  (132) 
-0.110793

>  <r_i_glide_emodel>  (132) 
-23.6095

>  <r_i_glide_energy>  (132) 
-18.9714

>  <r_i_glide_einternal>  (132) 
2.08341

>  <r_i_glide_intrahb_reward>  (132) 
-0

>  <i_i_glide_confnum>  (132) 
2

>  <i_i_glide_posenum>  (132) 
28

>  <r_i_glide_eff_state_penalty>  (132) 
0

>  <ligand_id>  (132) 
42

>  <original_smiles>  (132) 
CN(C)c1ncnc2ccnn12

>  <smiles>  (132) 
[H]c1nc(N(C([H])([H])[H])C([H])([H])[H])n2nc([H])c([H])c2n1

$$$$
42:0:1
     RDKit          3D

 21 22  0  0  1  0  0  0  0  0999 V2000
    5.0644   -0.3232    0.9260 C   0  0  0  0  0  0  0  0  0  0  0  0
    5.5568   -1.2947   -0.0401 N   0  0  0  0  0  0  0  0  0  0  0  0
    6.5095   -2.2542    0.5165 C   0  0  0  0  0  0  0  0  0  0  0  0
    4.4995   -1.8737   -0.7780 C   0  0  0  0  0  0  0  0  0  0  0  0
    3.9182   -2.9455   -0.3205 N   0  0  0  0  0  0  0  0  0  0  0  0
    2.9039   -3.5120   -1.0632 C   0  0  0  0  0  0  0  0  0  0  0  0
    2.4978   -3.0589   -2.2455 N   0  0  0  0  0  0  0  0  0  0  0  0
    3.1116   -1.9760   -2.7199 C   0  0  0  0  0  0  0  0  0  0  0  0
    2.9958   -1.2702   -3.8759 C   0  0  0  0  0  0  0  0  0  0  0  0
    3.9069   -0.2008   -3.7396 C   0  0  0  0  0  0  0  0  0  0  0  0
    4.6157   -0.2570   -2.6373 N   0  0  0  0  0  0  0  0  0  0  0  0
    4.1255   -1.3480   -1.9781 N   0  0  0  0  0  0  0  0  0  0  0  0
    5.8977    0.1193    1.4671 H   0  0  0  0  0  0  0  0  0  0  0  0
    4.4166   -0.7952    1.6651 H   0  0  0  0  0  0  0  0  0  0  0  0
    4.5119    0.4849    0.4477 H   0  0  0  0  0  0  0  0  0  0  0  0
    7.3026   -1.7444    1.0628 H   0  0  0  0  0  0  0  0  0  0  0  0
    6.9731   -2.8484   -0.2701 H   0  0  0  0  0  0  0  0  0  0  0  0
    6.0378   -2.9455    1.2157 H   0  0  0  0  0  0  0  0  0  0  0  0
    2.4470   -4.4088   -0.6569 H   0  0  0  0  0  0  0  0  0  0  0  0
    2.2903   -1.4536   -4.6614 H   0  0  0  0  0  0  0  0  0  0  0  0
    4.0792    0.5994   -4.4430 H   0  0  0  0  0  0  0  0  0  0  0  0
  1  2  1  0
  1 13  1  0
  1 14  1  0
  1 15  1  0
  2  3  1  0
  2  4  1  0
  3 16  1  0
  3 17  1  0
  3 18  1  0
  4 12  1  0
  4  5  2  0
  5  6  1  0
  6  7  2  0
  6 19  1  0
  7  8  1  0
  8 12  1  0
  8  9  2  0
  9 10  1  0
  9 20  1  0
 10 11  2  0
 10 21  1  0
 11 12  1  0
M  END
>  <i_m_ct_stereo_status>  (133) 
1

>  <s_m_source_file>  (133) 
/var/tmp/pbs.5076255.sched01/tmpkddd28mm/459jwin2qj.sdf

>  <i_m_source_file_index>  (133) 
10

>  <i_lp_mmshare_version>  (133) 
48012

>  <i_f3d_flags>  (133) 
0

>  <s_epik_input>  (133) 
bjFbY0hdbmMoTihbQ0gzXSlbQ0gzXSluKGMxMiluW2NIXVtjSF0y

>  <s_epik_cmdline>  (133) 
J2VwaWtfcHl0aG9uJywgJy1waHQnLCAnMi4wJywgJy1waCcsICc3LjAnLCAnLXRuJywgJzgnLCAnLW1hJywgJzIwMCcsICctaW1hZScsICc8aW5maWxlLm1hZT4nLCAnLW9tYWUnLCAnPG91dGZpbGUubWFlPic=

>  <r_lp_tautomer_probability>  (133) 
1

>  <r_epik_Ionization_Penalty>  (133) 
0.000218332

>  <r_epik_Ionization_Penalty_Charging>  (133) 
0

>  <r_epik_Ionization_Penalty_Neutral>  (133) 
0.000218332

>  <r_epik_State_Penalty>  (133) 
-0

>  <r_epik_Charging_Adjusted_Penalty>  (133) 
0

>  <i_epik_Tot_Q>  (133) 
0

>  <i_epik_Tot_abs_Q>  (133) 
0

>  <s_lp_Force_Field>  (133) 
OPLS3e

>  <r_lp_Energy>  (133) 
32.9441

>  <b_lp_Chiralities_Consistent>  (133) 
1

>  <s_lp_Variant>  (133) 
42:0-1

>  <s_i_glide_gridfile>  (133) 
pfpi4k_grid

>  <i_i_glide_lignum>  (133) 
10

>  <i_i_glide_rotatable_bonds>  (133) 
1

>  <r_i_docking_score>  (133) 
-4.03789

>  <r_i_glide_ligand_efficiency>  (133) 
-0.336491

>  <r_i_glide_ligand_efficiency_sa>  (133) 
-0.770372

>  <r_i_glide_ligand_efficiency_ln>  (133) 
-1.15868

>  <r_i_glide_gscore>  (133) 
-4.03789

>  <r_i_glide_lipo>  (133) 
-0.578139

>  <r_i_glide_hbond>  (133) 
0

>  <r_i_glide_metal>  (133) 
-0

>  <r_i_glide_rewards>  (133) 
-2.30037

>  <r_i_glide_evdw>  (133) 
-18.0386

>  <r_i_glide_ecoul>  (133) 
-0.908883

>  <r_i_glide_erotb>  (133) 
0

>  <r_i_glide_esite>  (133) 
-0.121115

>  <r_i_glide_emodel>  (133) 
-24.1569

>  <r_i_glide_energy>  (133) 
-18.9475

>  <r_i_glide_einternal>  (133) 
0.541411

>  <r_i_glide_intrahb_reward>  (133) 
-0

>  <i_i_glide_confnum>  (133) 
4

>  <i_i_glide_posenum>  (133) 
10

>  <r_i_glide_eff_state_penalty>  (133) 
0

>  <ligand_id>  (133) 
42

>  <original_smiles>  (133) 
CN(C)c1ncnc2ccnn12

>  <smiles>  (133) 
[H]c1nc(N(C([H])([H])[H])C([H])([H])[H])n2nc([H])c([H])c2n1

$$$$
42:0:2
     RDKit          3D

 21 22  0  0  1  0  0  0  0  0999 V2000
   -3.3855    2.9655    7.3564 C   0  0  0  0  0  0  0  0  0  0  0  0
   -2.3866    1.9115    7.2209 N   0  0  0  0  0  0  0  0  0  0  0  0
   -1.4490    1.8286    8.3358 C   0  0  0  0  0  0  0  0  0  0  0  0
   -1.7662    1.8441    5.9482 C   0  0  0  0  0  0  0  0  0  0  0  0
   -1.7116    2.9149    5.2043 N   0  0  0  0  0  0  0  0  0  0  0  0
   -1.1201    2.8362    3.9588 C   0  0  0  0  0  0  0  0  0  0  0  0
   -0.5797    1.7256    3.4680 N   0  0  0  0  0  0  0  0  0  0  0  0
   -0.6339    0.6299    4.2301 C   0  0  0  0  0  0  0  0  0  0  0  0
   -0.1952   -0.6530    4.0642 C   0  0  0  0  0  0  0  0  0  0  0  0
   -0.5790   -1.3384    5.2391 C   0  0  0  0  0  0  0  0  0  0  0  0
   -1.2378   -0.5805    6.0917 N   0  0  0  0  0  0  0  0  0  0  0  0
   -1.2452    0.6614    5.4933 N   0  0  0  0  0  0  0  0  0  0  0  0
   -4.0948    2.9378    6.5269 H   0  0  0  0  0  0  0  0  0  0  0  0
   -2.9114    3.9475    7.3474 H   0  0  0  0  0  0  0  0  0  0  0  0
   -3.9483    2.8819    8.2873 H   0  0  0  0  0  0  0  0  0  0  0  0
   -0.7809    0.9701    8.2552 H   0  0  0  0  0  0  0  0  0  0  0  0
   -1.9955    1.7443    9.2762 H   0  0  0  0  0  0  0  0  0  0  0  0
   -0.8441    2.7353    8.3892 H   0  0  0  0  0  0  0  0  0  0  0  0
   -1.0895    3.7470    3.3735 H   0  0  0  0  0  0  0  0  0  0  0  0
    0.3237   -1.0327    3.1984 H   0  0  0  0  0  0  0  0  0  0  0  0
   -0.3935   -2.3849    5.4649 H   0  0  0  0  0  0  0  0  0  0  0  0
  1  2  1  0
  1 13  1  0
  1 14  1  0
  1 15  1  0
  2  3  1  0
  2  4  1  0
  3 16  1  0
  3 17  1  0
  3 18  1  0
  4 12  1  0
  4  5  2  0
  5  6  1  0
  6  7  2  0
  6 19  1  0
  7  8  1  0
  8 12  1  0
  8  9  2  0
  9 10  1  0
  9 20  1  0
 10 11  2  0
 10 21  1  0
 11 12  1  0
M  END
>  <i_m_ct_stereo_status>  (134) 
1

>  <s_m_source_file>  (134) 
/var/tmp/pbs.5076255.sched01/tmpkddd28mm/459jwin2qj.sdf

>  <i_m_source_file_index>  (134) 
10

>  <i_lp_mmshare_version>  (134) 
48012

>  <i_f3d_flags>  (134) 
0

>  <s_epik_input>  (134) 
bjFbY0hdbmMoTihbQ0gzXSlbQ0gzXSluKGMxMiluW2NIXVtjSF0y

>  <s_epik_cmdline>  (134) 
J2VwaWtfcHl0aG9uJywgJy1waHQnLCAnMi4wJywgJy1waCcsICc3LjAnLCAnLXRuJywgJzgnLCAnLW1hJywgJzIwMCcsICctaW1hZScsICc8aW5maWxlLm1hZT4nLCAnLW9tYWUnLCAnPG91dGZpbGUubWFlPic=

>  <r_lp_tautomer_probability>  (134) 
1

>  <r_epik_Ionization_Penalty>  (134) 
0.000218332

>  <r_epik_Ionization_Penalty_Charging>  (134) 
0

>  <r_epik_Ionization_Penalty_Neutral>  (134) 
0.000218332

>  <r_epik_State_Penalty>  (134) 
-0

>  <r_epik_Charging_Adjusted_Penalty>  (134) 
0

>  <i_epik_Tot_Q>  (134) 
0

>  <i_epik_Tot_abs_Q>  (134) 
0

>  <s_lp_Force_Field>  (134) 
OPLS3e

>  <r_lp_Energy>  (134) 
32.9441

>  <b_lp_Chiralities_Consistent>  (134) 
1

>  <s_lp_Variant>  (134) 
42:0-1

>  <s_i_glide_gridfile>  (134) 
pfpi4k_grid

>  <i_i_glide_lignum>  (134) 
10

>  <i_i_glide_rotatable_bonds>  (134) 
1

>  <r_i_docking_score>  (134) 
-3.84775

>  <r_i_glide_ligand_efficiency>  (134) 
-0.320646

>  <r_i_glide_ligand_efficiency_sa>  (134) 
-0.734095

>  <r_i_glide_ligand_efficiency_ln>  (134) 
-1.10412

>  <r_i_glide_gscore>  (134) 
-3.84775

>  <r_i_glide_lipo>  (134) 
-0.12819

>  <r_i_glide_hbond>  (134) 
-0.0646064

>  <r_i_glide_metal>  (134) 
-0

>  <r_i_glide_rewards>  (134) 
-2.25

>  <r_i_glide_evdw>  (134) 
-14.5308

>  <r_i_glide_ecoul>  (134) 
-3.64119

>  <r_i_glide_erotb>  (134) 
0

>  <r_i_glide_esite>  (134) 
-0.132234

>  <r_i_glide_emodel>  (134) 
-23.4402

>  <r_i_glide_energy>  (134) 
-18.172

>  <r_i_glide_einternal>  (134) 
0.00473109

>  <r_i_glide_intrahb_reward>  (134) 
-0

>  <i_i_glide_confnum>  (134) 
3

>  <i_i_glide_posenum>  (134) 
35

>  <r_i_glide_eff_state_penalty>  (134) 
0

>  <ligand_id>  (134) 
42

>  <original_smiles>  (134) 
CN(C)c1ncnc2ccnn12

>  <smiles>  (134) 
[H]c1nc(N(C([H])([H])[H])C([H])([H])[H])n2nc([H])c([H])c2n1

$$$$
43:0:0
     RDKit          3D

 82 88  0  0  1  0  0  0  0  0999 V2000
   -2.3273    2.4482    4.7762 C   0  0  0  0  0  0  0  0  0  0  0  0
   -1.2904    3.5400    4.4394 C   0  0  0  0  0  0  0  0  0  0  0  0
   -1.7526    4.2798    3.1682 C   0  0  0  0  0  0  0  0  0  0  0  0
   -1.0543    4.5207    5.6364 C   0  0  0  0  0  0  0  0  0  0  0  0
    0.2770    4.1433    6.3518 C   0  0  0  0  0  0  0  0  0  0  0  0
    0.5954    2.7977    5.7223 C   0  0  1  0  0  0  0  0  0  0  0  0
    0.1366    3.0081    4.2984 C   0  0  1  0  0  0  0  0  0  0  0  0
    0.6318    1.7339    3.5968 C   0  0  1  0  0  0  0  0  0  0  0  0
    0.4703    1.7558    2.1893 O   0  0  0  0  0  0  0  0  0  0  0  0
    2.1097    1.6749    4.1038 C   0  0  1  0  0  0  0  0  0  0  0  0
    2.9649    2.5528    3.1659 C   0  0  0  0  0  0  0  0  0  0  0  0
    1.9845    2.1862    5.5793 C   0  0  2  0  0  0  0  0  0  0  0  0
    2.1204    0.7077    5.9793 C   0  0  2  0  0  0  0  0  0  0  0  0
    2.7964    0.1398    7.2117 C   0  0  0  0  0  0  0  0  0  0  0  0
    3.1938   -1.3410    6.9353 C   0  0  0  0  0  0  0  0  0  0  0  0
    2.5751   -1.9876    5.6432 C   0  0  2  0  0  0  0  0  0  0  0  0
    3.0027   -3.4878    5.5289 C   0  0  1  0  0  0  0  0  0  0  0  0
    1.9175   -4.3866    5.0190 C   0  0  0  0  0  0  0  0  0  0  0  0
    0.7951   -4.4393    5.7514 O   0  0  0  0  0  0  0  0  0  0  0  0
    2.2243   -5.1023    3.9466 C   0  0  0  0  0  0  0  0  0  0  0  0
    3.5431   -4.8194    3.5291 C   0  0  0  0  0  0  0  0  0  0  0  0
    4.1016   -5.3172    2.4585 N   0  0  0  0  0  0  0  0  0  0  0  0
    5.4535   -5.0317    1.9459 C   0  0  0  0  0  0  0  0  0  0  0  0
    5.7193   -6.0302    0.8275 C   0  0  0  0  0  0  0  0  0  0  0  0
    4.3308   -6.3675    0.2996 C   0  0  0  0  0  0  0  0  0  0  0  0
    3.4294   -6.2588    1.5335 C   0  0  0  0  0  0  0  0  0  0  0  0
    4.1794   -3.8436    4.5562 C   0  0  2  0  0  0  0  0  0  0  0  0
    5.2862   -4.5800    5.3490 C   0  0  0  0  0  0  0  0  0  0  0  0
    4.7602   -2.5558    3.9193 C   0  0  0  0  0  0  0  0  0  0  0  0
    3.6827   -1.6710    3.2836 C   0  0  0  0  0  0  0  0  0  0  0  0
    2.6305   -1.1224    4.2985 C   0  0  1  0  0  0  0  0  0  0  0  0
    1.2749   -1.3523    3.5752 C   0  0  0  0  0  0  0  0  0  0  0  0
    2.8660    0.4041    4.6874 C   0  0  1  0  0  0  0  0  0  0  0  0
    4.4018    0.6776    4.8157 C   0  0  0  0  0  0  0  0  0  0  0  0
   -3.3235    2.8851    4.8543 H   0  0  0  0  0  0  0  0  0  0  0  0
   -2.1272    1.9370    5.7162 H   0  0  0  0  0  0  0  0  0  0  0  0
   -2.3600    1.6888    3.9937 H   0  0  0  0  0  0  0  0  0  0  0  0
   -1.0487    5.0606    2.8799 H   0  0  0  0  0  0  0  0  0  0  0  0
   -2.7344    4.7336    3.2911 H   0  0  0  0  0  0  0  0  0  0  0  0
   -1.8269    3.5881    2.3288 H   0  0  0  0  0  0  0  0  0  0  0  0
   -0.9786    5.5498    5.2827 H   0  0  0  0  0  0  0  0  0  0  0  0
   -1.8769    4.4737    6.3451 H   0  0  0  0  0  0  0  0  0  0  0  0
    1.0525    4.8800    6.1451 H   0  0  0  0  0  0  0  0  0  0  0  0
    0.1480    4.0674    7.4323 H   0  0  0  0  0  0  0  0  0  0  0  0
   -0.0521    2.0735    6.2184 H   0  0  0  0  0  0  0  0  0  0  0  0
    0.7027    3.8452    3.8807 H   0  0  0  0  0  0  0  0  0  0  0  0
    0.0398    0.9091    3.9823 H   0  0  0  0  0  0  0  0  0  0  0  0
    0.5792    2.6461    1.8657 H   0  0  0  0  0  0  0  0  0  0  0  0
    3.8144    2.9856    3.6913 H   0  0  0  0  0  0  0  0  0  0  0  0
    2.4408    3.4071    2.7398 H   0  0  0  0  0  0  0  0  0  0  0  0
    3.3431    1.9590    2.3355 H   0  0  0  0  0  0  0  0  0  0  0  0
    2.8152    2.8143    5.9083 H   0  0  0  0  0  0  0  0  0  0  0  0
    1.1271    0.2635    5.9116 H   0  0  0  0  0  0  0  0  0  0  0  0
    3.6867    0.7207    7.4718 H   0  0  0  0  0  0  0  0  0  0  0  0
    2.1364    0.2079    8.0785 H   0  0  0  0  0  0  0  0  0  0  0  0
    4.2776   -1.4367    6.9103 H   0  0  0  0  0  0  0  0  0  0  0  0
    2.8878   -1.9278    7.8002 H   0  0  0  0  0  0  0  0  0  0  0  0
    1.5214   -2.0175    5.9249 H   0  0  0  0  0  0  0  0  0  0  0  0
    3.2231   -3.8613    6.5304 H   0  0  0  0  0  0  0  0  0  0  0  0
    1.5973   -5.8421    3.4746 H   0  0  0  0  0  0  0  0  0  0  0  0
    5.4324   -4.0227    1.5367 H   0  0  0  0  0  0  0  0  0  0  0  0
    6.1873   -5.1242    2.7384 H   0  0  0  0  0  0  0  0  0  0  0  0
    6.3802   -5.6191    0.0686 H   0  0  0  0  0  0  0  0  0  0  0  0
    6.1869   -6.9246    1.2389 H   0  0  0  0  0  0  0  0  0  0  0  0
    4.0292   -5.6210   -0.4370 H   0  0  0  0  0  0  0  0  0  0  0  0
    4.2856   -7.3476   -0.1784 H   0  0  0  0  0  0  0  0  0  0  0  0
    3.3522   -7.2170    2.0501 H   0  0  0  0  0  0  0  0  0  0  0  0
    2.4361   -5.8852    1.2859 H   0  0  0  0  0  0  0  0  0  0  0  0
    5.6407   -3.9585    6.1735 H   0  0  0  0  0  0  0  0  0  0  0  0
    6.1690   -4.8107    4.7556 H   0  0  0  0  0  0  0  0  0  0  0  0
    4.9237   -5.5160    5.7791 H   0  0  0  0  0  0  0  0  0  0  0  0
    5.2876   -2.0020    4.6915 H   0  0  0  0  0  0  0  0  0  0  0  0
    5.5441   -2.7601    3.1983 H   0  0  0  0  0  0  0  0  0  0  0  0
    4.1342   -0.8646    2.7135 H   0  0  0  0  0  0  0  0  0  0  0  0
    3.2061   -2.2588    2.4986 H   0  0  0  0  0  0  0  0  0  0  0  0
    1.2033   -0.7718    2.6539 H   0  0  0  0  0  0  0  0  0  0  0  0
    0.4131   -1.1367    4.2046 H   0  0  0  0  0  0  0  0  0  0  0  0
    1.1586   -2.3952    3.2825 H   0  0  0  0  0  0  0  0  0  0  0  0
    4.9357   -0.0569    5.4086 H   0  0  0  0  0  0  0  0  0  0  0  0
    4.6062    1.6223    5.3228 H   0  0  0  0  0  0  0  0  0  0  0  0
    4.9069    0.7491    3.8526 H   0  0  0  0  0  0  0  0  0  0  0  0
    0.2349   -5.0969    5.3714 H   0  0  0  0  0  0  0  0  0  0  0  0
  1  2  1  0
  1 35  1  0
  1 36  1  0
  1 37  1  0
  2  7  1  0
  2  3  1  0
  2  4  1  0
  3 38  1  0
  3 39  1  0
  3 40  1  0
  4  5  1  0
  4 41  1  0
  4 42  1  0
  5  6  1  0
  5 43  1  0
  5 44  1  0
  6 12  1  0
  6  7  1  0
  6 45  1  1
  7  8  1  0
  7 46  1  6
  8  9  1  0
  8 10  1  0
  8 47  1  1
  9 48  1  0
 10 33  1  0
 10 11  1  6
 10 12  1  0
 11 49  1  0
 11 50  1  0
 11 51  1  0
 12 13  1  0
 12 52  1  1
 13 33  1  0
 13 14  1  0
 13 53  1  6
 14 15  1  0
 14 54  1  0
 14 55  1  0
 15 16  1  0
 15 56  1  0
 15 57  1  0
 16 31  1  0
 16 17  1  0
 16 58  1  1
 17 27  1  0
 17 18  1  0
 17 59  1  1
 18 19  1  0
 18 20  2  0
 19 82  1  0
 20 21  1  0
 20 60  1  0
 21 22  2  0
 21 27  1  0
 22 26  1  0
 22 23  1  0
 23 24  1  0
 23 61  1  0
 23 62  1  0
 24 25  1  0
 24 63  1  0
 24 64  1  0
 25 26  1  0
 25 65  1  0
 25 66  1  0
 26 67  1  0
 26 68  1  0
 27 28  1  1
 27 29  1  0
 28 69  1  0
 28 70  1  0
 28 71  1  0
 29 30  1  0
 29 72  1  0
 29 73  1  0
 30 31  1  0
 30 74  1  0
 30 75  1  0
 31 32  1  6
 31 33  1  0
 32 76  1  0
 32 77  1  0
 32 78  1  0
 33 34  1  1
 34 79  1  0
 34 80  1  0
 34 81  1  0
M  CHG  1  22   1
M  END
>  <i_m_ct_stereo_status>  (135) 
1

>  <s_m_source_file>  (135) 
/var/tmp/pbs.5076255.sched01/tmpkddd28mm/459jwin2qj.sdf

>  <i_m_source_file_index>  (135) 
11

>  <i_lp_mmshare_version>  (135) 
48012

>  <i_f3d_flags>  (135) 
0

>  <s_epik_input>  (135) 
W0NIMl0xW0NIMl1DKFtDSDNdKShbQ0gzXSlbQ0BIXShbQ0BIXTJbT0hdKVtDQEhdMVtDQEhdKFtDQF0yM1tDSDNdKVtDQEhdNFtDQEBdMyhbQ0gzXSlbQ0BdNShbQ0gzXSlbQ0BIXShbQ0gyXVtDSDJdNClbQ0BASF02W0NAXShbQ0gzXSkoW0NIMl1bQ0gyXTUpQyg9W0NIXUM2PU8pTjdbQ0gyXVtDSDJdW0NIMl1bQ0gyXTc=

>  <s_epik_cmdline>  (135) 
J2VwaWtfcHl0aG9uJywgJy1waHQnLCAnMi4wJywgJy1waCcsICc3LjAnLCAnLXRuJywgJzgnLCAnLW1hJywgJzIwMCcsICctaW1hZScsICc8aW5maWxlLm1hZT4nLCAnLW9tYWUnLCAnPG91dGZpbGUubWFlPic=

>  <r_epik_Ionization_Penalty>  (135) 
0.103384

>  <r_epik_Ionization_Penalty_Charging>  (135) 
0

>  <r_epik_Ionization_Penalty_Neutral>  (135) 
0.103384

>  <r_epik_State_Penalty>  (135) 
0.0933136

>  <r_epik_Charging_Adjusted_Penalty>  (135) 
0.0933136

>  <i_epik_Tot_Q>  (135) 
1

>  <i_epik_Tot_abs_Q>  (135) 
1

>  <s_epik_Chemistry_Notes>  (135) 
This compound has an imine and may undergo hydrolysis.

>  <s_lp_Force_Field>  (135) 
OPLS3e

>  <r_lp_Energy>  (135) 
121.071

>  <b_lp_Chiralities_Consistent>  (135) 
1

>  <s_lp_Variant>  (135) 
43:0-1

>  <s_i_glide_gridfile>  (135) 
pfpi4k_grid

>  <i_i_glide_lignum>  (135) 
11

>  <i_i_glide_rotatable_bonds>  (135) 
2

>  <r_i_docking_score>  (135) 
-2.02421

>  <r_i_glide_ligand_efficiency>  (135) 
-0.0595355

>  <r_i_glide_ligand_efficiency_sa>  (135) 
-0.192872

>  <r_i_glide_ligand_efficiency_ln>  (135) 
-0.447204

>  <r_i_glide_gscore>  (135) 
-2.02421

>  <r_i_glide_lipo>  (135) 
-0.353787

>  <r_i_glide_hbond>  (135) 
-0.144692

>  <r_i_glide_metal>  (135) 
-0

>  <r_i_glide_rewards>  (135) 
-0.226921

>  <r_i_glide_evdw>  (135) 
-18.8104

>  <r_i_glide_ecoul>  (135) 
-2.38858

>  <r_i_glide_erotb>  (135) 
0

>  <r_i_glide_esite>  (135) 
0

>  <r_i_glide_emodel>  (135) 
-23.665

>  <r_i_glide_energy>  (135) 
-21.199

>  <r_i_glide_einternal>  (135) 
0.507546

>  <r_i_glide_intrahb_reward>  (135) 
-0

>  <i_i_glide_confnum>  (135) 
1

>  <i_i_glide_posenum>  (135) 
40

>  <r_i_glide_eff_state_penalty>  (135) 
0

>  <ligand_id>  (135) 
43

>  <original_smiles>  (135) 
CC1(C)CCC2C1C(O)C1(C)C2C2CCC3C4C(=O)C=C(N5CCCC5)C4(C)CCC3(C)C21C

>  <smiles>  (135) 
[H]OC1=C([H])C(=[N+]2C([H])([H])C([H])([H])C([H])([H])C2([H])[H])C2(C([H])([H])[H])C([H])([H])C([H])([H])C3(C([H])([H])[H])C([H])(C([H])([H])C([H])([H])C4([H])C5([H])C6([H])C([H])([H])C([H])([H])C(C([H])([H])[H])(C([H])([H])[H])C6([H])C([H])(O[H])C5(C([H])([H])[H])C43C([H])([H])[H])C12[H]

$$$$
43:0:1
     RDKit          3D

 82 88  0  0  1  0  0  0  0  0999 V2000
   -2.0581    2.3664    5.1978 C   0  0  0  0  0  0  0  0  0  0  0  0
   -1.2357    3.1529    4.1532 C   0  0  0  0  0  0  0  0  0  0  0  0
   -2.1678    3.5379    2.9873 C   0  0  0  0  0  0  0  0  0  0  0  0
   -0.5280    4.4045    4.7770 C   0  0  0  0  0  0  0  0  0  0  0  0
    0.9784    4.0591    5.0126 C   0  0  0  0  0  0  0  0  0  0  0  0
    1.0020    2.5552    4.7842 C   0  0  1  0  0  0  0  0  0  0  0  0
    0.0072    2.4039    3.6599 C   0  0  1  0  0  0  0  0  0  0  0  0
    0.1593    0.9226    3.2830 C   0  0  1  0  0  0  0  0  0  0  0  0
   -0.5600    0.5567    2.1225 O   0  0  0  0  0  0  0  0  0  0  0  0
    1.7144    0.7921    3.1715 C   0  0  1  0  0  0  0  0  0  0  0  0
    2.1312    1.2126    1.7385 C   0  0  0  0  0  0  0  0  0  0  0  0
    2.2047    1.7291    4.3294 C   0  0  2  0  0  0  0  0  0  0  0  0
    2.4680    0.4293    5.1103 C   0  0  2  0  0  0  0  0  0  0  0  0
    3.5776    0.1544    6.1055 C   0  0  0  0  0  0  0  0  0  0  0  0
    3.8045   -1.3843    6.2020 C   0  0  0  0  0  0  0  0  0  0  0  0
    2.7029   -2.2845    5.5329 C   0  0  2  0  0  0  0  0  0  0  0  0
    3.0226   -3.7981    5.7632 C   0  0  1  0  0  0  0  0  0  0  0  0
    1.8077   -4.6379    6.0309 C   0  0  0  0  0  0  0  0  0  0  0  0
    1.0799   -4.3024    7.1045 O   0  0  0  0  0  0  0  0  0  0  0  0
    1.6414   -5.6730    5.2209 C   0  0  0  0  0  0  0  0  0  0  0  0
    2.6779   -5.7227    4.2657 C   0  0  0  0  0  0  0  0  0  0  0  0
    2.7419   -6.5870    3.2889 N   0  0  0  0  0  0  0  0  0  0  0  0
    3.7745   -6.6696    2.2396 C   0  0  0  0  0  0  0  0  0  0  0  0
    3.5435   -7.9803    1.4991 C   0  0  0  0  0  0  0  0  0  0  0  0
    2.0539   -8.2498    1.6797 C   0  0  0  0  0  0  0  0  0  0  0  0
    1.7380   -7.6526    3.0554 C   0  0  0  0  0  0  0  0  0  0  0  0
    3.6944   -4.5928    4.5914 C   0  0  2  0  0  0  0  0  0  0  0  0
    5.0173   -5.2182    5.0978 C   0  0  0  0  0  0  0  0  0  0  0  0
    3.9862   -3.6481    3.3970 C   0  0  0  0  0  0  0  0  0  0  0  0
    2.7569   -2.8398    2.9663 C   0  0  0  0  0  0  0  0  0  0  0  0
    2.2193   -1.8692    4.0652 C   0  0  1  0  0  0  0  0  0  0  0  0
    0.6842   -2.0992    4.0322 C   0  0  0  0  0  0  0  0  0  0  0  0
    2.6183   -0.3481    3.8101 C   0  0  1  0  0  0  0  0  0  0  0  0
    4.0774   -0.2788    3.2491 C   0  0  0  0  0  0  0  0  0  0  0  0
   -2.9363    2.9325    5.5112 H   0  0  0  0  0  0  0  0  0  0  0  0
   -1.4962    2.1320    6.0999 H   0  0  0  0  0  0  0  0  0  0  0  0
   -2.4044    1.4251    4.7709 H   0  0  0  0  0  0  0  0  0  0  0  0
   -1.6401    4.0977    2.2196 H   0  0  0  0  0  0  0  0  0  0  0  0
   -2.9900    4.1632    3.3243 H   0  0  0  0  0  0  0  0  0  0  0  0
   -2.5924    2.6529    2.5102 H   0  0  0  0  0  0  0  0  0  0  0  0
   -0.5787    5.2545    4.0931 H   0  0  0  0  0  0  0  0  0  0  0  0
   -1.0132    4.7144    5.7027 H   0  0  0  0  0  0  0  0  0  0  0  0
    1.6150    4.5768    4.2946 H   0  0  0  0  0  0  0  0  0  0  0  0
    1.3083    4.3209    6.0186 H   0  0  0  0  0  0  0  0  0  0  0  0
    0.6030    2.1092    5.6961 H   0  0  0  0  0  0  0  0  0  0  0  0
    0.3679    2.9874    2.8095 H   0  0  0  0  0  0  0  0  0  0  0  0
   -0.2407    0.3465    4.1113 H   0  0  0  0  0  0  0  0  0  0  0  0
   -0.2316    1.0446    1.3776 H   0  0  0  0  0  0  0  0  0  0  0  0
    3.1354    1.6295    1.7151 H   0  0  0  0  0  0  0  0  0  0  0  0
    1.4971    1.9831    1.3036 H   0  0  0  0  0  0  0  0  0  0  0  0
    2.1134    0.3602    1.0600 H   0  0  0  0  0  0  0  0  0  0  0  0
    3.1077    2.2960    4.0930 H   0  0  0  0  0  0  0  0  0  0  0  0
    1.5269    0.1373    5.5768 H   0  0  0  0  0  0  0  0  0  0  0  0
    4.5052    0.6477    5.7998 H   0  0  0  0  0  0  0  0  0  0  0  0
    3.3294    0.5710    7.0836 H   0  0  0  0  0  0  0  0  0  0  0  0
    4.7826   -1.6422    5.8004 H   0  0  0  0  0  0  0  0  0  0  0  0
    3.8672   -1.6393    7.2588 H   0  0  0  0  0  0  0  0  0  0  0  0
    1.8556   -2.0739    6.1870 H   0  0  0  0  0  0  0  0  0  0  0  0
    3.6269   -3.8888    6.6678 H   0  0  0  0  0  0  0  0  0  0  0  0
    0.8624   -6.4182    5.2926 H   0  0  0  0  0  0  0  0  0  0  0  0
    3.6088   -5.8332    1.5625 H   0  0  0  0  0  0  0  0  0  0  0  0
    4.7653   -6.6332    2.6784 H   0  0  0  0  0  0  0  0  0  0  0  0
    3.8482   -7.9159    0.4581 H   0  0  0  0  0  0  0  0  0  0  0  0
    4.1232   -8.7738    1.9706 H   0  0  0  0  0  0  0  0  0  0  0  0
    1.4840   -7.7222    0.9130 H   0  0  0  0  0  0  0  0  0  0  0  0
    1.8062   -9.3109    1.6069 H   0  0  0  0  0  0  0  0  0  0  0  0
    1.8652   -8.3944    3.8457 H   0  0  0  0  0  0  0  0  0  0  0  0
    0.7349   -7.2289    3.0998 H   0  0  0  0  0  0  0  0  0  0  0  0
    5.6869   -4.4415    5.4710 H   0  0  0  0  0  0  0  0  0  0  0  0
    5.5772   -5.7404    4.3249 H   0  0  0  0  0  0  0  0  0  0  0  0
    4.8471   -5.9222    5.9144 H   0  0  0  0  0  0  0  0  0  0  0  0
    4.7917   -2.9763    3.6824 H   0  0  0  0  0  0  0  0  0  0  0  0
    4.4053   -4.1684    2.5427 H   0  0  0  0  0  0  0  0  0  0  0  0
    2.9477   -2.3125    2.0367 H   0  0  0  0  0  0  0  0  0  0  0  0
    1.9935   -3.5574    2.6632 H   0  0  0  0  0  0  0  0  0  0  0  0
    0.2535   -1.8071    3.0743 H   0  0  0  0  0  0  0  0  0  0  0  0
    0.1565   -1.5837    4.8328 H   0  0  0  0  0  0  0  0  0  0  0  0
    0.4403   -3.1531    4.1631 H   0  0  0  0  0  0  0  0  0  0  0  0
    4.7955   -0.8763    3.7992 H   0  0  0  0  0  0  0  0  0  0  0  0
    4.4825    0.7324    3.3019 H   0  0  0  0  0  0  0  0  0  0  0  0
    4.1476   -0.5667    2.2002 H   0  0  0  0  0  0  0  0  0  0  0  0
    0.3971   -4.9499    7.2019 H   0  0  0  0  0  0  0  0  0  0  0  0
  1  2  1  0
  1 35  1  0
  1 36  1  0
  1 37  1  0
  2  7  1  0
  2  3  1  0
  2  4  1  0
  3 38  1  0
  3 39  1  0
  3 40  1  0
  4  5  1  0
  4 41  1  0
  4 42  1  0
  5  6  1  0
  5 43  1  0
  5 44  1  0
  6 12  1  0
  6  7  1  0
  6 45  1  1
  7  8  1  0
  7 46  1  6
  8  9  1  0
  8 10  1  0
  8 47  1  1
  9 48  1  0
 10 33  1  0
 10 11  1  6
 10 12  1  0
 11 49  1  0
 11 50  1  0
 11 51  1  0
 12 13  1  0
 12 52  1  6
 13 33  1  0
 13 14  1  0
 13 53  1  1
 14 15  1  0
 14 54  1  0
 14 55  1  0
 15 16  1  0
 15 56  1  0
 15 57  1  0
 16 31  1  0
 16 17  1  0
 16 58  1  1
 17 27  1  0
 17 18  1  0
 17 59  1  1
 18 19  1  0
 18 20  2  0
 19 82  1  0
 20 21  1  0
 20 60  1  0
 21 22  2  0
 21 27  1  0
 22 26  1  0
 22 23  1  0
 23 24  1  0
 23 61  1  0
 23 62  1  0
 24 25  1  0
 24 63  1  0
 24 64  1  0
 25 26  1  0
 25 65  1  0
 25 66  1  0
 26 67  1  0
 26 68  1  0
 27 28  1  1
 27 29  1  0
 28 69  1  0
 28 70  1  0
 28 71  1  0
 29 30  1  0
 29 72  1  0
 29 73  1  0
 30 31  1  0
 30 74  1  0
 30 75  1  0
 31 32  1  1
 31 33  1  0
 32 76  1  0
 32 77  1  0
 32 78  1  0
 33 34  1  6
 34 79  1  0
 34 80  1  0
 34 81  1  0
M  CHG  1  22   1
M  END
>  <i_m_ct_stereo_status>  (136) 
1

>  <s_m_source_file>  (136) 
/var/tmp/pbs.5076255.sched01/tmpkddd28mm/459jwin2qj.sdf

>  <i_m_source_file_index>  (136) 
11

>  <i_lp_mmshare_version>  (136) 
48012

>  <i_f3d_flags>  (136) 
0

>  <s_epik_input>  (136) 
W0NIMl0xW0NIMl1DKFtDSDNdKShbQ0gzXSlbQ0BIXShbQ0BIXTJbT0hdKVtDQEhdMVtDQEhdKFtDQF0yM1tDSDNdKVtDQEhdNFtDQEBdMyhbQ0gzXSlbQ0BdNShbQ0gzXSlbQ0BIXShbQ0gyXVtDSDJdNClbQ0BASF02W0NAXShbQ0gzXSkoW0NIMl1bQ0gyXTUpQyg9W0NIXUM2PU8pTjdbQ0gyXVtDSDJdW0NIMl1bQ0gyXTc=

>  <s_epik_cmdline>  (136) 
J2VwaWtfcHl0aG9uJywgJy1waHQnLCAnMi4wJywgJy1waCcsICc3LjAnLCAnLXRuJywgJzgnLCAnLW1hJywgJzIwMCcsICctaW1hZScsICc8aW5maWxlLm1hZT4nLCAnLW9tYWUnLCAnPG91dGZpbGUubWFlPic=

>  <r_epik_Ionization_Penalty>  (136) 
0.103384

>  <r_epik_Ionization_Penalty_Charging>  (136) 
0

>  <r_epik_Ionization_Penalty_Neutral>  (136) 
0.103384

>  <r_epik_State_Penalty>  (136) 
0.0933136

>  <r_epik_Charging_Adjusted_Penalty>  (136) 
0.0933136

>  <i_epik_Tot_Q>  (136) 
1

>  <i_epik_Tot_abs_Q>  (136) 
1

>  <s_epik_Chemistry_Notes>  (136) 
This compound has an imine and may undergo hydrolysis.

>  <s_lp_Force_Field>  (136) 
OPLS3e

>  <r_lp_Energy>  (136) 
121.071

>  <b_lp_Chiralities_Consistent>  (136) 
1

>  <s_lp_Variant>  (136) 
43:0-1

>  <s_i_glide_gridfile>  (136) 
pfpi4k_grid

>  <i_i_glide_lignum>  (136) 
11

>  <i_i_glide_rotatable_bonds>  (136) 
2

>  <r_i_docking_score>  (136) 
-1.51928

>  <r_i_glide_ligand_efficiency>  (136) 
-0.0446846

>  <r_i_glide_ligand_efficiency_sa>  (136) 
-0.144761

>  <r_i_glide_ligand_efficiency_ln>  (136) 
-0.335651

>  <r_i_glide_gscore>  (136) 
-1.51928

>  <r_i_glide_lipo>  (136) 
-0.0605119

>  <r_i_glide_hbond>  (136) 
-0.0122884

>  <r_i_glide_metal>  (136) 
-0

>  <r_i_glide_rewards>  (136) 
-0.226921

>  <r_i_glide_evdw>  (136) 
-19.7142

>  <r_i_glide_ecoul>  (136) 
-1.55191

>  <r_i_glide_erotb>  (136) 
0

>  <r_i_glide_esite>  (136) 
-0.00106126

>  <r_i_glide_emodel>  (136) 
-23.395

>  <r_i_glide_energy>  (136) 
-21.2661

>  <r_i_glide_einternal>  (136) 
0.0188535

>  <r_i_glide_intrahb_reward>  (136) 
-0

>  <i_i_glide_confnum>  (136) 
1

>  <i_i_glide_posenum>  (136) 
7

>  <r_i_glide_eff_state_penalty>  (136) 
0

>  <ligand_id>  (136) 
43

>  <original_smiles>  (136) 
CC1(C)CCC2C1C(O)C1(C)C2C2CCC3C4C(=O)C=C(N5CCCC5)C4(C)CCC3(C)C21C

>  <smiles>  (136) 
[H]OC1=C([H])C(=[N+]2C([H])([H])C([H])([H])C([H])([H])C2([H])[H])C2(C([H])([H])[H])C([H])([H])C([H])([H])C3(C([H])([H])[H])C([H])(C([H])([H])C([H])([H])C4([H])C5([H])C6([H])C([H])([H])C([H])([H])C(C([H])([H])[H])(C([H])([H])[H])C6([H])C([H])(O[H])C5(C([H])([H])[H])C43C([H])([H])[H])C12[H]

$$$$
43:0:2
     RDKit          3D

 82 88  0  0  1  0  0  0  0  0999 V2000
   -1.7031    2.8298    5.6387 C   0  0  0  0  0  0  0  0  0  0  0  0
   -0.8606    3.3570    4.4529 C   0  0  0  0  0  0  0  0  0  0  0  0
   -1.8187    3.8512    3.3498 C   0  0  0  0  0  0  0  0  0  0  0  0
    0.1512    4.4698    4.8948 C   0  0  0  0  0  0  0  0  0  0  0  0
    1.5745    3.8317    5.0139 C   0  0  0  0  0  0  0  0  0  0  0  0
    1.2686    2.3454    4.9163 C   0  0  1  0  0  0  0  0  0  0  0  0
    0.1441    2.3349    3.9104 C   0  0  1  0  0  0  0  0  0  0  0  0
   -0.0500    0.8338    3.6532 C   0  0  1  0  0  0  0  0  0  0  0  0
   -0.9524    0.5652    2.6012 O   0  0  0  0  0  0  0  0  0  0  0  0
    1.4240    0.3716    3.4002 C   0  0  1  0  0  0  0  0  0  0  0  0
    1.7547    0.6038    1.9017 C   0  0  0  0  0  0  0  0  0  0  0  0
    2.2196    1.2565    4.4206 C   0  0  2  0  0  0  0  0  0  0  0  0
    2.3003   -0.0162    5.2817 C   0  0  2  0  0  0  0  0  0  0  0  0
    3.4363   -0.4532    6.1860 C   0  0  0  0  0  0  0  0  0  0  0  0
    3.3567   -1.9955    6.3934 C   0  0  0  0  0  0  0  0  0  0  0  0
    2.0270   -2.6849    5.9154 C   0  0  2  0  0  0  0  0  0  0  0  0
    2.0573   -4.2134    6.2445 C   0  0  1  0  0  0  0  0  0  0  0  0
    0.7359   -4.7586    6.7001 C   0  0  0  0  0  0  0  0  0  0  0  0
    0.2145   -4.2088    7.8052 O   0  0  0  0  0  0  0  0  0  0  0  0
    0.2748   -5.7862    6.0026 C   0  0  0  0  0  0  0  0  0  0  0  0
    1.1637   -6.1161    4.9603 C   0  0  0  0  0  0  0  0  0  0  0  0
    0.9396   -7.0354    4.0605 N   0  0  0  0  0  0  0  0  0  0  0  0
    1.8109   -7.4047    2.9291 C   0  0  0  0  0  0  0  0  0  0  0  0
    1.2363   -8.6810    2.3303 C   0  0  0  0  0  0  0  0  0  0  0  0
   -0.2465   -8.6196    2.6784 C   0  0  0  0  0  0  0  0  0  0  0  0
   -0.2777   -7.8825    4.0214 C   0  0  0  0  0  0  0  0  0  0  0  0
    2.4183   -5.2070    5.0870 C   0  0  2  0  0  0  0  0  0  0  0  0
    3.6351   -6.0633    5.5159 C   0  0  0  0  0  0  0  0  0  0  0  0
    2.7579   -4.4247    3.7920 C   0  0  0  0  0  0  0  0  0  0  0  0
    1.6770   -3.4054    3.4147 C   0  0  0  0  0  0  0  0  0  0  0  0
    1.4759   -2.2734    4.4707 C   0  0  1  0  0  0  0  0  0  0  0  0
   -0.0652   -2.1781    4.6120 C   0  0  0  0  0  0  0  0  0  0  0  0
    2.1419   -0.8902    4.0455 C   0  0  1  0  0  0  0  0  0  0  0  0
    3.5128   -1.1664    3.3425 C   0  0  0  0  0  0  0  0  0  0  0  0
   -2.4059    3.5870    5.9869 H   0  0  0  0  0  0  0  0  0  0  0  0
   -1.1005    2.5433    6.4988 H   0  0  0  0  0  0  0  0  0  0  0  0
   -2.2842    1.9573    5.3403 H   0  0  0  0  0  0  0  0  0  0  0  0
   -1.2832    4.2348    2.4826 H   0  0  0  0  0  0  0  0  0  0  0  0
   -2.4602    4.6489    3.7142 H   0  0  0  0  0  0  0  0  0  0  0  0
   -2.4631    3.0449    2.9981 H   0  0  0  0  0  0  0  0  0  0  0  0
    0.1965    5.2668    4.1489 H   0  0  0  0  0  0  0  0  0  0  0  0
   -0.1560    4.9356    5.8317 H   0  0  0  0  0  0  0  0  0  0  0  0
    2.2184    4.1558    4.1953 H   0  0  0  0  0  0  0  0  0  0  0  0
    2.0619    4.0831    5.9566 H   0  0  0  0  0  0  0  0  0  0  0  0
    0.8911    2.0532    5.8974 H   0  0  0  0  0  0  0  0  0  0  0  0
    0.5156    2.7744    2.9801 H   0  0  0  0  0  0  0  0  0  0  0  0
   -0.4633    0.4073    4.5612 H   0  0  0  0  0  0  0  0  0  0  0  0
   -0.6368    0.9833    1.8113 H   0  0  0  0  0  0  0  0  0  0  0  0
    2.8136    0.8004    1.7418 H   0  0  0  0  0  0  0  0  0  0  0  0
    1.2408    1.4565    1.4613 H   0  0  0  0  0  0  0  0  0  0  0  0
    1.4909   -0.2683    1.3048 H   0  0  0  0  0  0  0  0  0  0  0  0
    3.1865    1.6043    4.0494 H   0  0  0  0  0  0  0  0  0  0  0  0
    1.3780   -0.0729    5.8608 H   0  0  0  0  0  0  0  0  0  0  0  0
    4.4044   -0.1875    5.7508 H   0  0  0  0  0  0  0  0  0  0  0  0
    3.3891    0.0684    7.1439 H   0  0  0  0  0  0  0  0  0  0  0  0
    4.2103   -2.4795    5.9228 H   0  0  0  0  0  0  0  0  0  0  0  0
    3.4851   -2.1891    7.4573 H   0  0  0  0  0  0  0  0  0  0  0  0
    1.3192   -2.2586    6.6277 H   0  0  0  0  0  0  0  0  0  0  0  0
    2.7288   -4.3703    7.0912 H   0  0  0  0  0  0  0  0  0  0  0  0
   -0.6237   -6.3442    6.2130 H   0  0  0  0  0  0  0  0  0  0  0  0
    1.7454   -6.5991    2.2003 H   0  0  0  0  0  0  0  0  0  0  0  0
    2.8309   -7.5505    3.2665 H   0  0  0  0  0  0  0  0  0  0  0  0
    1.4229   -8.7468    1.2613 H   0  0  0  0  0  0  0  0  0  0  0  0
    1.6941   -9.5472    2.8078 H   0  0  0  0  0  0  0  0  0  0  0  0
   -0.7758   -8.0370    1.9231 H   0  0  0  0  0  0  0  0  0  0  0  0
   -0.7098   -9.6077    2.7234 H   0  0  0  0  0  0  0  0  0  0  0  0
   -0.2140   -8.5823    4.8565 H   0  0  0  0  0  0  0  0  0  0  0  0
   -1.1639   -7.2567    4.1261 H   0  0  0  0  0  0  0  0  0  0  0  0
    4.4853   -5.4222    5.7536 H   0  0  0  0  0  0  0  0  0  0  0  0
    3.9870   -6.7401    4.7407 H   0  0  0  0  0  0  0  0  0  0  0  0
    3.4190   -6.6613    6.4030 H   0  0  0  0  0  0  0  0  0  0  0  0
    3.7094   -3.9202    3.9389 H   0  0  0  0  0  0  0  0  0  0  0  0
    2.9650   -5.0766    2.9502 H   0  0  0  0  0  0  0  0  0  0  0  0
    1.8649   -2.9929    2.4291 H   0  0  0  0  0  0  0  0  0  0  0  0
    0.7545   -3.9645    3.2551 H   0  0  0  0  0  0  0  0  0  0  0  0
   -0.5365   -1.8639    3.6794 H   0  0  0  0  0  0  0  0  0  0  0  0
   -0.3854   -1.5100    5.4067 H   0  0  0  0  0  0  0  0  0  0  0  0
   -0.5013   -3.1447    4.8550 H   0  0  0  0  0  0  0  0  0  0  0  0
    4.1513   -1.8649    3.8716 H   0  0  0  0  0  0  0  0  0  0  0  0
    4.1182   -0.2620    3.2656 H   0  0  0  0  0  0  0  0  0  0  0  0
    3.4031   -1.5320    2.3212 H   0  0  0  0  0  0  0  0  0  0  0  0
   -0.5592   -4.7025    8.0330 H   0  0  0  0  0  0  0  0  0  0  0  0
  1  2  1  0
  1 35  1  0
  1 36  1  0
  1 37  1  0
  2  7  1  0
  2  3  1  0
  2  4  1  0
  3 38  1  0
  3 39  1  0
  3 40  1  0
  4  5  1  0
  4 41  1  0
  4 42  1  0
  5  6  1  0
  5 43  1  0
  5 44  1  0
  6 12  1  0
  6  7  1  0
  6 45  1  1
  7  8  1  0
  7 46  1  6
  8  9  1  0
  8 10  1  0
  8 47  1  1
  9 48  1  0
 10 33  1  0
 10 11  1  6
 10 12  1  0
 11 49  1  0
 11 50  1  0
 11 51  1  0
 12 13  1  0
 12 52  1  6
 13 33  1  0
 13 14  1  0
 13 53  1  1
 14 15  1  0
 14 54  1  0
 14 55  1  0
 15 16  1  0
 15 56  1  0
 15 57  1  0
 16 31  1  0
 16 17  1  0
 16 58  1  1
 17 27  1  0
 17 18  1  0
 17 59  1  1
 18 19  1  0
 18 20  2  0
 19 82  1  0
 20 21  1  0
 20 60  1  0
 21 22  2  0
 21 27  1  0
 22 26  1  0
 22 23  1  0
 23 24  1  0
 23 61  1  0
 23 62  1  0
 24 25  1  0
 24 63  1  0
 24 64  1  0
 25 26  1  0
 25 65  1  0
 25 66  1  0
 26 67  1  0
 26 68  1  0
 27 28  1  1
 27 29  1  0
 28 69  1  0
 28 70  1  0
 28 71  1  0
 29 30  1  0
 29 72  1  0
 29 73  1  0
 30 31  1  0
 30 74  1  0
 30 75  1  0
 31 32  1  1
 31 33  1  0
 32 76  1  0
 32 77  1  0
 32 78  1  0
 33 34  1  6
 34 79  1  0
 34 80  1  0
 34 81  1  0
M  CHG  1  22   1
M  END
>  <i_m_ct_stereo_status>  (137) 
1

>  <s_m_source_file>  (137) 
/var/tmp/pbs.5076255.sched01/tmpkddd28mm/459jwin2qj.sdf

>  <i_m_source_file_index>  (137) 
11

>  <i_lp_mmshare_version>  (137) 
48012

>  <i_f3d_flags>  (137) 
0

>  <s_epik_input>  (137) 
W0NIMl0xW0NIMl1DKFtDSDNdKShbQ0gzXSlbQ0BIXShbQ0BIXTJbT0hdKVtDQEhdMVtDQEhdKFtDQF0yM1tDSDNdKVtDQEhdNFtDQEBdMyhbQ0gzXSlbQ0BdNShbQ0gzXSlbQ0BIXShbQ0gyXVtDSDJdNClbQ0BASF02W0NAXShbQ0gzXSkoW0NIMl1bQ0gyXTUpQyg9W0NIXUM2PU8pTjdbQ0gyXVtDSDJdW0NIMl1bQ0gyXTc=

>  <s_epik_cmdline>  (137) 
J2VwaWtfcHl0aG9uJywgJy1waHQnLCAnMi4wJywgJy1waCcsICc3LjAnLCAnLXRuJywgJzgnLCAnLW1hJywgJzIwMCcsICctaW1hZScsICc8aW5maWxlLm1hZT4nLCAnLW9tYWUnLCAnPG91dGZpbGUubWFlPic=

>  <r_epik_Ionization_Penalty>  (137) 
0.103384

>  <r_epik_Ionization_Penalty_Charging>  (137) 
0

>  <r_epik_Ionization_Penalty_Neutral>  (137) 
0.103384

>  <r_epik_State_Penalty>  (137) 
0.0933136

>  <r_epik_Charging_Adjusted_Penalty>  (137) 
0.0933136

>  <i_epik_Tot_Q>  (137) 
1

>  <i_epik_Tot_abs_Q>  (137) 
1

>  <s_epik_Chemistry_Notes>  (137) 
This compound has an imine and may undergo hydrolysis.

>  <s_lp_Force_Field>  (137) 
OPLS3e

>  <r_lp_Energy>  (137) 
121.071

>  <b_lp_Chiralities_Consistent>  (137) 
1

>  <s_lp_Variant>  (137) 
43:0-1

>  <s_i_glide_gridfile>  (137) 
pfpi4k_grid

>  <i_i_glide_lignum>  (137) 
11

>  <i_i_glide_rotatable_bonds>  (137) 
2

>  <r_i_docking_score>  (137) 
-1.48507

>  <r_i_glide_ligand_efficiency>  (137) 
-0.0436787

>  <r_i_glide_ligand_efficiency_sa>  (137) 
-0.141502

>  <r_i_glide_ligand_efficiency_ln>  (137) 
-0.328095

>  <r_i_glide_gscore>  (137) 
-1.48507

>  <r_i_glide_lipo>  (137) 
-0.0823243

>  <r_i_glide_hbond>  (137) 
0

>  <r_i_glide_metal>  (137) 
-0

>  <r_i_glide_rewards>  (137) 
-0.226921

>  <r_i_glide_evdw>  (137) 
-20.7572

>  <r_i_glide_ecoul>  (137) 
-0.793807

>  <r_i_glide_erotb>  (137) 
0

>  <r_i_glide_esite>  (137) 
-0.018897

>  <r_i_glide_emodel>  (137) 
-23.6097

>  <r_i_glide_energy>  (137) 
-21.551

>  <r_i_glide_einternal>  (137) 
0.034579

>  <r_i_glide_intrahb_reward>  (137) 
-0

>  <i_i_glide_confnum>  (137) 
1

>  <i_i_glide_posenum>  (137) 
29

>  <r_i_glide_eff_state_penalty>  (137) 
0

>  <ligand_id>  (137) 
43

>  <original_smiles>  (137) 
CC1(C)CCC2C1C(O)C1(C)C2C2CCC3C4C(=O)C=C(N5CCCC5)C4(C)CCC3(C)C21C

>  <smiles>  (137) 
[H]OC1=C([H])C(=[N+]2C([H])([H])C([H])([H])C([H])([H])C2([H])[H])C2(C([H])([H])[H])C([H])([H])C([H])([H])C3(C([H])([H])[H])C([H])(C([H])([H])C([H])([H])C4([H])C5([H])C6([H])C([H])([H])C([H])([H])C(C([H])([H])[H])(C([H])([H])[H])C6([H])C([H])(O[H])C5(C([H])([H])[H])C43C([H])([H])[H])C12[H]

$$$$
44:0:0
     RDKit          3D

 76 82  0  0  1  0  0  0  0  0999 V2000
    3.3265   -3.1977   -0.6904 C   0  0  0  0  0  0  0  0  0  0  0  0
    3.9292   -2.9117    0.7065 C   0  0  0  0  0  0  0  0  0  0  0  0
    3.8504   -1.3899    0.9563 C   0  0  0  0  0  0  0  0  0  0  0  0
    3.1262   -3.5169    1.7371 O   0  0  0  0  0  0  0  0  0  0  0  0
    3.9007   -4.4003    2.5554 C   0  0  2  0  0  0  0  0  0  0  0  0
    5.2914   -3.7031    2.4255 C   0  0  0  0  0  0  0  0  0  0  0  0
    5.3767   -3.4423    0.9390 C   0  0  1  0  0  0  0  0  0  0  0  0
    5.8042   -4.7650    0.2479 C   0  0  0  0  0  0  0  0  0  0  0  0
    5.3845   -6.0207    1.0495 C   0  0  0  0  0  0  0  0  0  0  0  0
    4.0087   -5.7892    1.7038 C   0  0  1  0  0  0  0  0  0  0  0  0
    3.1630   -7.0845    1.8422 C   0  0  0  0  0  0  0  0  0  0  0  0
    1.9112   -7.0964    1.3650 C   0  0  0  0  0  0  0  0  0  0  0  0
    0.9670   -6.1611    1.9788 C   0  0  0  0  0  0  0  0  0  0  0  0
    0.3739   -6.8936    3.1897 C   0  0  0  0  0  0  0  0  0  0  0  0
   -0.8510   -7.0281    3.1736 O   0  0  0  0  0  0  0  0  0  0  0  0
    1.2452   -7.4237    4.3939 C   0  0  1  0  0  0  0  0  0  0  0  0
    0.1948   -7.9614    5.4211 C   0  0  0  0  0  0  0  0  0  0  0  0
    2.1628   -8.7290    4.1115 C   0  0  1  0  0  0  0  0  0  0  0  0
    1.7612   -9.7023    2.9667 C   0  0  0  0  0  0  0  0  0  0  0  0
    2.9111   -9.6405    1.9232 C   0  0  0  0  0  0  0  0  0  0  0  0
    3.7815   -8.4209    2.3178 C   0  0  2  0  0  0  0  0  0  0  0  0
    3.6943   -8.5393    3.8595 C   0  0  2  0  0  0  0  0  0  0  0  0
    4.4720   -9.7962    4.3589 C   0  0  0  0  0  0  0  0  0  0  0  0
    4.3064   -7.3627    4.6300 C   0  0  0  0  0  0  0  0  0  0  0  0
    3.3884   -6.8810    5.7449 C   0  0  0  0  0  0  0  0  0  0  0  0
    2.0555   -6.2917    5.1990 C   0  0  1  0  0  0  0  0  0  0  0  0
    2.1528   -4.7381    4.8207 C   0  0  1  0  0  0  0  0  0  0  0  0
    0.8360   -4.0592    4.3169 C   0  0  0  0  0  0  0  0  0  0  0  0
    2.3482   -3.9691    6.1764 C   0  0  0  0  0  0  0  0  0  0  0  0
    3.0287   -2.6431    5.8396 C   0  0  0  0  0  0  0  0  0  0  0  0
    3.4880   -2.8044    4.4677 N   0  0  0  0  0  0  0  0  0  0  0  0
    3.4638   -4.2261    4.0920 C   0  0  2  0  0  0  0  0  0  0  0  0
    3.9240   -2.7423   -1.4786 H   0  0  0  0  0  0  0  0  0  0  0  0
    2.3192   -2.7820   -0.7628 H   0  0  0  0  0  0  0  0  0  0  0  0
    3.2404   -4.2549   -0.9186 H   0  0  0  0  0  0  0  0  0  0  0  0
    4.4501   -0.8371    0.2340 H   0  0  0  0  0  0  0  0  0  0  0  0
    4.1977   -1.1113    1.9515 H   0  0  0  0  0  0  0  0  0  0  0  0
    2.8215   -1.0361    0.8657 H   0  0  0  0  0  0  0  0  0  0  0  0
    5.3781   -2.7411    2.9241 H   0  0  0  0  0  0  0  0  0  0  0  0
    6.1176   -4.2926    2.8173 H   0  0  0  0  0  0  0  0  0  0  0  0
    6.1130   -2.6763    0.6953 H   0  0  0  0  0  0  0  0  0  0  0  0
    5.4157   -4.8204   -0.7692 H   0  0  0  0  0  0  0  0  0  0  0  0
    6.8861   -4.7837    0.1315 H   0  0  0  0  0  0  0  0  0  0  0  0
    5.3647   -6.8770    0.3742 H   0  0  0  0  0  0  0  0  0  0  0  0
    6.1328   -6.2671    1.8103 H   0  0  0  0  0  0  0  0  0  0  0  0
    3.4898   -5.4916    0.8002 H   0  0  0  0  0  0  0  0  0  0  0  0
    1.3577   -7.9864    1.1353 H   0  0  0  0  0  0  0  0  0  0  0  0
    1.5149   -5.2751    2.2368 H   0  0  0  0  0  0  0  0  0  0  0  0
    0.1830   -5.9153    1.2663 H   0  0  0  0  0  0  0  0  0  0  0  0
    0.6568   -8.3083    6.3505 H   0  0  0  0  0  0  0  0  0  0  0  0
   -0.3809   -8.8059    5.0236 H   0  0  0  0  0  0  0  0  0  0  0  0
   -0.5217   -7.1880    5.7045 H   0  0  0  0  0  0  0  0  0  0  0  0
    2.1047   -9.3320    5.0185 H   0  0  0  0  0  0  0  0  0  0  0  0
    1.6977  -10.7252    3.3487 H   0  0  0  0  0  0  0  0  0  0  0  0
    0.7795   -9.5030    2.5373 H   0  0  0  0  0  0  0  0  0  0  0  0
    3.5011  -10.5527    1.9884 H   0  0  0  0  0  0  0  0  0  0  0  0
    2.5715   -9.6404    0.8858 H   0  0  0  0  0  0  0  0  0  0  0  0
    4.7954   -8.5299    1.9353 H   0  0  0  0  0  0  0  0  0  0  0  0
    5.5040   -9.7874    4.0130 H   0  0  0  0  0  0  0  0  0  0  0  0
    4.0377  -10.7442    4.0479 H   0  0  0  0  0  0  0  0  0  0  0  0
    4.4918   -9.8370    5.4507 H   0  0  0  0  0  0  0  0  0  0  0  0
    5.2593   -7.6512    5.0818 H   0  0  0  0  0  0  0  0  0  0  0  0
    4.6135   -6.5711    3.9749 H   0  0  0  0  0  0  0  0  0  0  0  0
    3.1655   -7.7158    6.4056 H   0  0  0  0  0  0  0  0  0  0  0  0
    3.9530   -6.1980    6.3689 H   0  0  0  0  0  0  0  0  0  0  0  0
    1.4858   -6.1943    6.1222 H   0  0  0  0  0  0  0  0  0  0  0  0
    0.6475   -3.0778    4.7643 H   0  0  0  0  0  0  0  0  0  0  0  0
   -0.0479   -4.6425    4.5724 H   0  0  0  0  0  0  0  0  0  0  0  0
    0.8162   -3.8178    3.2596 H   0  0  0  0  0  0  0  0  0  0  0  0
    1.4140   -3.8087    6.7215 H   0  0  0  0  0  0  0  0  0  0  0  0
    2.9915   -4.4813    6.8892 H   0  0  0  0  0  0  0  0  0  0  0  0
    2.3434   -1.7944    5.9359 H   0  0  0  0  0  0  0  0  0  0  0  0
    3.8718   -2.4681    6.5202 H   0  0  0  0  0  0  0  0  0  0  0  0
    2.8535   -2.3044    3.8538 H   0  0  0  0  0  0  0  0  0  0  0  0
    4.3016   -4.6189    4.6636 H   0  0  0  0  0  0  0  0  0  0  0  0
    4.4144   -2.4008    4.3628 H   0  0  0  0  0  0  0  0  0  0  0  0
  1  2  1  0
  1 33  1  0
  1 34  1  0
  1 35  1  0
  2  7  1  0
  2  3  1  0
  2  4  1  0
  3 36  1  0
  3 37  1  0
  3 38  1  0
  5  4  1  6
  5 10  1  0
  5 32  1  0
  5  6  1  0
  6  7  1  0
  6 39  1  0
  6 40  1  0
  7  8  1  0
  7 41  1  1
  8  9  1  0
  8 42  1  0
  8 43  1  0
  9 10  1  0
  9 44  1  0
  9 45  1  0
 10 11  1  0
 10 46  1  6
 11 21  1  0
 11 12  2  3
 12 13  1  0
 12 47  1  0
 13 14  1  0
 13 48  1  0
 13 49  1  0
 14 15  2  0
 14 16  1  0
 16 26  1  0
 16 17  1  1
 16 18  1  0
 17 50  1  0
 17 51  1  0
 17 52  1  0
 18 22  1  0
 18 19  1  0
 18 53  1  1
 19 20  1  0
 19 54  1  0
 19 55  1  0
 20 21  1  0
 20 56  1  0
 20 57  1  0
 21 22  1  0
 21 58  1  1
 22 23  1  1
 22 24  1  0
 23 59  1  0
 23 60  1  0
 23 61  1  0
 24 25  1  0
 24 62  1  0
 24 63  1  0
 25 26  1  0
 25 64  1  0
 25 65  1  0
 26 27  1  0
 26 66  1  1
 27 32  1  0
 27 28  1  6
 27 29  1  0
 28 67  1  0
 28 68  1  0
 28 69  1  0
 29 30  1  0
 29 70  1  0
 29 71  1  0
 30 31  1  0
 30 72  1  0
 30 73  1  0
 31 32  1  0
 31 74  1  0
 31 76  1  0
 32 75  1  1
M  CHG  1  31   1
M  END
>  <i_m_ct_stereo_status>  (138) 
1

>  <s_m_source_file>  (138) 
/var/tmp/pbs.5076255.sched01/tmpkddd28mm/459jwin2qj.sdf

>  <i_m_source_file_index>  (138) 
13

>  <i_lp_mmshare_version>  (138) 
48012

>  <i_f3d_flags>  (138) 
0

>  <s_epik_input>  (138) 
W0NIM11DKE8xKShbQ0gzXSlbQ0BASF0oW0NIMl0yKVtDSDJdW0NIMl1bQ0BIXShbQ0BdMTIzKS9DPTRbQ0BIXTVbQ0BdNihbQ0gzXSlbQ0BIXShbQ0gyXVtDSDJdNSlbQ0BdKFtDSDNdKShDKD1PKVtDSDJdL1tDSF00KVtDSF0oW0NIMl1bQ0gyXTYpW0NAXTcoW0NIM10pW0NAQEhdM1tOSF1bQ0gyXVtDSDJdNw==

>  <s_epik_cmdline>  (138) 
J2VwaWtfcHl0aG9uJywgJy1waHQnLCAnMi4wJywgJy1waCcsICc3LjAnLCAnLXRuJywgJzgnLCAnLW1hJywgJzIwMCcsICctaW1hZScsICc8aW5maWxlLm1hZT4nLCAnLW9tYWUnLCAnPG91dGZpbGUubWFlPic=

>  <r_lp_tautomer_probability>  (138) 
1

>  <r_epik_Ionization_Penalty>  (138) 
0.00018918

>  <r_epik_Ionization_Penalty_Charging>  (138) 
0.00018918

>  <r_epik_Ionization_Penalty_Neutral>  (138) 
1.74709e-12

>  <r_epik_State_Penalty>  (138) 
-0

>  <r_epik_Charging_Adjusted_Penalty>  (138) 
0.00018918

>  <i_epik_Tot_Q>  (138) 
1

>  <i_epik_Tot_abs_Q>  (138) 
1

>  <s_lp_Force_Field>  (138) 
OPLS3e

>  <r_lp_Energy>  (138) 
187.007

>  <b_lp_Chiralities_Consistent>  (138) 
1

>  <s_lp_Variant>  (138) 
44:0-1

>  <s_i_glide_gridfile>  (138) 
pfpi4k_grid

>  <i_i_glide_lignum>  (138) 
13

>  <i_i_glide_rotatable_bonds>  (138) 
0

>  <r_i_docking_score>  (138) 
-2.74072

>  <r_i_glide_ligand_efficiency>  (138) 
-0.0856475

>  <r_i_glide_ligand_efficiency_sa>  (138) 
-0.271914

>  <r_i_glide_ligand_efficiency_ln>  (138) 
-0.613722

>  <r_i_glide_gscore>  (138) 
-2.74072

>  <r_i_glide_lipo>  (138) 
-0.403217

>  <r_i_glide_hbond>  (138) 
-0.138987

>  <r_i_glide_metal>  (138) 
-0

>  <r_i_glide_rewards>  (138) 
-0.418192

>  <r_i_glide_evdw>  (138) 
-26.7752

>  <r_i_glide_ecoul>  (138) 
-2.61177

>  <r_i_glide_erotb>  (138) 
0

>  <r_i_glide_esite>  (138) 
-0.0497973

>  <r_i_glide_emodel>  (138) 
-34.1277

>  <r_i_glide_energy>  (138) 
-29.387

>  <r_i_glide_einternal>  (138) 
0

>  <r_i_glide_intrahb_reward>  (138) 
-0

>  <i_i_glide_confnum>  (138) 
2

>  <i_i_glide_posenum>  (138) 
38

>  <r_i_glide_eff_state_penalty>  (138) 
0

>  <ligand_id>  (138) 
44

>  <original_smiles>  (138) 
CC1(C)OC23CC1CCC2C1=CCC(=O)C2(C)C4CCC1C4(C)CCC2C1(C)CCNC13

>  <smiles>  (138) 
[H]C1=C2C3([H])C([H])([H])C([H])([H])C4([H])C([H])([H])C3(OC4(C([H])([H])[H])C([H])([H])[H])C3([H])C(C([H])([H])[H])(C([H])([H])C([H])([H])[N+]3([H])[H])C3([H])C([H])([H])C([H])([H])C4(C([H])([H])[H])C2([H])C([H])([H])C([H])([H])C4([H])C3(C([H])([H])[H])C(=O)C1([H])[H]

$$$$
44:0:1
     RDKit          3D

 76 82  0  0  1  0  0  0  0  0999 V2000
    3.1522   -3.3167   -3.0710 C   0  0  0  0  0  0  0  0  0  0  0  0
    3.6353   -2.1539   -2.2198 C   0  0  0  0  0  0  0  0  0  0  0  0
    3.0997   -0.8466   -2.8233 C   0  0  0  0  0  0  0  0  0  0  0  0
    3.0889   -2.2562   -0.8871 O   0  0  0  0  0  0  0  0  0  0  0  0
    4.1025   -2.2439    0.1246 C   0  0  2  0  0  0  0  0  0  0  0  0
    5.1477   -1.3697   -0.6457 C   0  0  0  0  0  0  0  0  0  0  0  0
    5.1463   -2.0049   -2.0152 C   0  0  1  0  0  0  0  0  0  0  0  0
    6.0146   -3.2912   -1.9704 C   0  0  0  0  0  0  0  0  0  0  0  0
    6.0698   -3.8887   -0.5430 C   0  0  0  0  0  0  0  0  0  0  0  0
    4.7053   -3.7583    0.1381 C   0  0  1  0  0  0  0  0  0  0  0  0
    4.4025   -4.9430    1.1126 C   0  0  0  0  0  0  0  0  0  0  0  0
    3.2545   -5.5842    0.9952 C   0  0  0  0  0  0  0  0  0  0  0  0
    2.0594   -4.7948    1.2260 C   0  0  0  0  0  0  0  0  0  0  0  0
    1.7681   -4.8214    2.7290 C   0  0  0  0  0  0  0  0  0  0  0  0
    0.7093   -5.3833    3.0474 O   0  0  0  0  0  0  0  0  0  0  0  0
    2.7275   -4.2489    3.8277 C   0  0  1  0  0  0  0  0  0  0  0  0
    1.9447   -4.3734    5.1697 C   0  0  0  0  0  0  0  0  0  0  0  0
    4.0484   -5.1482    4.0808 C   0  0  1  0  0  0  0  0  0  0  0  0
    4.0308   -6.6767    3.7521 C   0  0  0  0  0  0  0  0  0  0  0  0
    5.0815   -6.8955    2.6229 C   0  0  0  0  0  0  0  0  0  0  0  0
    5.4448   -5.4719    2.1090 C   0  0  2  0  0  0  0  0  0  0  0  0
    5.3767   -4.6800    3.4387 C   0  0  2  0  0  0  0  0  0  0  0  0
    6.5322   -5.1460    4.3874 C   0  0  0  0  0  0  0  0  0  0  0  0
    5.3851   -3.1569    3.2328 C   0  0  0  0  0  0  0  0  0  0  0  0
    4.4505   -2.4199    4.1703 C   0  0  0  0  0  0  0  0  0  0  0  0
    3.0197   -2.6648    3.7304 C   0  0  1  0  0  0  0  0  0  0  0  0
    2.6243   -1.6685    2.5532 C   0  0  1  0  0  0  0  0  0  0  0  0
    1.1798   -1.8237    2.0831 C   0  0  0  0  0  0  0  0  0  0  0  0
    2.5461   -0.2356    3.1946 C   0  0  0  0  0  0  0  0  0  0  0  0
    2.6670    0.7659    2.0565 C   0  0  0  0  0  0  0  0  0  0  0  0
    3.1351   -0.0261    0.8966 N   0  0  0  0  0  0  0  0  0  0  0  0
    3.6475   -1.3458    1.3876 C   0  0  2  0  0  0  0  0  0  0  0  0
    3.5104   -3.2669   -4.0978 H   0  0  0  0  0  0  0  0  0  0  0  0
    2.0629   -3.3605   -3.1135 H   0  0  0  0  0  0  0  0  0  0  0  0
    3.4817   -4.2604   -2.6564 H   0  0  0  0  0  0  0  0  0  0  0  0
    3.2566   -0.8560   -3.9199 H   0  0  0  0  0  0  0  0  0  0  0  0
    3.4383    0.0594   -2.3535 H   0  0  0  0  0  0  0  0  0  0  0  0
    2.0378   -0.9698   -2.6521 H   0  0  0  0  0  0  0  0  0  0  0  0
    4.8745   -0.3229   -0.7872 H   0  0  0  0  0  0  0  0  0  0  0  0
    6.1347   -1.3361   -0.1824 H   0  0  0  0  0  0  0  0  0  0  0  0
    5.5131   -1.3204   -2.7642 H   0  0  0  0  0  0  0  0  0  0  0  0
    5.6563   -4.0245   -2.6894 H   0  0  0  0  0  0  0  0  0  0  0  0
    7.0268   -3.0497   -2.3006 H   0  0  0  0  0  0  0  0  0  0  0  0
    6.2985   -4.9436   -0.6084 H   0  0  0  0  0  0  0  0  0  0  0  0
    6.8577   -3.4135    0.0466 H   0  0  0  0  0  0  0  0  0  0  0  0
    4.1041   -4.2009   -0.6462 H   0  0  0  0  0  0  0  0  0  0  0  0
    3.0524   -6.5599    1.4011 H   0  0  0  0  0  0  0  0  0  0  0  0
    2.2315   -3.8069    0.8433 H   0  0  0  0  0  0  0  0  0  0  0  0
    1.2643   -5.2703    0.6604 H   0  0  0  0  0  0  0  0  0  0  0  0
    2.5130   -3.9598    6.0060 H   0  0  0  0  0  0  0  0  0  0  0  0
    1.7164   -5.4125    5.4124 H   0  0  0  0  0  0  0  0  0  0  0  0
    1.0030   -3.8198    5.1263 H   0  0  0  0  0  0  0  0  0  0  0  0
    4.2193   -5.0991    5.1594 H   0  0  0  0  0  0  0  0  0  0  0  0
    4.3408   -7.2465    4.6305 H   0  0  0  0  0  0  0  0  0  0  0  0
    3.0377   -7.0544    3.5005 H   0  0  0  0  0  0  0  0  0  0  0  0
    5.9639   -7.3845    3.0256 H   0  0  0  0  0  0  0  0  0  0  0  0
    4.7562   -7.5841    1.8433 H   0  0  0  0  0  0  0  0  0  0  0  0
    6.4326   -5.4716    1.6528 H   0  0  0  0  0  0  0  0  0  0  0  0
    7.4863   -5.1317    3.8642 H   0  0  0  0  0  0  0  0  0  0  0  0
    6.4591   -6.1735    4.7496 H   0  0  0  0  0  0  0  0  0  0  0  0
    6.6200   -4.5319    5.2832 H   0  0  0  0  0  0  0  0  0  0  0  0
    6.2462   -2.7020    3.5587 H   0  0  0  0  0  0  0  0  0  0  0  0
    5.3023   -2.8943    2.1934 H   0  0  0  0  0  0  0  0  0  0  0  0
    4.6143   -2.7623    5.1957 H   0  0  0  0  0  0  0  0  0  0  0  0
    4.7587   -1.3770    4.1849 H   0  0  0  0  0  0  0  0  0  0  0  0
    2.4603   -2.2194    4.5570 H   0  0  0  0  0  0  0  0  0  0  0  0
    0.6557   -0.8666    1.9731 H   0  0  0  0  0  0  0  0  0  0  0  0
    0.5940   -2.3981    2.8079 H   0  0  0  0  0  0  0  0  0  0  0  0
    1.1861   -2.3229    1.1584 H   0  0  0  0  0  0  0  0  0  0  0  0
    1.6168   -0.0741    3.7427 H   0  0  0  0  0  0  0  0  0  0  0  0
    3.3313   -0.0088    3.9119 H   0  0  0  0  0  0  0  0  0  0  0  0
    1.7175    1.2520    1.7974 H   0  0  0  0  0  0  0  0  0  0  0  0
    3.4043    1.5335    2.3035 H   0  0  0  0  0  0  0  0  0  0  0  0
    2.3599   -0.2311    0.2750 H   0  0  0  0  0  0  0  0  0  0  0  0
    4.5796   -1.0267    1.8512 H   0  0  0  0  0  0  0  0  0  0  0  0
    3.8465    0.4677    0.3992 H   0  0  0  0  0  0  0  0  0  0  0  0
  1  2  1  0
  1 33  1  0
  1 34  1  0
  1 35  1  0
  2  7  1  0
  2  3  1  0
  2  4  1  0
  3 36  1  0
  3 37  1  0
  3 38  1  0
  5  4  1  6
  5 10  1  0
  5 32  1  0
  5  6  1  0
  6  7  1  0
  6 39  1  0
  6 40  1  0
  7  8  1  0
  7 41  1  6
  8  9  1  0
  8 42  1  0
  8 43  1  0
  9 10  1  0
  9 44  1  0
  9 45  1  0
 10 11  1  0
 10 46  1  6
 11 21  1  0
 11 12  2  3
 12 13  1  0
 12 47  1  0
 13 14  1  0
 13 48  1  0
 13 49  1  0
 14 15  2  0
 14 16  1  0
 16 26  1  0
 16 17  1  1
 16 18  1  0
 17 50  1  0
 17 51  1  0
 17 52  1  0
 18 22  1  0
 18 19  1  0
 18 53  1  1
 19 20  1  0
 19 54  1  0
 19 55  1  0
 20 21  1  0
 20 56  1  0
 20 57  1  0
 21 22  1  0
 21 58  1  6
 22 23  1  1
 22 24  1  0
 23 59  1  0
 23 60  1  0
 23 61  1  0
 24 25  1  0
 24 62  1  0
 24 63  1  0
 25 26  1  0
 25 64  1  0
 25 65  1  0
 26 27  1  0
 26 66  1  1
 27 32  1  0
 27 28  1  6
 27 29  1  0
 28 67  1  0
 28 68  1  0
 28 69  1  0
 29 30  1  0
 29 70  1  0
 29 71  1  0
 30 31  1  0
 30 72  1  0
 30 73  1  0
 31 32  1  0
 31 74  1  0
 31 76  1  0
 32 75  1  1
M  CHG  1  31   1
M  END
>  <i_m_ct_stereo_status>  (139) 
1

>  <s_m_source_file>  (139) 
/var/tmp/pbs.5076255.sched01/tmpkddd28mm/459jwin2qj.sdf

>  <i_m_source_file_index>  (139) 
13

>  <i_lp_mmshare_version>  (139) 
48012

>  <i_f3d_flags>  (139) 
0

>  <s_epik_input>  (139) 
W0NIM11DKE8xKShbQ0gzXSlbQ0BASF0oW0NIMl0yKVtDSDJdW0NIMl1bQ0BIXShbQ0BdMTIzKS9DPTRbQ0BIXTVbQ0BdNihbQ0gzXSlbQ0BIXShbQ0gyXVtDSDJdNSlbQ0BdKFtDSDNdKShDKD1PKVtDSDJdL1tDSF00KVtDSF0oW0NIMl1bQ0gyXTYpW0NAXTcoW0NIM10pW0NAQEhdM1tOSF1bQ0gyXVtDSDJdNw==

>  <s_epik_cmdline>  (139) 
J2VwaWtfcHl0aG9uJywgJy1waHQnLCAnMi4wJywgJy1waCcsICc3LjAnLCAnLXRuJywgJzgnLCAnLW1hJywgJzIwMCcsICctaW1hZScsICc8aW5maWxlLm1hZT4nLCAnLW9tYWUnLCAnPG91dGZpbGUubWFlPic=

>  <r_lp_tautomer_probability>  (139) 
1

>  <r_epik_Ionization_Penalty>  (139) 
0.00018918

>  <r_epik_Ionization_Penalty_Charging>  (139) 
0.00018918

>  <r_epik_Ionization_Penalty_Neutral>  (139) 
1.74709e-12

>  <r_epik_State_Penalty>  (139) 
-0

>  <r_epik_Charging_Adjusted_Penalty>  (139) 
0.00018918

>  <i_epik_Tot_Q>  (139) 
1

>  <i_epik_Tot_abs_Q>  (139) 
1

>  <s_lp_Force_Field>  (139) 
OPLS3e

>  <r_lp_Energy>  (139) 
187.007

>  <b_lp_Chiralities_Consistent>  (139) 
1

>  <s_lp_Variant>  (139) 
44:0-1

>  <s_i_glide_gridfile>  (139) 
pfpi4k_grid

>  <i_i_glide_lignum>  (139) 
13

>  <i_i_glide_rotatable_bonds>  (139) 
0

>  <r_i_docking_score>  (139) 
-1.49713

>  <r_i_glide_ligand_efficiency>  (139) 
-0.0467853

>  <r_i_glide_ligand_efficiency_sa>  (139) 
-0.148534

>  <r_i_glide_ligand_efficiency_ln>  (139) 
-0.335248

>  <r_i_glide_gscore>  (139) 
-1.49713

>  <r_i_glide_lipo>  (139) 
-0.457996

>  <r_i_glide_hbond>  (139) 
-0.193766

>  <r_i_glide_metal>  (139) 
-0

>  <r_i_glide_rewards>  (139) 
-0.418192

>  <r_i_glide_evdw>  (139) 
2.35266

>  <r_i_glide_ecoul>  (139) 
-3.3241

>  <r_i_glide_erotb>  (139) 
0

>  <r_i_glide_esite>  (139) 
-0.0461934

>  <r_i_glide_emodel>  (139) 
0.0561138

>  <r_i_glide_energy>  (139) 
-0.971444

>  <r_i_glide_einternal>  (139) 
0

>  <r_i_glide_intrahb_reward>  (139) 
-0

>  <i_i_glide_confnum>  (139) 
2

>  <i_i_glide_posenum>  (139) 
36

>  <r_i_glide_eff_state_penalty>  (139) 
0

>  <ligand_id>  (139) 
44

>  <original_smiles>  (139) 
CC1(C)OC23CC1CCC2C1=CCC(=O)C2(C)C4CCC1C4(C)CCC2C1(C)CCNC13

>  <smiles>  (139) 
[H]C1=C2C3([H])C([H])([H])C([H])([H])C4([H])C([H])([H])C3(OC4(C([H])([H])[H])C([H])([H])[H])C3([H])C(C([H])([H])[H])(C([H])([H])C([H])([H])[N+]3([H])[H])C3([H])C([H])([H])C([H])([H])C4(C([H])([H])[H])C2([H])C([H])([H])C([H])([H])C4([H])C3(C([H])([H])[H])C(=O)C1([H])[H]

$$$$
44:1:0
     RDKit          3D

 76 82  0  0  1  0  0  0  0  0999 V2000
    3.7497   -3.5256   -1.5153 C   0  0  0  0  0  0  0  0  0  0  0  0
    4.2239   -2.2280   -0.8440 C   0  0  0  0  0  0  0  0  0  0  0  0
    3.9785   -1.0803   -1.8385 C   0  0  0  0  0  0  0  0  0  0  0  0
    3.4126   -1.9421    0.3084 O   0  0  0  0  0  0  0  0  0  0  0  0
    4.2083   -1.7957    1.4881 C   0  0  2  0  0  0  0  0  0  0  0  0
    5.5240   -1.2649    0.8377 C   0  0  0  0  0  0  0  0  0  0  0  0
    5.6914   -2.2243   -0.3249 C   0  0  1  0  0  0  0  0  0  0  0  0
    6.2733   -3.5582    0.2201 C   0  0  0  0  0  0  0  0  0  0  0  0
    5.8978   -3.8124    1.6991 C   0  0  0  0  0  0  0  0  0  0  0  0
    4.4714   -3.3008    1.9703 C   0  0  1  0  0  0  0  0  0  0  0  0
    3.7392   -3.8711    3.1862 C   0  0  0  0  0  0  0  0  0  0  0  0
    2.4268   -4.0993    2.9898 C   0  0  0  0  0  0  0  0  0  0  0  0
    1.3535   -4.4971    3.9579 C   0  0  0  0  0  0  0  0  0  0  0  0
    1.0060   -3.3210    4.8699 C   0  0  0  0  0  0  0  0  0  0  0  0
   -0.1831   -3.0258    4.9647 O   0  0  0  0  0  0  0  0  0  0  0  0
    2.0901   -2.5049    5.6508 C   0  0  1  0  0  0  0  0  0  0  0  0
    1.3293   -2.0365    6.9410 C   0  0  0  0  0  0  0  0  0  0  0  0
    3.3076   -3.3524    6.2600 C   0  0  1  0  0  0  0  0  0  0  0  0
    3.1337   -4.8863    6.3814 C   0  0  0  0  0  0  0  0  0  0  0  0
    3.9373   -5.4922    5.2064 C   0  0  0  0  0  0  0  0  0  0  0  0
    4.5497   -4.2954    4.4399 C   0  0  2  0  0  0  0  0  0  0  0  0
    4.6787   -3.2312    5.5483 C   0  0  2  0  0  0  0  0  0  0  0  0
    5.8398   -3.6332    6.5073 C   0  0  0  0  0  0  0  0  0  0  0  0
    5.0261   -1.8043    5.0891 C   0  0  0  0  0  0  0  0  0  0  0  0
    3.9608   -0.7727    5.4464 C   0  0  0  0  0  0  0  0  0  0  0  0
    2.5662   -1.1547    4.9109 C   0  0  1  0  0  0  0  0  0  0  0  0
    2.3376   -0.6877    3.3780 C   0  0  1  0  0  0  0  0  0  0  0  0
    1.0317   -1.1480    2.6777 C   0  0  0  0  0  0  0  0  0  0  0  0
    2.0728    0.8523    3.4818 C   0  0  0  0  0  0  0  0  0  0  0  0
    2.3634    1.4522    2.1248 C   0  0  0  0  0  0  0  0  0  0  0  0
    3.3266    0.5361    1.5153 N   0  0  0  0  0  0  0  0  0  0  0  0
    3.5909   -0.6355    2.3933 C   0  0  2  0  0  0  0  0  0  0  0  0
    4.3604   -3.7719   -2.3846 H   0  0  0  0  0  0  0  0  0  0  0  0
    2.7155   -3.4340   -1.8549 H   0  0  0  0  0  0  0  0  0  0  0  0
    3.7769   -4.3878   -0.8524 H   0  0  0  0  0  0  0  0  0  0  0  0
    4.5636   -1.2033   -2.7494 H   0  0  0  0  0  0  0  0  0  0  0  0
    4.2341   -0.1164   -1.4094 H   0  0  0  0  0  0  0  0  0  0  0  0
    2.9254   -1.0371   -2.1230 H   0  0  0  0  0  0  0  0  0  0  0  0
    5.4484   -0.2541    0.4456 H   0  0  0  0  0  0  0  0  0  0  0  0
    6.3735   -1.2462    1.5194 H   0  0  0  0  0  0  0  0  0  0  0  0
    6.3654   -1.8446   -1.0924 H   0  0  0  0  0  0  0  0  0  0  0  0
    5.9747   -4.4034   -0.3989 H   0  0  0  0  0  0  0  0  0  0  0  0
    7.3601   -3.5381    0.1497 H   0  0  0  0  0  0  0  0  0  0  0  0
    5.9971   -4.8767    1.9113 H   0  0  0  0  0  0  0  0  0  0  0  0
    6.5939   -3.2953    2.3593 H   0  0  0  0  0  0  0  0  0  0  0  0
    3.9731   -3.9064    1.2171 H   0  0  0  0  0  0  0  0  0  0  0  0
    2.0347   -3.8800    2.0075 H   0  0  0  0  0  0  0  0  0  0  0  0
    0.4679   -4.7111    3.3636 H   0  0  0  0  0  0  0  0  0  0  0  0
    1.5289   -5.4214    4.4917 H   0  0  0  0  0  0  0  0  0  0  0  0
    1.9605   -1.4386    7.6023 H   0  0  0  0  0  0  0  0  0  0  0  0
    0.9679   -2.8878    7.5243 H   0  0  0  0  0  0  0  0  0  0  0  0
    0.4621   -1.4102    6.7206 H   0  0  0  0  0  0  0  0  0  0  0  0
    3.4737   -2.9918    7.2763 H   0  0  0  0  0  0  0  0  0  0  0  0
    3.5881   -5.2262    7.3123 H   0  0  0  0  0  0  0  0  0  0  0  0
    2.1026   -5.2277    6.4598 H   0  0  0  0  0  0  0  0  0  0  0  0
    4.7338   -6.1110    5.6176 H   0  0  0  0  0  0  0  0  0  0  0  0
    3.3827   -6.1824    4.5734 H   0  0  0  0  0  0  0  0  0  0  0  0
    5.5384   -4.6074    4.1088 H   0  0  0  0  0  0  0  0  0  0  0  0
    6.7971   -3.6132    5.9854 H   0  0  0  0  0  0  0  0  0  0  0  0
    5.7471   -4.6278    6.9387 H   0  0  0  0  0  0  0  0  0  0  0  0
    5.9128   -2.9402    7.3468 H   0  0  0  0  0  0  0  0  0  0  0  0
    5.9376   -1.4589    5.5761 H   0  0  0  0  0  0  0  0  0  0  0  0
    5.3028   -1.8052    4.0429 H   0  0  0  0  0  0  0  0  0  0  0  0
    3.9105   -0.6959    6.5326 H   0  0  0  0  0  0  0  0  0  0  0  0
    4.2871    0.2128    5.1220 H   0  0  0  0  0  0  0  0  0  0  0  0
    1.9355   -0.4198    5.4105 H   0  0  0  0  0  0  0  0  0  0  0  0
    0.8237   -0.6014    1.7551 H   0  0  0  0  0  0  0  0  0  0  0  0
    0.1639   -0.9981    3.3219 H   0  0  0  0  0  0  0  0  0  0  0  0
    1.0193   -2.1719    2.3611 H   0  0  0  0  0  0  0  0  0  0  0  0
    1.0589    1.1055    3.8021 H   0  0  0  0  0  0  0  0  0  0  0  0
    2.7376    1.3411    4.1957 H   0  0  0  0  0  0  0  0  0  0  0  0
    1.4667    1.5195    1.5071 H   0  0  0  0  0  0  0  0  0  0  0  0
    2.7687    2.4614    2.2214 H   0  0  0  0  0  0  0  0  0  0  0  0
    2.9505    0.2006    0.6344 H   0  0  0  0  0  0  0  0  0  0  0  0
    4.4209   -0.2488    2.9719 H   0  0  0  0  0  0  0  0  0  0  0  0
    4.1813    1.0487    1.3586 H   0  0  0  0  0  0  0  0  0  0  0  0
  1  2  1  0
  1 33  1  0
  1 34  1  0
  1 35  1  0
  2  7  1  0
  2  3  1  0
  2  4  1  0
  3 36  1  0
  3 37  1  0
  3 38  1  0
  5  4  1  6
  5 10  1  0
  5 32  1  0
  5  6  1  0
  6  7  1  0
  6 39  1  0
  6 40  1  0
  7  8  1  0
  7 41  1  6
  8  9  1  0
  8 42  1  0
  8 43  1  0
  9 10  1  0
  9 44  1  0
  9 45  1  0
 10 11  1  0
 10 46  1  6
 11 21  1  0
 11 12  2  3
 12 13  1  0
 12 47  1  0
 13 14  1  0
 13 48  1  0
 13 49  1  0
 14 15  2  0
 14 16  1  0
 16 26  1  0
 16 17  1  1
 16 18  1  0
 17 50  1  0
 17 51  1  0
 17 52  1  0
 18 22  1  0
 18 19  1  0
 18 53  1  1
 19 20  1  0
 19 54  1  0
 19 55  1  0
 20 21  1  0
 20 56  1  0
 20 57  1  0
 21 22  1  0
 21 58  1  6
 22 23  1  1
 22 24  1  0
 23 59  1  0
 23 60  1  0
 23 61  1  0
 24 25  1  0
 24 62  1  0
 24 63  1  0
 25 26  1  0
 25 64  1  0
 25 65  1  0
 26 27  1  0
 26 66  1  1
 27 32  1  0
 27 28  1  6
 27 29  1  0
 28 67  1  0
 28 68  1  0
 28 69  1  0
 29 30  1  0
 29 70  1  0
 29 71  1  0
 30 31  1  0
 30 72  1  0
 30 73  1  0
 31 32  1  0
 31 74  1  0
 31 76  1  0
 32 75  1  1
M  CHG  1  31   1
M  END
>  <i_m_ct_stereo_status>  (140) 
1

>  <s_m_source_file>  (140) 
/var/tmp/pbs.5076255.sched01/tmpkddd28mm/459jwin2qj.sdf

>  <i_m_source_file_index>  (140) 
14

>  <i_lp_mmshare_version>  (140) 
48012

>  <i_f3d_flags>  (140) 
0

>  <s_epik_input>  (140) 
W0NIM11DKE8xKShbQ0gzXSlbQ0BASF0oW0NIMl0yKVtDSDJdW0NIMl1bQ0BIXShbQ0BdMTIzKS9DPTRbQ0BIXTVbQ0BdNihbQ0gzXSlbQ0BIXShbQ0gyXVtDSDJdNSlbQ0BdKFtDSDNdKShDKD1PKVtDSDJdL1tDSF00KVtDSF0oW0NIMl1bQ0gyXTYpW0NAXTcoW0NIM10pW0NAQEhdM1tOSF1bQ0gyXVtDSDJdNw==

>  <s_epik_cmdline>  (140) 
J2VwaWtfcHl0aG9uJywgJy1waHQnLCAnMi4wJywgJy1waCcsICc3LjAnLCAnLXRuJywgJzgnLCAnLW1hJywgJzIwMCcsICctaW1hZScsICc8aW5maWxlLm1hZT4nLCAnLW9tYWUnLCAnPG91dGZpbGUubWFlPic=

>  <r_lp_tautomer_probability>  (140) 
1

>  <r_epik_Ionization_Penalty>  (140) 
0.00018918

>  <r_epik_Ionization_Penalty_Charging>  (140) 
0.00018918

>  <r_epik_Ionization_Penalty_Neutral>  (140) 
1.74709e-12

>  <r_epik_State_Penalty>  (140) 
-0

>  <r_epik_Charging_Adjusted_Penalty>  (140) 
0.00018918

>  <i_epik_Tot_Q>  (140) 
1

>  <i_epik_Tot_abs_Q>  (140) 
1

>  <s_lp_Force_Field>  (140) 
OPLS3e

>  <r_lp_Energy>  (140) 
148.905

>  <b_lp_Chiralities_Consistent>  (140) 
1

>  <s_lp_Variant>  (140) 
44:0-2

>  <s_i_glide_gridfile>  (140) 
pfpi4k_grid

>  <i_i_glide_lignum>  (140) 
14

>  <i_i_glide_rotatable_bonds>  (140) 
0

>  <r_i_docking_score>  (140) 
-2.38209

>  <r_i_glide_ligand_efficiency>  (140) 
-0.0744404

>  <r_i_glide_ligand_efficiency_sa>  (140) 
-0.236334

>  <r_i_glide_ligand_efficiency_ln>  (140) 
-0.533416

>  <r_i_glide_gscore>  (140) 
-2.38209

>  <r_i_glide_lipo>  (140) 
-0.363714

>  <r_i_glide_hbond>  (140) 
0

>  <r_i_glide_metal>  (140) 
-0

>  <r_i_glide_rewards>  (140) 
-0.433487

>  <r_i_glide_evdw>  (140) 
-25.5946

>  <r_i_glide_ecoul>  (140) 
-2.03441

>  <r_i_glide_erotb>  (140) 
0

>  <r_i_glide_esite>  (140) 
0

>  <r_i_glide_emodel>  (140) 
-32.0218

>  <r_i_glide_energy>  (140) 
-27.629

>  <r_i_glide_einternal>  (140) 
0

>  <r_i_glide_intrahb_reward>  (140) 
-0

>  <i_i_glide_confnum>  (140) 
2

>  <i_i_glide_posenum>  (140) 
35

>  <r_i_glide_eff_state_penalty>  (140) 
0

>  <ligand_id>  (140) 
44

>  <original_smiles>  (140) 
CC1(C)OC23CC1CCC2C1=CCC(=O)C2(C)C4CCC1C4(C)CCC2C1(C)CCNC13

>  <smiles>  (140) 
[H]C1=C2C3([H])C([H])([H])C([H])([H])C4([H])C([H])([H])C3(OC4(C([H])([H])[H])C([H])([H])[H])C3([H])C(C([H])([H])[H])(C([H])([H])C([H])([H])[N+]3([H])[H])C3([H])C([H])([H])C([H])([H])C4(C([H])([H])[H])C2([H])C([H])([H])C([H])([H])C4([H])C3(C([H])([H])[H])C(=O)C1([H])[H]

$$$$
44:1:1
     RDKit          3D

 76 82  0  0  1  0  0  0  0  0999 V2000
    2.3196   -2.6613   -3.6389 C   0  0  0  0  0  0  0  0  0  0  0  0
    3.2717   -1.7600   -2.8136 C   0  0  0  0  0  0  0  0  0  0  0  0
    3.0974   -0.2816   -3.1864 C   0  0  0  0  0  0  0  0  0  0  0  0
    3.0228   -1.8929   -1.4022 O   0  0  0  0  0  0  0  0  0  0  0  0
    4.1794   -2.3270   -0.6982 C   0  0  2  0  0  0  0  0  0  0  0  0
    5.2705   -1.6745   -1.6165 C   0  0  0  0  0  0  0  0  0  0  0  0
    4.7594   -2.0788   -2.9936 C   0  0  1  0  0  0  0  0  0  0  0  0
    5.1484   -3.5453   -3.2484 C   0  0  0  0  0  0  0  0  0  0  0  0
    5.2333   -4.3451   -1.9368 C   0  0  0  0  0  0  0  0  0  0  0  0
    4.2088   -3.8924   -0.9242 C   0  0  1  0  0  0  0  0  0  0  0  0
    3.8434   -4.8949    0.1743 C   0  0  0  0  0  0  0  0  0  0  0  0
    2.5429   -4.9339    0.4815 C   0  0  0  0  0  0  0  0  0  0  0  0
    1.8203   -5.6431    1.5880 C   0  0  0  0  0  0  0  0  0  0  0  0
    2.1027   -4.9384    2.9151 C   0  0  0  0  0  0  0  0  0  0  0  0
    1.1248   -4.6175    3.5844 O   0  0  0  0  0  0  0  0  0  0  0  0
    3.5536   -4.6149    3.3975 C   0  0  1  0  0  0  0  0  0  0  0  0
    3.4443   -4.6781    4.9615 C   0  0  0  0  0  0  0  0  0  0  0  0
    4.6698   -5.7296    3.0720 C   0  0  1  0  0  0  0  0  0  0  0  0
    4.1861   -7.1519    2.7054 C   0  0  0  0  0  0  0  0  0  0  0  0
    4.3468   -7.2528    1.1700 C   0  0  0  0  0  0  0  0  0  0  0  0
    4.9176   -5.8934    0.6953 C   0  0  2  0  0  0  0  0  0  0  0  0
    5.6890   -5.4233    1.9364 C   0  0  2  0  0  0  0  0  0  0  0  0
    6.9809   -6.2819    2.1061 C   0  0  0  0  0  0  0  0  0  0  0  0
    6.1705   -3.9678    1.8873 C   0  0  0  0  0  0  0  0  0  0  0  0
    5.5631   -3.1159    3.0056 C   0  0  0  0  0  0  0  0  0  0  0  0
    4.0417   -3.1157    3.0511 C   0  0  1  0  0  0  0  0  0  0  0  0
    3.4234   -2.0140    2.0500 C   0  0  1  0  0  0  0  0  0  0  0  0
    1.8942   -2.0169    1.8677 C   0  0  0  0  0  0  0  0  0  0  0  0
    3.5932   -0.6559    2.8025 C   0  0  0  0  0  0  0  0  0  0  0  0
    3.4777    0.4253    1.7624 C   0  0  0  0  0  0  0  0  0  0  0  0
    3.9670   -0.2073    0.5344 N   0  0  0  0  0  0  0  0  0  0  0  0
    4.2371   -1.6444    0.7267 C   0  0  2  0  0  0  0  0  0  0  0  0
    2.5215   -2.5592   -4.6989 H   0  0  0  0  0  0  0  0  0  0  0  0
    1.2995   -2.3672   -3.4477 H   0  0  0  0  0  0  0  0  0  0  0  0
    2.3464   -3.7273   -3.3911 H   0  0  0  0  0  0  0  0  0  0  0  0
    3.1332   -0.1179   -4.2609 H   0  0  0  0  0  0  0  0  0  0  0  0
    3.8746    0.3538   -2.7353 H   0  0  0  0  0  0  0  0  0  0  0  0
    2.1702    0.1052   -2.7906 H   0  0  0  0  0  0  0  0  0  0  0  0
    5.3275   -0.5905   -1.5434 H   0  0  0  0  0  0  0  0  0  0  0  0
    6.2834   -2.0196   -1.4047 H   0  0  0  0  0  0  0  0  0  0  0  0
    5.1066   -1.4690   -3.8218 H   0  0  0  0  0  0  0  0  0  0  0  0
    4.4651   -4.0323   -3.9408 H   0  0  0  0  0  0  0  0  0  0  0  0
    6.1146   -3.5706   -3.7500 H   0  0  0  0  0  0  0  0  0  0  0  0
    5.0115   -5.4021   -2.1653 H   0  0  0  0  0  0  0  0  0  0  0  0
    6.2286   -4.2651   -1.4911 H   0  0  0  0  0  0  0  0  0  0  0  0
    3.3471   -4.0755   -1.5531 H   0  0  0  0  0  0  0  0  0  0  0  0
    1.8929   -4.2879   -0.0901 H   0  0  0  0  0  0  0  0  0  0  0  0
    0.7602   -5.5309    1.3987 H   0  0  0  0  0  0  0  0  0  0  0  0
    1.9522   -6.7146    1.6272 H   0  0  0  0  0  0  0  0  0  0  0  0
    4.3969   -4.4719    5.4493 H   0  0  0  0  0  0  0  0  0  0  0  0
    3.1195   -5.6649    5.2922 H   0  0  0  0  0  0  0  0  0  0  0  0
    2.7375   -3.9497    5.3656 H   0  0  0  0  0  0  0  0  0  0  0  0
    5.2680   -5.8458    3.9740 H   0  0  0  0  0  0  0  0  0  0  0  0
    4.8421   -7.8862    3.1690 H   0  0  0  0  0  0  0  0  0  0  0  0
    3.2016   -7.4085    3.0854 H   0  0  0  0  0  0  0  0  0  0  0  0
    5.0572   -8.0484    0.9491 H   0  0  0  0  0  0  0  0  0  0  0  0
    3.4553   -7.5603    0.6326 H   0  0  0  0  0  0  0  0  0  0  0  0
    5.6111   -6.1003   -0.1170 H   0  0  0  0  0  0  0  0  0  0  0  0
    7.6636   -6.1187    1.2722 H   0  0  0  0  0  0  0  0  0  0  0  0
    6.8061   -7.3551    2.1534 H   0  0  0  0  0  0  0  0  0  0  0  0
    7.5120   -6.0153    3.0208 H   0  0  0  0  0  0  0  0  0  0  0  0
    7.2506   -3.9290    2.0015 H   0  0  0  0  0  0  0  0  0  0  0  0
    6.0282   -3.5544    0.8966 H   0  0  0  0  0  0  0  0  0  0  0  0
    5.8819   -3.5111    3.9692 H   0  0  0  0  0  0  0  0  0  0  0  0
    5.9886   -2.1166    2.9693 H   0  0  0  0  0  0  0  0  0  0  0  0
    3.8490   -2.6196    4.0035 H   0  0  0  0  0  0  0  0  0  0  0  0
    1.5088   -1.1216    1.3832 H   0  0  0  0  0  0  0  0  0  0  0  0
    1.3676   -2.1041    2.8217 H   0  0  0  0  0  0  0  0  0  0  0  0
    1.5740   -2.7960    1.2196 H   0  0  0  0  0  0  0  0  0  0  0  0
    2.8675   -0.5001    3.5963 H   0  0  0  0  0  0  0  0  0  0  0  0
    4.5720   -0.5671    3.2700 H   0  0  0  0  0  0  0  0  0  0  0  0
    2.4620    0.7923    1.6162 H   0  0  0  0  0  0  0  0  0  0  0  0
    4.0973    1.2531    2.0413 H   0  0  0  0  0  0  0  0  0  0  0  0
    3.2466   -0.1211   -0.1947 H   0  0  0  0  0  0  0  0  0  0  0  0
    5.2903   -1.6037    0.9879 H   0  0  0  0  0  0  0  0  0  0  0  0
    4.8118    0.2691    0.1961 H   0  0  0  0  0  0  0  0  0  0  0  0
  1  2  1  0
  1 33  1  0
  1 34  1  0
  1 35  1  0
  2  7  1  0
  2  3  1  0
  2  4  1  0
  3 36  1  0
  3 37  1  0
  3 38  1  0
  5  4  1  6
  5 10  1  0
  5 32  1  0
  5  6  1  0
  6  7  1  0
  6 39  1  0
  6 40  1  0
  7  8  1  0
  7 41  1  6
  8  9  1  0
  8 42  1  0
  8 43  1  0
  9 10  1  0
  9 44  1  0
  9 45  1  0
 10 11  1  0
 10 46  1  6
 11 21  1  0
 11 12  2  3
 12 13  1  0
 12 47  1  0
 13 14  1  0
 13 48  1  0
 13 49  1  0
 14 15  2  0
 14 16  1  0
 16 26  1  0
 16 17  1  1
 16 18  1  0
 17 50  1  0
 17 51  1  0
 17 52  1  0
 18 22  1  0
 18 19  1  0
 18 53  1  1
 19 20  1  0
 19 54  1  0
 19 55  1  0
 20 21  1  0
 20 56  1  0
 20 57  1  0
 21 22  1  0
 21 58  1  6
 22 23  1  1
 22 24  1  0
 23 59  1  0
 23 60  1  0
 23 61  1  0
 24 25  1  0
 24 62  1  0
 24 63  1  0
 25 26  1  0
 25 64  1  0
 25 65  1  0
 26 27  1  0
 26 66  1  1
 27 32  1  0
 27 28  1  6
 27 29  1  0
 28 67  1  0
 28 68  1  0
 28 69  1  0
 29 30  1  0
 29 70  1  0
 29 71  1  0
 30 31  1  0
 30 72  1  0
 30 73  1  0
 31 32  1  0
 31 74  1  0
 31 76  1  0
 32 75  1  1
M  CHG  1  31   1
M  END
>  <i_m_ct_stereo_status>  (141) 
1

>  <s_m_source_file>  (141) 
/var/tmp/pbs.5076255.sched01/tmpkddd28mm/459jwin2qj.sdf

>  <i_m_source_file_index>  (141) 
14

>  <i_lp_mmshare_version>  (141) 
48012

>  <i_f3d_flags>  (141) 
0

>  <s_epik_input>  (141) 
W0NIM11DKE8xKShbQ0gzXSlbQ0BASF0oW0NIMl0yKVtDSDJdW0NIMl1bQ0BIXShbQ0BdMTIzKS9DPTRbQ0BIXTVbQ0BdNihbQ0gzXSlbQ0BIXShbQ0gyXVtDSDJdNSlbQ0BdKFtDSDNdKShDKD1PKVtDSDJdL1tDSF00KVtDSF0oW0NIMl1bQ0gyXTYpW0NAXTcoW0NIM10pW0NAQEhdM1tOSF1bQ0gyXVtDSDJdNw==

>  <s_epik_cmdline>  (141) 
J2VwaWtfcHl0aG9uJywgJy1waHQnLCAnMi4wJywgJy1waCcsICc3LjAnLCAnLXRuJywgJzgnLCAnLW1hJywgJzIwMCcsICctaW1hZScsICc8aW5maWxlLm1hZT4nLCAnLW9tYWUnLCAnPG91dGZpbGUubWFlPic=

>  <r_lp_tautomer_probability>  (141) 
1

>  <r_epik_Ionization_Penalty>  (141) 
0.00018918

>  <r_epik_Ionization_Penalty_Charging>  (141) 
0.00018918

>  <r_epik_Ionization_Penalty_Neutral>  (141) 
1.74709e-12

>  <r_epik_State_Penalty>  (141) 
-0

>  <r_epik_Charging_Adjusted_Penalty>  (141) 
0.00018918

>  <i_epik_Tot_Q>  (141) 
1

>  <i_epik_Tot_abs_Q>  (141) 
1

>  <s_lp_Force_Field>  (141) 
OPLS3e

>  <r_lp_Energy>  (141) 
148.905

>  <b_lp_Chiralities_Consistent>  (141) 
1

>  <s_lp_Variant>  (141) 
44:0-2

>  <s_i_glide_gridfile>  (141) 
pfpi4k_grid

>  <i_i_glide_lignum>  (141) 
14

>  <i_i_glide_rotatable_bonds>  (141) 
0

>  <r_i_docking_score>  (141) 
-2.14358

>  <r_i_glide_ligand_efficiency>  (141) 
-0.066987

>  <r_i_glide_ligand_efficiency_sa>  (141) 
-0.212671

>  <r_i_glide_ligand_efficiency_ln>  (141) 
-0.480007

>  <r_i_glide_gscore>  (141) 
-2.14358

>  <r_i_glide_lipo>  (141) 
-1.01396

>  <r_i_glide_hbond>  (141) 
0

>  <r_i_glide_metal>  (141) 
-0

>  <r_i_glide_rewards>  (141) 
-0.418192

>  <r_i_glide_evdw>  (141) 
-12.1458

>  <r_i_glide_ecoul>  (141) 
-0.648434

>  <r_i_glide_erotb>  (141) 
0

>  <r_i_glide_esite>  (141) 
-0.00687963

>  <r_i_glide_emodel>  (141) 
-15.7263

>  <r_i_glide_energy>  (141) 
-12.7943

>  <r_i_glide_einternal>  (141) 
0

>  <r_i_glide_intrahb_reward>  (141) 
-0

>  <i_i_glide_confnum>  (141) 
1

>  <i_i_glide_posenum>  (141) 
6

>  <r_i_glide_eff_state_penalty>  (141) 
0

>  <ligand_id>  (141) 
44

>  <original_smiles>  (141) 
CC1(C)OC23CC1CCC2C1=CCC(=O)C2(C)C4CCC1C4(C)CCC2C1(C)CCNC13

>  <smiles>  (141) 
[H]C1=C2C3([H])C([H])([H])C([H])([H])C4([H])C([H])([H])C3(OC4(C([H])([H])[H])C([H])([H])[H])C3([H])C(C([H])([H])[H])(C([H])([H])C([H])([H])[N+]3([H])[H])C3([H])C([H])([H])C([H])([H])C4(C([H])([H])[H])C2([H])C([H])([H])C([H])([H])C4([H])C3(C([H])([H])[H])C(=O)C1([H])[H]

$$$$
44:1:2
     RDKit          3D

 76 82  0  0  1  0  0  0  0  0999 V2000
    2.4156   -2.9536   -2.9654 C   0  0  0  0  0  0  0  0  0  0  0  0
    3.4288   -2.2217   -2.0735 C   0  0  0  0  0  0  0  0  0  0  0  0
    3.3784   -0.7692   -2.4916 C   0  0  0  0  0  0  0  0  0  0  0  0
    3.0837   -2.3027   -0.6748 O   0  0  0  0  0  0  0  0  0  0  0  0
    4.1706   -2.8088    0.1041 C   0  0  2  0  0  0  0  0  0  0  0  0
    5.3693   -2.2908   -0.7531 C   0  0  0  0  0  0  0  0  0  0  0  0
    4.8998   -2.6319   -2.1521 C   0  0  1  0  0  0  0  0  0  0  0  0
    5.1500   -4.0979   -2.3841 C   0  0  0  0  0  0  0  0  0  0  0  0
    5.1071   -4.9299   -1.0717 C   0  0  0  0  0  0  0  0  0  0  0  0
    4.0600   -4.3868   -0.1254 C   0  0  1  0  0  0  0  0  0  0  0  0
    3.5531   -5.3569    0.9476 C   0  0  0  0  0  0  0  0  0  0  0  0
    2.2525   -5.2672    1.1855 C   0  0  0  0  0  0  0  0  0  0  0  0
    1.3822   -5.8695    2.2535 C   0  0  0  0  0  0  0  0  0  0  0  0
    1.6534   -5.1853    3.5880 C   0  0  0  0  0  0  0  0  0  0  0  0
    0.6840   -4.7590    4.2063 O   0  0  0  0  0  0  0  0  0  0  0  0
    3.1001   -4.9964    4.1404 C   0  0  1  0  0  0  0  0  0  0  0  0
    2.9051   -5.0430    5.6952 C   0  0  0  0  0  0  0  0  0  0  0  0
    4.1102   -6.2195    3.9076 C   0  0  1  0  0  0  0  0  0  0  0  0
    3.5111   -7.5877    3.5067 C   0  0  0  0  0  0  0  0  0  0  0  0
    3.7497   -7.7315    1.9785 C   0  0  0  0  0  0  0  0  0  0  0  0
    4.4900   -6.4488    1.5423 C   0  0  2  0  0  0  0  0  0  0  0  0
    5.2048   -6.0416    2.8310 C   0  0  2  0  0  0  0  0  0  0  0  0
    6.4003   -7.0166    3.0690 C   0  0  0  0  0  0  0  0  0  0  0  0
    5.8196   -4.6477    2.8073 C   0  0  0  0  0  0  0  0  0  0  0  0
    5.2949   -3.7240    3.9127 C   0  0  0  0  0  0  0  0  0  0  0  0
    3.7702   -3.5595    3.8498 C   0  0  1  0  0  0  0  0  0  0  0  0
    3.3320   -2.3956    2.8181 C   0  0  1  0  0  0  0  0  0  0  0  0
    1.8330   -2.2608    2.5293 C   0  0  0  0  0  0  0  0  0  0  0  0
    3.5968   -1.0570    3.5594 C   0  0  0  0  0  0  0  0  0  0  0  0
    3.6968    0.0242    2.4949 C   0  0  0  0  0  0  0  0  0  0  0  0
    4.1260   -0.6632    1.2921 N   0  0  0  0  0  0  0  0  0  0  0  0
    4.2262   -2.1080    1.5237 C   0  0  2  0  0  0  0  0  0  0  0  0
    2.6718   -2.8690   -4.0217 H   0  0  0  0  0  0  0  0  0  0  0  0
    1.4210   -2.5329   -2.8310 H   0  0  0  0  0  0  0  0  0  0  0  0
    2.3113   -3.9937   -2.7184 H   0  0  0  0  0  0  0  0  0  0  0  0
    3.6401   -0.5806   -3.5322 H   0  0  0  0  0  0  0  0  0  0  0  0
    4.0694   -0.2076   -1.8788 H   0  0  0  0  0  0  0  0  0  0  0  0
    2.3738   -0.3818   -2.3383 H   0  0  0  0  0  0  0  0  0  0  0  0
    5.5304   -1.2282   -0.6827 H   0  0  0  0  0  0  0  0  0  0  0  0
    6.3275   -2.7394   -0.4928 H   0  0  0  0  0  0  0  0  0  0  0  0
    5.4235   -2.0745   -2.9289 H   0  0  0  0  0  0  0  0  0  0  0  0
    4.5089   -4.5224   -3.1554 H   0  0  0  0  0  0  0  0  0  0  0  0
    6.1421   -4.1254   -2.8194 H   0  0  0  0  0  0  0  0  0  0  0  0
    4.9333   -5.9740   -1.3235 H   0  0  0  0  0  0  0  0  0  0  0  0
    6.0801   -4.9196   -0.5700 H   0  0  0  0  0  0  0  0  0  0  0  0
    3.2280   -4.5150   -0.8122 H   0  0  0  0  0  0  0  0  0  0  0  0
    1.7408   -4.5462    0.5703 H   0  0  0  0  0  0  0  0  0  0  0  0
    0.3547   -5.6376    2.0106 H   0  0  0  0  0  0  0  0  0  0  0  0
    1.3881   -6.9487    2.3048 H   0  0  0  0  0  0  0  0  0  0  0  0
    3.8443   -4.9257    6.2483 H   0  0  0  0  0  0  0  0  0  0  0  0
    2.4633   -5.9910    6.0186 H   0  0  0  0  0  0  0  0  0  0  0  0
    2.2525   -4.2504    6.0681 H   0  0  0  0  0  0  0  0  0  0  0  0
    4.6492   -6.3971    4.8421 H   0  0  0  0  0  0  0  0  0  0  0  0
    4.0678   -8.3860    4.0013 H   0  0  0  0  0  0  0  0  0  0  0  0
    2.4842   -7.7552    3.8340 H   0  0  0  0  0  0  0  0  0  0  0  0
    4.3933   -8.5961    1.8097 H   0  0  0  0  0  0  0  0  0  0  0  0
    2.8594   -7.9499    1.3864 H   0  0  0  0  0  0  0  0  0  0  0  0
    5.2050   -6.7271    0.7742 H   0  0  0  0  0  0  0  0  0  0  0  0
    7.1443   -6.9204    2.2758 H   0  0  0  0  0  0  0  0  0  0  0  0
    6.1289   -8.0699    3.1057 H   0  0  0  0  0  0  0  0  0  0  0  0
    6.9064   -6.7948    4.0104 H   0  0  0  0  0  0  0  0  0  0  0  0
    6.8931   -4.7582    2.9156 H   0  0  0  0  0  0  0  0  0  0  0  0
    5.7898   -4.2124    1.8192 H   0  0  0  0  0  0  0  0  0  0  0  0
    5.5736   -4.1317    4.8836 H   0  0  0  0  0  0  0  0  0  0  0  0
    5.8010   -2.7654    3.8658 H   0  0  0  0  0  0  0  0  0  0  0  0
    3.5628   -3.0340    4.7811 H   0  0  0  0  0  0  0  0  0  0  0  0
    1.5473   -1.3454    2.0031 H   0  0  0  0  0  0  0  0  0  0  0  0
    1.2274   -2.3004    3.4375 H   0  0  0  0  0  0  0  0  0  0  0  0
    1.5143   -3.0368    1.8796 H   0  0  0  0  0  0  0  0  0  0  0  0
    2.8257   -0.8113    4.3018 H   0  0  0  0  0  0  0  0  0  0  0  0
    4.5458   -1.0711    4.1013 H   0  0  0  0  0  0  0  0  0  0  0  0
    2.7367    0.5135    2.3428 H   0  0  0  0  0  0  0  0  0  0  0  0
    4.3824    0.7921    2.8414 H   0  0  0  0  0  0  0  0  0  0  0  0
    3.4454   -0.4944    0.5621 H   0  0  0  0  0  0  0  0  0  0  0  0
    5.2544   -2.1978    1.8438 H   0  0  0  0  0  0  0  0  0  0  0  0
    5.0234   -0.3009    1.0109 H   0  0  0  0  0  0  0  0  0  0  0  0
  1  2  1  0
  1 33  1  0
  1 34  1  0
  1 35  1  0
  2  7  1  0
  2  3  1  0
  2  4  1  0
  3 36  1  0
  3 37  1  0
  3 38  1  0
  5  4  1  6
  5 10  1  0
  5 32  1  0
  5  6  1  0
  6  7  1  0
  6 39  1  0
  6 40  1  0
  7  8  1  0
  7 41  1  6
  8  9  1  0
  8 42  1  0
  8 43  1  0
  9 10  1  0
  9 44  1  0
  9 45  1  0
 10 11  1  0
 10 46  1  6
 11 21  1  0
 11 12  2  3
 12 13  1  0
 12 47  1  0
 13 14  1  0
 13 48  1  0
 13 49  1  0
 14 15  2  0
 14 16  1  0
 16 26  1  0
 16 17  1  1
 16 18  1  0
 17 50  1  0
 17 51  1  0
 17 52  1  0
 18 22  1  0
 18 19  1  0
 18 53  1  1
 19 20  1  0
 19 54  1  0
 19 55  1  0
 20 21  1  0
 20 56  1  0
 20 57  1  0
 21 22  1  0
 21 58  1  6
 22 23  1  1
 22 24  1  0
 23 59  1  0
 23 60  1  0
 23 61  1  0
 24 25  1  0
 24 62  1  0
 24 63  1  0
 25 26  1  0
 25 64  1  0
 25 65  1  0
 26 27  1  0
 26 66  1  1
 27 32  1  0
 27 28  1  6
 27 29  1  0
 28 67  1  0
 28 68  1  0
 28 69  1  0
 29 30  1  0
 29 70  1  0
 29 71  1  0
 30 31  1  0
 30 72  1  0
 30 73  1  0
 31 32  1  0
 31 74  1  0
 31 76  1  0
 32 75  1  1
M  CHG  1  31   1
M  END
>  <i_m_ct_stereo_status>  (142) 
1

>  <s_m_source_file>  (142) 
/var/tmp/pbs.5076255.sched01/tmpkddd28mm/459jwin2qj.sdf

>  <i_m_source_file_index>  (142) 
14

>  <i_lp_mmshare_version>  (142) 
48012

>  <i_f3d_flags>  (142) 
0

>  <s_epik_input>  (142) 
W0NIM11DKE8xKShbQ0gzXSlbQ0BASF0oW0NIMl0yKVtDSDJdW0NIMl1bQ0BIXShbQ0BdMTIzKS9DPTRbQ0BIXTVbQ0BdNihbQ0gzXSlbQ0BIXShbQ0gyXVtDSDJdNSlbQ0BdKFtDSDNdKShDKD1PKVtDSDJdL1tDSF00KVtDSF0oW0NIMl1bQ0gyXTYpW0NAXTcoW0NIM10pW0NAQEhdM1tOSF1bQ0gyXVtDSDJdNw==

>  <s_epik_cmdline>  (142) 
J2VwaWtfcHl0aG9uJywgJy1waHQnLCAnMi4wJywgJy1waCcsICc3LjAnLCAnLXRuJywgJzgnLCAnLW1hJywgJzIwMCcsICctaW1hZScsICc8aW5maWxlLm1hZT4nLCAnLW9tYWUnLCAnPG91dGZpbGUubWFlPic=

>  <r_lp_tautomer_probability>  (142) 
1

>  <r_epik_Ionization_Penalty>  (142) 
0.00018918

>  <r_epik_Ionization_Penalty_Charging>  (142) 
0.00018918

>  <r_epik_Ionization_Penalty_Neutral>  (142) 
1.74709e-12

>  <r_epik_State_Penalty>  (142) 
-0

>  <r_epik_Charging_Adjusted_Penalty>  (142) 
0.00018918

>  <i_epik_Tot_Q>  (142) 
1

>  <i_epik_Tot_abs_Q>  (142) 
1

>  <s_lp_Force_Field>  (142) 
OPLS3e

>  <r_lp_Energy>  (142) 
148.905

>  <b_lp_Chiralities_Consistent>  (142) 
1

>  <s_lp_Variant>  (142) 
44:0-2

>  <s_i_glide_gridfile>  (142) 
pfpi4k_grid

>  <i_i_glide_lignum>  (142) 
14

>  <i_i_glide_rotatable_bonds>  (142) 
0

>  <r_i_docking_score>  (142) 
-1.7229

>  <r_i_glide_ligand_efficiency>  (142) 
-0.0538408

>  <r_i_glide_ligand_efficiency_sa>  (142) 
-0.170934

>  <r_i_glide_ligand_efficiency_ln>  (142) 
-0.385805

>  <r_i_glide_gscore>  (142) 
-1.7229

>  <r_i_glide_lipo>  (142) 
-0.308889

>  <r_i_glide_hbond>  (142) 
0

>  <r_i_glide_metal>  (142) 
-0

>  <r_i_glide_rewards>  (142) 
-0.418192

>  <r_i_glide_evdw>  (142) 
-17.8031

>  <r_i_glide_ecoul>  (142) 
-0.645475

>  <r_i_glide_erotb>  (142) 
0

>  <r_i_glide_esite>  (142) 
-0.00884653

>  <r_i_glide_emodel>  (142) 
-20.8113

>  <r_i_glide_energy>  (142) 
-18.4486

>  <r_i_glide_einternal>  (142) 
0

>  <r_i_glide_intrahb_reward>  (142) 
-0

>  <i_i_glide_confnum>  (142) 
2

>  <i_i_glide_posenum>  (142) 
33

>  <r_i_glide_eff_state_penalty>  (142) 
0

>  <ligand_id>  (142) 
44

>  <original_smiles>  (142) 
CC1(C)OC23CC1CCC2C1=CCC(=O)C2(C)C4CCC1C4(C)CCC2C1(C)CCNC13

>  <smiles>  (142) 
[H]C1=C2C3([H])C([H])([H])C([H])([H])C4([H])C([H])([H])C3(OC4(C([H])([H])[H])C([H])([H])[H])C3([H])C(C([H])([H])[H])(C([H])([H])C([H])([H])[N+]3([H])[H])C3([H])C([H])([H])C([H])([H])C4(C([H])([H])[H])C2([H])C([H])([H])C([H])([H])C4([H])C3(C([H])([H])[H])C(=O)C1([H])[H]

$$$$
45:0:0
     RDKit          3D

 52 55  0  0  1  0  0  0  0  0999 V2000
    3.9820   -3.9747    6.9925 C   0  0  0  0  0  0  0  0  0  0  0  0
    3.9758   -4.6627    5.7514 O   0  0  0  0  0  0  0  0  0  0  0  0
    5.0776   -5.3284    5.3553 C   0  0  0  0  0  0  0  0  0  0  0  0
    6.1359   -5.3856    5.9818 O   0  0  0  0  0  0  0  0  0  0  0  0
    4.9325   -6.0035    3.9744 C   0  0  2  0  0  0  0  0  0  0  0  0
    4.8906   -4.8926    2.8998 C   0  0  0  0  0  0  0  0  0  0  0  0
    4.3432   -5.3730    1.5517 C   0  0  2  0  0  0  0  0  0  0  0  0
    5.2981   -6.3840    0.8805 C   0  0  0  0  0  0  0  0  0  0  0  0
    4.3152   -4.2038    0.7211 O   0  0  0  0  0  0  0  0  0  0  0  0
    3.2803   -4.0385   -0.1821 C   0  0  0  0  0  0  0  0  0  0  0  0
    3.4395   -3.0296   -1.2517 C   0  0  0  0  0  0  0  0  0  0  0  0
    2.6598   -3.0612   -2.4318 C   0  0  0  0  0  0  0  0  0  0  0  0
    2.8423   -2.0863   -3.4289 C   0  0  0  0  0  0  0  0  0  0  0  0
    3.7952   -1.0673   -3.2504 C   0  0  0  0  0  0  0  0  0  0  0  0
    3.9725   -0.1264   -4.2083 F   0  0  0  0  0  0  0  0  0  0  0  0
    4.5690   -1.0336   -2.0719 C   0  0  0  0  0  0  0  0  0  0  0  0
    4.3924   -2.0118   -1.0780 C   0  0  0  0  0  0  0  0  0  0  0  0
    2.2158   -4.7494   -0.1088 N   0  0  0  0  0  0  0  0  0  0  0  0
    2.0209   -5.7480    0.9335 N   0  0  0  0  0  0  0  0  0  0  0  0
    2.9717   -6.0088    1.7398 C   0  0  0  0  0  0  0  0  0  0  0  0
    2.8169   -6.9538    2.8733 C   0  0  0  0  0  0  0  0  0  0  0  0
    3.7316   -6.9750    3.8799 C   0  0  0  0  0  0  0  0  0  0  0  0
    3.5933   -8.0070    4.9433 C   0  0  0  0  0  0  0  0  0  0  0  0
    4.4850   -8.2880    5.7438 O   0  0  0  0  0  0  0  0  0  0  0  0
    2.2745   -8.7803    5.0169 C   0  0  0  0  0  0  0  0  0  0  0  0
    1.7507   -9.1559    3.6191 C   0  0  0  0  0  0  0  0  0  0  0  0
    2.7301  -10.1169    2.8956 C   0  0  0  0  0  0  0  0  0  0  0  0
    0.3780   -9.8382    3.7616 C   0  0  0  0  0  0  0  0  0  0  0  0
    1.5804   -7.8504    2.8191 C   0  0  0  0  0  0  0  0  0  0  0  0
    3.0097   -3.5092    7.1478 H   0  0  0  0  0  0  0  0  0  0  0  0
    4.7400   -3.1892    7.0155 H   0  0  0  0  0  0  0  0  0  0  0  0
    4.1657   -4.6615    7.8200 H   0  0  0  0  0  0  0  0  0  0  0  0
    5.8254   -6.6108    3.8144 H   0  0  0  0  0  0  0  0  0  0  0  0
    4.2620   -4.0620    3.2337 H   0  0  0  0  0  0  0  0  0  0  0  0
    5.8866   -4.4677    2.7690 H   0  0  0  0  0  0  0  0  0  0  0  0
    5.4195   -7.2870    1.4770 H   0  0  0  0  0  0  0  0  0  0  0  0
    6.2877   -5.9580    0.7327 H   0  0  0  0  0  0  0  0  0  0  0  0
    4.9223   -6.6937   -0.0972 H   0  0  0  0  0  0  0  0  0  0  0  0
    1.9211   -3.8337   -2.5907 H   0  0  0  0  0  0  0  0  0  0  0  0
    2.2379   -2.1146   -4.3208 H   0  0  0  0  0  0  0  0  0  0  0  0
    5.2947   -0.2493   -1.9195 H   0  0  0  0  0  0  0  0  0  0  0  0
    4.9763   -1.9636   -0.1733 H   0  0  0  0  0  0  0  0  0  0  0  0
    2.4113   -9.6750    5.6225 H   0  0  0  0  0  0  0  0  0  0  0  0
    1.5400   -8.1568    5.5298 H   0  0  0  0  0  0  0  0  0  0  0  0
    2.3447  -10.4349    1.9266 H   0  0  0  0  0  0  0  0  0  0  0  0
    2.9201  -11.0152    3.4858 H   0  0  0  0  0  0  0  0  0  0  0  0
    3.6999   -9.6575    2.6986 H   0  0  0  0  0  0  0  0  0  0  0  0
   -0.0541  -10.0908    2.7910 H   0  0  0  0  0  0  0  0  0  0  0  0
   -0.3290   -9.1851    4.2730 H   0  0  0  0  0  0  0  0  0  0  0  0
    0.4452  -10.7559    4.3477 H   0  0  0  0  0  0  0  0  0  0  0  0
    0.7201   -7.2813    3.1802 H   0  0  0  0  0  0  0  0  0  0  0  0
    1.3626   -8.1162    1.7852 H   0  0  0  0  0  0  0  0  0  0  0  0
  1  2  1  0
  1 30  1  0
  1 31  1  0
  1 32  1  0
  2  3  1  0
  3  4  2  0
  3  5  1  0
  5 22  1  0
  5  6  1  0
  5 33  1  6
  6  7  1  0
  6 34  1  0
  6 35  1  0
  7 20  1  0
  7  8  1  6
  7  9  1  0
  8 36  1  0
  8 37  1  0
  8 38  1  0
  9 10  1  0
 10 11  1  0
 10 18  2  0
 11 17  1  0
 11 12  2  0
 12 13  1  0
 12 39  1  0
 13 14  2  0
 13 40  1  0
 14 15  1  0
 14 16  1  0
 16 17  2  0
 16 41  1  0
 17 42  1  0
 18 19  1  0
 19 20  2  0
 20 21  1  0
 21 29  1  0
 21 22  2  0
 22 23  1  0
 23 24  2  0
 23 25  1  0
 25 26  1  0
 25 43  1  0
 25 44  1  0
 26 27  1  0
 26 28  1  0
 26 29  1  0
 27 45  1  0
 27 46  1  0
 27 47  1  0
 28 48  1  0
 28 49  1  0
 28 50  1  0
 29 51  1  0
 29 52  1  0
M  END
>  <i_m_ct_stereo_status>  (143) 
1

>  <s_m_source_file>  (143) 
/var/tmp/pbs.5076255.sched01/tmpkddd28mm/459jwin2qj.sdf

>  <i_m_source_file_index>  (143) 
15

>  <i_lp_mmshare_version>  (143) 
48012

>  <i_f3d_flags>  (143) 
0

>  <s_epik_input>  (143) 
W0NIM11PQyg9TylbQ0BIXShbQ0gyXTEpQyhDKD1PKVtDSDJdQyhbQ0gzXSkoW0NIM10pW0NIMl0yKT1DMkMoW0NAXTEzW0NIM10pPU5OPUMoTzMpYzRbY0hdW2NIXWMoRilbY0hdW2NIXTQ=

>  <s_epik_cmdline>  (143) 
J2VwaWtfcHl0aG9uJywgJy1waHQnLCAnMi4wJywgJy1waCcsICc3LjAnLCAnLXRuJywgJzgnLCAnLW1hJywgJzIwMCcsICctaW1hZScsICc8aW5maWxlLm1hZT4nLCAnLW9tYWUnLCAnPG91dGZpbGUubWFlPic=

>  <r_lp_tautomer_probability>  (143) 
1

>  <r_epik_Ionization_Penalty>  (143) 
0

>  <r_epik_Ionization_Penalty_Charging>  (143) 
0

>  <r_epik_Ionization_Penalty_Neutral>  (143) 
0

>  <r_epik_State_Penalty>  (143) 
-0

>  <r_epik_Charging_Adjusted_Penalty>  (143) 
0

>  <i_epik_Tot_Q>  (143) 
0

>  <i_epik_Tot_abs_Q>  (143) 
0

>  <s_epik_Chemistry_Notes>  (143) 
This compound has an ester and may undergo hydrolysis at high or low pH. This compound has an imine and may undergo hydrolysis.

>  <s_lp_Force_Field>  (143) 
OPLS3e

>  <r_lp_Energy>  (143) 
44.9833

>  <b_lp_Chiralities_Consistent>  (143) 
1

>  <s_lp_Variant>  (143) 
45:0-1

>  <s_i_glide_gridfile>  (143) 
pfpi4k_grid

>  <i_i_glide_lignum>  (143) 
15

>  <i_i_glide_rotatable_bonds>  (143) 
3

>  <r_i_docking_score>  (143) 
-3.2433

>  <r_i_glide_ligand_efficiency>  (143) 
-0.111838

>  <r_i_glide_ligand_efficiency_sa>  (143) 
-0.343602

>  <r_i_glide_ligand_efficiency_ln>  (143) 
-0.742634

>  <r_i_glide_gscore>  (143) 
-3.2433

>  <r_i_glide_lipo>  (143) 
-0.424446

>  <r_i_glide_hbond>  (143) 
0

>  <r_i_glide_metal>  (143) 
-0

>  <r_i_glide_rewards>  (143) 
-1.03104

>  <r_i_glide_evdw>  (143) 
-29.7279

>  <r_i_glide_ecoul>  (143) 
-2.72069

>  <r_i_glide_erotb>  (143) 
0.246743

>  <r_i_glide_esite>  (143) 
-0.140064

>  <r_i_glide_emodel>  (143) 
-38.9403

>  <r_i_glide_energy>  (143) 
-32.4486

>  <r_i_glide_einternal>  (143) 
0.249988

>  <r_i_glide_intrahb_reward>  (143) 
-0

>  <i_i_glide_confnum>  (143) 
3

>  <i_i_glide_posenum>  (143) 
20

>  <r_i_glide_eff_state_penalty>  (143) 
0

>  <ligand_id>  (143) 
45

>  <original_smiles>  (143) 
COC(=O)C1CC2(C)OC(c3ccc(F)cc3)=NN=C2C2=C1C(=O)CC(C)(C)C2

>  <smiles>  (143) 
[H]c1c([H])c(C2=NN=C3C4=C(C(=O)C([H])([H])C(C([H])([H])[H])(C([H])([H])[H])C4([H])[H])C([H])(C(=O)OC([H])([H])[H])C([H])([H])C3(C([H])([H])[H])O2)c([H])c([H])c1F

$$$$
45:0:1
     RDKit          3D

 52 55  0  0  1  0  0  0  0  0999 V2000
    5.4602   -4.0061    7.1417 C   0  0  0  0  0  0  0  0  0  0  0  0
    5.3557   -4.6885    5.9030 O   0  0  0  0  0  0  0  0  0  0  0  0
    4.1903   -5.2640    5.5436 C   0  0  0  0  0  0  0  0  0  0  0  0
    3.1464   -5.2266    6.1997 O   0  0  0  0  0  0  0  0  0  0  0  0
    4.2935   -5.9460    4.1586 C   0  0  2  0  0  0  0  0  0  0  0  0
    4.2872   -4.8325    3.0859 C   0  0  0  0  0  0  0  0  0  0  0  0
    3.9981   -5.3428    1.6695 C   0  0  2  0  0  0  0  0  0  0  0  0
    5.1465   -6.2349    1.1417 C   0  0  0  0  0  0  0  0  0  0  0  0
    3.9626   -4.1715    0.8455 O   0  0  0  0  0  0  0  0  0  0  0  0
    3.0578   -4.1012   -0.1973 C   0  0  0  0  0  0  0  0  0  0  0  0
    3.2635   -3.0645   -1.2335 C   0  0  0  0  0  0  0  0  0  0  0  0
    2.5448   -3.0701   -2.4529 C   0  0  0  0  0  0  0  0  0  0  0  0
    2.7593   -2.0659   -3.4095 C   0  0  0  0  0  0  0  0  0  0  0  0
    3.6917   -1.0430   -3.1598 C   0  0  0  0  0  0  0  0  0  0  0  0
    3.8945   -0.0699   -4.0781 F   0  0  0  0  0  0  0  0  0  0  0  0
    4.4147   -1.0399   -1.9491 C   0  0  0  0  0  0  0  0  0  0  0  0
    4.2034   -2.0441   -0.9924 C   0  0  0  0  0  0  0  0  0  0  0  0
    2.0692   -4.9182   -0.2789 N   0  0  0  0  0  0  0  0  0  0  0  0
    1.8261   -5.9326    0.7399 N   0  0  0  0  0  0  0  0  0  0  0  0
    2.6864   -6.1197    1.6611 C   0  0  0  0  0  0  0  0  0  0  0  0
    2.4772   -7.1000    2.7551 C   0  0  0  0  0  0  0  0  0  0  0  0
    3.2281   -7.0357    3.8876 C   0  0  0  0  0  0  0  0  0  0  0  0
    3.0572   -8.1022    4.9120 C   0  0  0  0  0  0  0  0  0  0  0  0
    3.8581   -8.3039    5.8239 O   0  0  0  0  0  0  0  0  0  0  0  0
    1.8346   -9.0144    4.7922 C   0  0  0  0  0  0  0  0  0  0  0  0
    1.5648   -9.4198    3.3314 C   0  0  0  0  0  0  0  0  0  0  0  0
    2.7430  -10.2558    2.7621 C   0  0  0  0  0  0  0  0  0  0  0  0
    0.2691  -10.2495    3.2722 C   0  0  0  0  0  0  0  0  0  0  0  0
    1.3687   -8.1276    2.5154 C   0  0  0  0  0  0  0  0  0  0  0  0
    6.4663   -3.6007    7.2526 H   0  0  0  0  0  0  0  0  0  0  0  0
    5.2739   -4.6805    7.9784 H   0  0  0  0  0  0  0  0  0  0  0  0
    4.7546   -3.1764    7.1944 H   0  0  0  0  0  0  0  0  0  0  0  0
    5.2576   -6.4558    4.1240 H   0  0  0  0  0  0  0  0  0  0  0  0
    3.5284   -4.0838    3.3337 H   0  0  0  0  0  0  0  0  0  0  0  0
    5.2381   -4.2965    3.0993 H   0  0  0  0  0  0  0  0  0  0  0  0
    5.2809   -7.1285    1.7509 H   0  0  0  0  0  0  0  0  0  0  0  0
    6.0945   -5.6996    1.1423 H   0  0  0  0  0  0  0  0  0  0  0  0
    4.9585   -6.5682    0.1201 H   0  0  0  0  0  0  0  0  0  0  0  0
    1.8206   -3.8424   -2.6650 H   0  0  0  0  0  0  0  0  0  0  0  0
    2.1899   -2.0674   -4.3242 H   0  0  0  0  0  0  0  0  0  0  0  0
    5.1215   -0.2548   -1.7417 H   0  0  0  0  0  0  0  0  0  0  0  0
    4.7487   -2.0158   -0.0618 H   0  0  0  0  0  0  0  0  0  0  0  0
    1.9774   -9.8992    5.4120 H   0  0  0  0  0  0  0  0  0  0  0  0
    0.9699   -8.4820    5.1914 H   0  0  0  0  0  0  0  0  0  0  0  0
    2.5543  -10.5982    1.7446 H   0  0  0  0  0  0  0  0  0  0  0  0
    2.9406  -11.1376    3.3737 H   0  0  0  0  0  0  0  0  0  0  0  0
    3.6732   -9.6876    2.7130 H   0  0  0  0  0  0  0  0  0  0  0  0
    0.0144  -10.5304    2.2486 H   0  0  0  0  0  0  0  0  0  0  0  0
   -0.5732   -9.6846    3.6752 H   0  0  0  0  0  0  0  0  0  0  0  0
    0.3516  -11.1633    3.8625 H   0  0  0  0  0  0  0  0  0  0  0  0
    0.4089   -7.6626    2.7458 H   0  0  0  0  0  0  0  0  0  0  0  0
    1.3360   -8.3967    1.4584 H   0  0  0  0  0  0  0  0  0  0  0  0
  1  2  1  0
  1 30  1  0
  1 31  1  0
  1 32  1  0
  2  3  1  0
  3  4  2  0
  3  5  1  0
  5 22  1  0
  5  6  1  0
  5 33  1  1
  6  7  1  0
  6 34  1  0
  6 35  1  0
  7 20  1  0
  7  8  1  6
  7  9  1  0
  8 36  1  0
  8 37  1  0
  8 38  1  0
  9 10  1  0
 10 11  1  0
 10 18  2  0
 11 17  1  0
 11 12  2  0
 12 13  1  0
 12 39  1  0
 13 14  2  0
 13 40  1  0
 14 15  1  0
 14 16  1  0
 16 17  2  0
 16 41  1  0
 17 42  1  0
 18 19  1  0
 19 20  2  0
 20 21  1  0
 21 29  1  0
 21 22  2  0
 22 23  1  0
 23 24  2  0
 23 25  1  0
 25 26  1  0
 25 43  1  0
 25 44  1  0
 26 27  1  0
 26 28  1  0
 26 29  1  0
 27 45  1  0
 27 46  1  0
 27 47  1  0
 28 48  1  0
 28 49  1  0
 28 50  1  0
 29 51  1  0
 29 52  1  0
M  END
>  <i_m_ct_stereo_status>  (144) 
1

>  <s_m_source_file>  (144) 
/var/tmp/pbs.5076255.sched01/tmpkddd28mm/459jwin2qj.sdf

>  <i_m_source_file_index>  (144) 
15

>  <i_lp_mmshare_version>  (144) 
48012

>  <i_f3d_flags>  (144) 
0

>  <s_epik_input>  (144) 
W0NIM11PQyg9TylbQ0BIXShbQ0gyXTEpQyhDKD1PKVtDSDJdQyhbQ0gzXSkoW0NIM10pW0NIMl0yKT1DMkMoW0NAXTEzW0NIM10pPU5OPUMoTzMpYzRbY0hdW2NIXWMoRilbY0hdW2NIXTQ=

>  <s_epik_cmdline>  (144) 
J2VwaWtfcHl0aG9uJywgJy1waHQnLCAnMi4wJywgJy1waCcsICc3LjAnLCAnLXRuJywgJzgnLCAnLW1hJywgJzIwMCcsICctaW1hZScsICc8aW5maWxlLm1hZT4nLCAnLW9tYWUnLCAnPG91dGZpbGUubWFlPic=

>  <r_lp_tautomer_probability>  (144) 
1

>  <r_epik_Ionization_Penalty>  (144) 
0

>  <r_epik_Ionization_Penalty_Charging>  (144) 
0

>  <r_epik_Ionization_Penalty_Neutral>  (144) 
0

>  <r_epik_State_Penalty>  (144) 
-0

>  <r_epik_Charging_Adjusted_Penalty>  (144) 
0

>  <i_epik_Tot_Q>  (144) 
0

>  <i_epik_Tot_abs_Q>  (144) 
0

>  <s_epik_Chemistry_Notes>  (144) 
This compound has an ester and may undergo hydrolysis at high or low pH. This compound has an imine and may undergo hydrolysis.

>  <s_lp_Force_Field>  (144) 
OPLS3e

>  <r_lp_Energy>  (144) 
44.9833

>  <b_lp_Chiralities_Consistent>  (144) 
1

>  <s_lp_Variant>  (144) 
45:0-1

>  <s_i_glide_gridfile>  (144) 
pfpi4k_grid

>  <i_i_glide_lignum>  (144) 
15

>  <i_i_glide_rotatable_bonds>  (144) 
3

>  <r_i_docking_score>  (144) 
-3.21651

>  <r_i_glide_ligand_efficiency>  (144) 
-0.110914

>  <r_i_glide_ligand_efficiency_sa>  (144) 
-0.340764

>  <r_i_glide_ligand_efficiency_ln>  (144) 
-0.7365

>  <r_i_glide_gscore>  (144) 
-3.21651

>  <r_i_glide_lipo>  (144) 
-0.375662

>  <r_i_glide_hbond>  (144) 
0

>  <r_i_glide_metal>  (144) 
-0

>  <r_i_glide_rewards>  (144) 
-0.959327

>  <r_i_glide_evdw>  (144) 
-29.2315

>  <r_i_glide_ecoul>  (144) 
-3.24593

>  <r_i_glide_erotb>  (144) 
0.246743

>  <r_i_glide_esite>  (144) 
-0.1798

>  <r_i_glide_emodel>  (144) 
-38.8468

>  <r_i_glide_energy>  (144) 
-32.4775

>  <r_i_glide_einternal>  (144) 
0.386357

>  <r_i_glide_intrahb_reward>  (144) 
-0

>  <i_i_glide_confnum>  (144) 
4

>  <i_i_glide_posenum>  (144) 
36

>  <r_i_glide_eff_state_penalty>  (144) 
0

>  <ligand_id>  (144) 
45

>  <original_smiles>  (144) 
COC(=O)C1CC2(C)OC(c3ccc(F)cc3)=NN=C2C2=C1C(=O)CC(C)(C)C2

>  <smiles>  (144) 
[H]c1c([H])c(C2=NN=C3C4=C(C(=O)C([H])([H])C(C([H])([H])[H])(C([H])([H])[H])C4([H])[H])C([H])(C(=O)OC([H])([H])[H])C([H])([H])C3(C([H])([H])[H])O2)c([H])c([H])c1F

$$$$
45:0:2
     RDKit          3D

 52 55  0  0  1  0  0  0  0  0999 V2000
    2.6515   -4.0573    6.9942 C   0  0  0  0  0  0  0  0  0  0  0  0
    2.9101   -4.7318    5.7729 O   0  0  0  0  0  0  0  0  0  0  0  0
    4.1253   -5.2709    5.5557 C   0  0  0  0  0  0  0  0  0  0  0  0
    5.0725   -5.2256    6.3417 O   0  0  0  0  0  0  0  0  0  0  0  0
    4.2720   -5.9353    4.1700 C   0  0  2  0  0  0  0  0  0  0  0  0
    4.2657   -4.8217    3.0978 C   0  0  0  0  0  0  0  0  0  0  0  0
    3.9897   -5.3378    1.6826 C   0  0  2  0  0  0  0  0  0  0  0  0
    5.1461   -6.2242    1.1643 C   0  0  0  0  0  0  0  0  0  0  0  0
    3.9515   -4.1677    0.8575 O   0  0  0  0  0  0  0  0  0  0  0  0
    3.0506   -4.1048   -0.1893 C   0  0  0  0  0  0  0  0  0  0  0  0
    3.2540   -3.0693   -1.2274 C   0  0  0  0  0  0  0  0  0  0  0  0
    4.1879   -2.0429   -0.9899 C   0  0  0  0  0  0  0  0  0  0  0  0
    4.3961   -1.0424   -1.9521 C   0  0  0  0  0  0  0  0  0  0  0  0
    3.6748   -1.0556   -3.1640 C   0  0  0  0  0  0  0  0  0  0  0  0
    3.8736   -0.0871   -4.0876 F   0  0  0  0  0  0  0  0  0  0  0  0
    2.7474   -2.0840   -3.4093 C   0  0  0  0  0  0  0  0  0  0  0  0
    2.5366   -3.0836   -2.4476 C   0  0  0  0  0  0  0  0  0  0  0  0
    2.0671   -4.9278   -0.2732 N   0  0  0  0  0  0  0  0  0  0  0  0
    1.8256   -5.9422    0.7448 N   0  0  0  0  0  0  0  0  0  0  0  0
    2.6829   -6.1233    1.6694 C   0  0  0  0  0  0  0  0  0  0  0  0
    2.4741   -7.1055    2.7613 C   0  0  0  0  0  0  0  0  0  0  0  0
    3.2203   -7.0367    3.8957 C   0  0  0  0  0  0  0  0  0  0  0  0
    3.0430   -8.0956    4.9270 C   0  0  0  0  0  0  0  0  0  0  0  0
    3.8307   -8.2843    5.8525 O   0  0  0  0  0  0  0  0  0  0  0  0
    1.8278   -9.0167    4.7995 C   0  0  0  0  0  0  0  0  0  0  0  0
    1.5706   -9.4260    3.3377 C   0  0  0  0  0  0  0  0  0  0  0  0
    2.7566  -10.2563    2.7765 C   0  0  0  0  0  0  0  0  0  0  0  0
    0.2800  -10.2618    3.2718 C   0  0  0  0  0  0  0  0  0  0  0  0
    1.3715   -8.1374    2.5185 C   0  0  0  0  0  0  0  0  0  0  0  0
    1.6216   -3.7019    6.9956 H   0  0  0  0  0  0  0  0  0  0  0  0
    3.3065   -3.1936    7.1244 H   0  0  0  0  0  0  0  0  0  0  0  0
    2.7815   -4.7254    7.8468 H   0  0  0  0  0  0  0  0  0  0  0  0
    5.2428   -6.4340    4.1498 H   0  0  0  0  0  0  0  0  0  0  0  0
    3.5020   -4.0740    3.3302 H   0  0  0  0  0  0  0  0  0  0  0  0
    5.2137   -4.2815    3.1221 H   0  0  0  0  0  0  0  0  0  0  0  0
    5.2814   -7.1160    1.7758 H   0  0  0  0  0  0  0  0  0  0  0  0
    6.0904   -5.6831    1.1700 H   0  0  0  0  0  0  0  0  0  0  0  0
    4.9654   -6.5601    0.1423 H   0  0  0  0  0  0  0  0  0  0  0  0
    4.7311   -2.0071   -0.0586 H   0  0  0  0  0  0  0  0  0  0  0  0
    5.0985   -0.2526   -1.7488 H   0  0  0  0  0  0  0  0  0  0  0  0
    2.1783   -2.0955   -4.3245 H   0  0  0  0  0  0  0  0  0  0  0  0
    1.8163   -3.8581   -2.6581 H   0  0  0  0  0  0  0  0  0  0  0  0
    1.9738   -9.8999    5.4207 H   0  0  0  0  0  0  0  0  0  0  0  0
    0.9560   -8.4912    5.1924 H   0  0  0  0  0  0  0  0  0  0  0  0
    2.5760  -10.6033    1.7588 H   0  0  0  0  0  0  0  0  0  0  0  0
    2.9557  -11.1364    3.3904 H   0  0  0  0  0  0  0  0  0  0  0  0
    3.6841   -9.6835    2.7320 H   0  0  0  0  0  0  0  0  0  0  0  0
    0.0334  -10.5473    2.2473 H   0  0  0  0  0  0  0  0  0  0  0  0
   -0.5692   -9.7033    3.6691 H   0  0  0  0  0  0  0  0  0  0  0  0
    0.3648  -11.1749    3.8625 H   0  0  0  0  0  0  0  0  0  0  0  0
    0.4075   -7.6779    2.7423 H   0  0  0  0  0  0  0  0  0  0  0  0
    1.3473   -8.4088    1.4622 H   0  0  0  0  0  0  0  0  0  0  0  0
  1  2  1  0
  1 30  1  0
  1 31  1  0
  1 32  1  0
  2  3  1  0
  3  4  2  0
  3  5  1  0
  5 22  1  0
  5  6  1  0
  5 33  1  1
  6  7  1  0
  6 34  1  0
  6 35  1  0
  7 20  1  0
  7  8  1  6
  7  9  1  0
  8 36  1  0
  8 37  1  0
  8 38  1  0
  9 10  1  0
 10 11  1  0
 10 18  2  0
 11 17  1  0
 11 12  2  0
 12 13  1  0
 12 39  1  0
 13 14  2  0
 13 40  1  0
 14 15  1  0
 14 16  1  0
 16 17  2  0
 16 41  1  0
 17 42  1  0
 18 19  1  0
 19 20  2  0
 20 21  1  0
 21 29  1  0
 21 22  2  0
 22 23  1  0
 23 24  2  0
 23 25  1  0
 25 26  1  0
 25 43  1  0
 25 44  1  0
 26 27  1  0
 26 28  1  0
 26 29  1  0
 27 45  1  0
 27 46  1  0
 27 47  1  0
 28 48  1  0
 28 49  1  0
 28 50  1  0
 29 51  1  0
 29 52  1  0
M  END
>  <i_m_ct_stereo_status>  (145) 
1

>  <s_m_source_file>  (145) 
/var/tmp/pbs.5076255.sched01/tmpkddd28mm/459jwin2qj.sdf

>  <i_m_source_file_index>  (145) 
15

>  <i_lp_mmshare_version>  (145) 
48012

>  <i_f3d_flags>  (145) 
0

>  <s_epik_input>  (145) 
W0NIM11PQyg9TylbQ0BIXShbQ0gyXTEpQyhDKD1PKVtDSDJdQyhbQ0gzXSkoW0NIM10pW0NIMl0yKT1DMkMoW0NAXTEzW0NIM10pPU5OPUMoTzMpYzRbY0hdW2NIXWMoRilbY0hdW2NIXTQ=

>  <s_epik_cmdline>  (145) 
J2VwaWtfcHl0aG9uJywgJy1waHQnLCAnMi4wJywgJy1waCcsICc3LjAnLCAnLXRuJywgJzgnLCAnLW1hJywgJzIwMCcsICctaW1hZScsICc8aW5maWxlLm1hZT4nLCAnLW9tYWUnLCAnPG91dGZpbGUubWFlPic=

>  <r_lp_tautomer_probability>  (145) 
1

>  <r_epik_Ionization_Penalty>  (145) 
0

>  <r_epik_Ionization_Penalty_Charging>  (145) 
0

>  <r_epik_Ionization_Penalty_Neutral>  (145) 
0

>  <r_epik_State_Penalty>  (145) 
-0

>  <r_epik_Charging_Adjusted_Penalty>  (145) 
0

>  <i_epik_Tot_Q>  (145) 
0

>  <i_epik_Tot_abs_Q>  (145) 
0

>  <s_epik_Chemistry_Notes>  (145) 
This compound has an ester and may undergo hydrolysis at high or low pH. This compound has an imine and may undergo hydrolysis.

>  <s_lp_Force_Field>  (145) 
OPLS3e

>  <r_lp_Energy>  (145) 
44.9833

>  <b_lp_Chiralities_Consistent>  (145) 
1

>  <s_lp_Variant>  (145) 
45:0-1

>  <s_i_glide_gridfile>  (145) 
pfpi4k_grid

>  <i_i_glide_lignum>  (145) 
15

>  <i_i_glide_rotatable_bonds>  (145) 
3

>  <r_i_docking_score>  (145) 
-3.21289

>  <r_i_glide_ligand_efficiency>  (145) 
-0.110789

>  <r_i_glide_ligand_efficiency_sa>  (145) 
-0.34038

>  <r_i_glide_ligand_efficiency_ln>  (145) 
-0.73567

>  <r_i_glide_gscore>  (145) 
-3.21289

>  <r_i_glide_lipo>  (145) 
-0.380294

>  <r_i_glide_hbond>  (145) 
0

>  <r_i_glide_metal>  (145) 
-0

>  <r_i_glide_rewards>  (145) 
-0.968572

>  <r_i_glide_evdw>  (145) 
-29.0051

>  <r_i_glide_ecoul>  (145) 
-3.2038

>  <r_i_glide_erotb>  (145) 
0.246743

>  <r_i_glide_esite>  (145) 
-0.179943

>  <r_i_glide_emodel>  (145) 
-38.7455

>  <r_i_glide_energy>  (145) 
-32.2089

>  <r_i_glide_einternal>  (145) 
0.0581058

>  <r_i_glide_intrahb_reward>  (145) 
-0

>  <i_i_glide_confnum>  (145) 
1

>  <i_i_glide_posenum>  (145) 
32

>  <r_i_glide_eff_state_penalty>  (145) 
0

>  <ligand_id>  (145) 
45

>  <original_smiles>  (145) 
COC(=O)C1CC2(C)OC(c3ccc(F)cc3)=NN=C2C2=C1C(=O)CC(C)(C)C2

>  <smiles>  (145) 
[H]c1c([H])c(C2=NN=C3C4=C(C(=O)C([H])([H])C(C([H])([H])[H])(C([H])([H])[H])C4([H])[H])C([H])(C(=O)OC([H])([H])[H])C([H])([H])C3(C([H])([H])[H])O2)c([H])c([H])c1F

$$$$
47:0:0
     RDKit          3D

 18 20  0  0  1  0  0  0  0  0999 V2000
   -6.6915   -4.2953   -4.8160 O   0  0  0  0  0  0  0  0  0  0  0  0
   -6.6039   -5.4349   -5.2696 C   0  0  0  0  0  0  0  0  0  0  0  0
   -7.3795   -6.0231   -6.2672 N   0  0  0  0  0  0  0  0  0  0  0  0
   -7.0408   -7.3530   -6.5964 C   0  0  0  0  0  0  0  0  0  0  0  0
   -7.6826   -8.1617   -7.5829 C   0  0  0  0  0  0  0  0  0  0  0  0
   -7.2512   -9.4619   -7.7953 C   0  0  0  0  0  0  0  0  0  0  0  0
   -6.2143   -9.9514   -7.0570 N   0  0  0  0  0  0  0  0  0  0  0  0
   -5.6373  -11.2195   -7.1244 N   0  0  0  0  0  0  0  0  0  0  0  0
   -4.6715  -11.2127   -6.2031 C   0  0  0  0  0  0  0  0  0  0  0  0
   -4.6235   -9.9474   -5.5614 C   0  0  0  0  0  0  0  0  0  0  0  0
   -5.6209   -9.1754   -6.1354 C   0  0  0  0  0  0  0  0  0  0  0  0
   -5.9999   -7.8435   -5.8621 C   0  0  0  0  0  0  0  0  0  0  0  0
   -5.3911   -6.6681   -4.7236 S   0  0  0  0  0  0  0  0  0  0  0  0
   -8.5067   -7.7509   -8.1557 H   0  0  0  0  0  0  0  0  0  0  0  0
   -7.6935  -10.1304   -8.5226 H   0  0  0  0  0  0  0  0  0  0  0  0
   -4.0671  -12.1072   -6.0404 H   0  0  0  0  0  0  0  0  0  0  0  0
   -3.9836   -9.5827   -4.7665 H   0  0  0  0  0  0  0  0  0  0  0  0
   -8.1180   -5.4990   -6.7151 H   0  0  0  0  0  0  0  0  0  0  0  0
  1  2  2  0
  2 13  1  0
  2  3  1  0
  3  4  1  0
  3 18  1  0
  4 12  2  0
  4  5  1  0
  5  6  2  0
  5 14  1  0
  6  7  1  0
  6 15  1  0
  7 11  1  0
  7  8  1  0
  8  9  2  0
  9 10  1  0
  9 16  1  0
 10 11  2  0
 10 17  1  0
 11 12  1  0
 12 13  1  0
M  END
>  <i_m_ct_stereo_status>  (146) 
1

>  <s_m_source_file>  (146) 
/var/tmp/pbs.5076255.sched01/tmpkddd28mm/459jwin2qj.sdf

>  <i_m_source_file_index>  (146) 
18

>  <i_lp_mmshare_version>  (146) 
48012

>  <i_f3d_flags>  (146) 
0

>  <s_epik_input>  (146) 
W09IXWMobjEpc2MoYzEyKWMzbihbY0hdW2NIXTIpbltjSF1bY0hdMw==

>  <s_epik_cmdline>  (146) 
J2VwaWtfcHl0aG9uJywgJy1waHQnLCAnMi4wJywgJy1waCcsICc3LjAnLCAnLXRuJywgJzgnLCAnLW1hJywgJzIwMCcsICctaW1hZScsICc8aW5maWxlLm1hZT4nLCAnLW9tYWUnLCAnPG91dGZpbGUubWFlPic=

>  <r_epik_Ionization_Penalty>  (146) 
0.00209223

>  <r_epik_Ionization_Penalty_Charging>  (146) 
0.00209143

>  <r_epik_Ionization_Penalty_Neutral>  (146) 
8.04575e-07

>  <r_epik_State_Penalty>  (146) 
0.00143282

>  <r_epik_Charging_Adjusted_Penalty>  (146) 
0.00352425

>  <i_epik_Tot_Q>  (146) 
0

>  <i_epik_Tot_abs_Q>  (146) 
0

>  <s_lp_Force_Field>  (146) 
OPLS3e

>  <r_lp_Energy>  (146) 
7.68613

>  <b_lp_Chiralities_Consistent>  (146) 
1

>  <s_lp_Variant>  (146) 
47:0-1

>  <s_i_glide_gridfile>  (146) 
pfpi4k_grid

>  <i_i_glide_lignum>  (146) 
18

>  <i_i_glide_rotatable_bonds>  (146) 
0

>  <r_i_docking_score>  (146) 
-5.39473

>  <r_i_glide_ligand_efficiency>  (146) 
-0.414979

>  <r_i_glide_ligand_efficiency_sa>  (146) 
-0.975755

>  <r_i_glide_ligand_efficiency_ln>  (146) 
-1.51327

>  <r_i_glide_gscore>  (146) 
-5.39473

>  <r_i_glide_lipo>  (146) 
-1.63461

>  <r_i_glide_hbond>  (146) 
0

>  <r_i_glide_metal>  (146) 
-0

>  <r_i_glide_rewards>  (146) 
-2.30991

>  <r_i_glide_evdw>  (146) 
-26.0622

>  <r_i_glide_ecoul>  (146) 
-0.980694

>  <r_i_glide_erotb>  (146) 
0

>  <r_i_glide_esite>  (146) 
0

>  <r_i_glide_emodel>  (146) 
-36.4909

>  <r_i_glide_energy>  (146) 
-27.0429

>  <r_i_glide_einternal>  (146) 
0

>  <r_i_glide_intrahb_reward>  (146) 
-0

>  <i_i_glide_confnum>  (146) 
1

>  <i_i_glide_posenum>  (146) 
20

>  <r_i_glide_eff_state_penalty>  (146) 
0

>  <ligand_id>  (146) 
47

>  <original_smiles>  (146) 
Oc1nc2ccn3nccc3c2s1

>  <smiles>  (146) 
[H]c1nn2c([H])c([H])c3c(sc(=O)n3[H])c2c1[H]

$$$$
47:0:1
     RDKit          3D

 18 20  0  0  1  0  0  0  0  0999 V2000
   -6.5871   -4.3208   -3.6973 O   0  0  0  0  0  0  0  0  0  0  0  0
   -7.1061   -4.8077   -4.6946 C   0  0  0  0  0  0  0  0  0  0  0  0
   -8.2387   -4.3499   -5.3358 N   0  0  0  0  0  0  0  0  0  0  0  0
   -8.6413   -5.1161   -6.4434 C   0  0  0  0  0  0  0  0  0  0  0  0
   -9.7981   -4.8605   -7.2520 C   0  0  0  0  0  0  0  0  0  0  0  0
  -10.0919   -5.7021   -8.3063 C   0  0  0  0  0  0  0  0  0  0  0  0
   -9.2690   -6.7654   -8.5639 N   0  0  0  0  0  0  0  0  0  0  0  0
   -9.3881   -7.7081   -9.5772 N   0  0  0  0  0  0  0  0  0  0  0  0
   -8.3622   -8.5365   -9.4046 C   0  0  0  0  0  0  0  0  0  0  0  0
   -7.5836   -8.1259   -8.2863 C   0  0  0  0  0  0  0  0  0  0  0  0
   -8.1931   -6.9903   -7.7863 C   0  0  0  0  0  0  0  0  0  0  0  0
   -7.8398   -6.1749   -6.6903 C   0  0  0  0  0  0  0  0  0  0  0  0
   -6.5287   -6.3045   -5.5408 S   0  0  0  0  0  0  0  0  0  0  0  0
  -10.4422   -4.0172   -7.0090 H   0  0  0  0  0  0  0  0  0  0  0  0
  -10.9576   -5.5950   -8.9501 H   0  0  0  0  0  0  0  0  0  0  0  0
   -8.2242   -9.3835  -10.0794 H   0  0  0  0  0  0  0  0  0  0  0  0
   -6.6874   -8.5410   -7.8456 H   0  0  0  0  0  0  0  0  0  0  0  0
   -8.7278   -3.5381   -4.9857 H   0  0  0  0  0  0  0  0  0  0  0  0
  1  2  2  0
  2 13  1  0
  2  3  1  0
  3  4  1  0
  3 18  1  0
  4 12  2  0
  4  5  1  0
  5  6  2  0
  5 14  1  0
  6  7  1  0
  6 15  1  0
  7 11  1  0
  7  8  1  0
  8  9  2  0
  9 10  1  0
  9 16  1  0
 10 11  2  0
 10 17  1  0
 11 12  1  0
 12 13  1  0
M  END
>  <i_m_ct_stereo_status>  (147) 
1

>  <s_m_source_file>  (147) 
/var/tmp/pbs.5076255.sched01/tmpkddd28mm/459jwin2qj.sdf

>  <i_m_source_file_index>  (147) 
18

>  <i_lp_mmshare_version>  (147) 
48012

>  <i_f3d_flags>  (147) 
0

>  <s_epik_input>  (147) 
W09IXWMobjEpc2MoYzEyKWMzbihbY0hdW2NIXTIpbltjSF1bY0hdMw==

>  <s_epik_cmdline>  (147) 
J2VwaWtfcHl0aG9uJywgJy1waHQnLCAnMi4wJywgJy1waCcsICc3LjAnLCAnLXRuJywgJzgnLCAnLW1hJywgJzIwMCcsICctaW1hZScsICc8aW5maWxlLm1hZT4nLCAnLW9tYWUnLCAnPG91dGZpbGUubWFlPic=

>  <r_epik_Ionization_Penalty>  (147) 
0.00209223

>  <r_epik_Ionization_Penalty_Charging>  (147) 
0.00209143

>  <r_epik_Ionization_Penalty_Neutral>  (147) 
8.04575e-07

>  <r_epik_State_Penalty>  (147) 
0.00143282

>  <r_epik_Charging_Adjusted_Penalty>  (147) 
0.00352425

>  <i_epik_Tot_Q>  (147) 
0

>  <i_epik_Tot_abs_Q>  (147) 
0

>  <s_lp_Force_Field>  (147) 
OPLS3e

>  <r_lp_Energy>  (147) 
7.68613

>  <b_lp_Chiralities_Consistent>  (147) 
1

>  <s_lp_Variant>  (147) 
47:0-1

>  <s_i_glide_gridfile>  (147) 
pfpi4k_grid

>  <i_i_glide_lignum>  (147) 
18

>  <i_i_glide_rotatable_bonds>  (147) 
0

>  <r_i_docking_score>  (147) 
-4.87299

>  <r_i_glide_ligand_efficiency>  (147) 
-0.374846

>  <r_i_glide_ligand_efficiency_sa>  (147) 
-0.881388

>  <r_i_glide_ligand_efficiency_ln>  (147) 
-1.36692

>  <r_i_glide_gscore>  (147) 
-4.87299

>  <r_i_glide_lipo>  (147) 
-1.72134

>  <r_i_glide_hbond>  (147) 
0

>  <r_i_glide_metal>  (147) 
-0

>  <r_i_glide_rewards>  (147) 
-2.20851

>  <r_i_glide_evdw>  (147) 
-24.4098

>  <r_i_glide_ecoul>  (147) 
1.84893

>  <r_i_glide_erotb>  (147) 
0

>  <r_i_glide_esite>  (147) 
0

>  <r_i_glide_emodel>  (147) 
-31.0888

>  <r_i_glide_energy>  (147) 
-22.5609

>  <r_i_glide_einternal>  (147) 
0

>  <r_i_glide_intrahb_reward>  (147) 
-0

>  <i_i_glide_confnum>  (147) 
2

>  <i_i_glide_posenum>  (147) 
10

>  <r_i_glide_eff_state_penalty>  (147) 
0

>  <ligand_id>  (147) 
47

>  <original_smiles>  (147) 
Oc1nc2ccn3nccc3c2s1

>  <smiles>  (147) 
[H]c1nn2c([H])c([H])c3c(sc(=O)n3[H])c2c1[H]

$$$$
47:0:2
     RDKit          3D

 18 20  0  0  1  0  0  0  0  0999 V2000
   -1.8170    4.4807    4.0564 O   0  0  0  0  0  0  0  0  0  0  0  0
   -1.3189    3.3613    3.9055 C   0  0  0  0  0  0  0  0  0  0  0  0
   -0.4854    2.9267    2.8908 N   0  0  0  0  0  0  0  0  0  0  0  0
   -0.0197    1.6143    2.9964 C   0  0  0  0  0  0  0  0  0  0  0  0
    0.8628    0.9715    2.0941 C   0  0  0  0  0  0  0  0  0  0  0  0
    1.2432   -0.3485    2.2950 C   0  0  0  0  0  0  0  0  0  0  0  0
    0.7509   -1.0107    3.3846 N   0  0  0  0  0  0  0  0  0  0  0  0
    1.0028   -2.3340    3.7567 N   0  0  0  0  0  0  0  0  0  0  0  0
    0.3022   -2.5153    4.8753 C   0  0  0  0  0  0  0  0  0  0  0  0
   -0.3983   -1.3232    5.2075 C   0  0  0  0  0  0  0  0  0  0  0  0
   -0.0821   -0.3862    4.2305 C   0  0  0  0  0  0  0  0  0  0  0  0
   -0.5110    0.9568    4.0858 C   0  0  0  0  0  0  0  0  0  0  0  0
   -1.5672    1.9569    5.0570 S   0  0  0  0  0  0  0  0  0  0  0  0
    1.2259    1.5163    1.2320 H   0  0  0  0  0  0  0  0  0  0  0  0
    1.8860   -0.8959    1.6140 H   0  0  0  0  0  0  0  0  0  0  0  0
    0.3388   -3.4767    5.3812 H   0  0  0  0  0  0  0  0  0  0  0  0
   -1.0463   -1.0715    6.0226 H   0  0  0  0  0  0  0  0  0  0  0  0
   -0.1963    3.5662    2.1318 H   0  0  0  0  0  0  0  0  0  0  0  0
  1  2  2  0
  2 13  1  0
  2  3  1  0
  3  4  1  0
  3 18  1  0
  4 12  2  0
  4  5  1  0
  5  6  2  0
  5 14  1  0
  6  7  1  0
  6 15  1  0
  7 11  1  0
  7  8  1  0
  8  9  2  0
  9 10  1  0
  9 16  1  0
 10 11  2  0
 10 17  1  0
 11 12  1  0
 12 13  1  0
M  END
>  <i_m_ct_stereo_status>  (148) 
1

>  <s_m_source_file>  (148) 
/var/tmp/pbs.5076255.sched01/tmpkddd28mm/459jwin2qj.sdf

>  <i_m_source_file_index>  (148) 
18

>  <i_lp_mmshare_version>  (148) 
48012

>  <i_f3d_flags>  (148) 
0

>  <s_epik_input>  (148) 
W09IXWMobjEpc2MoYzEyKWMzbihbY0hdW2NIXTIpbltjSF1bY0hdMw==

>  <s_epik_cmdline>  (148) 
J2VwaWtfcHl0aG9uJywgJy1waHQnLCAnMi4wJywgJy1waCcsICc3LjAnLCAnLXRuJywgJzgnLCAnLW1hJywgJzIwMCcsICctaW1hZScsICc8aW5maWxlLm1hZT4nLCAnLW9tYWUnLCAnPG91dGZpbGUubWFlPic=

>  <r_epik_Ionization_Penalty>  (148) 
0.00209223

>  <r_epik_Ionization_Penalty_Charging>  (148) 
0.00209143

>  <r_epik_Ionization_Penalty_Neutral>  (148) 
8.04575e-07

>  <r_epik_State_Penalty>  (148) 
0.00143282

>  <r_epik_Charging_Adjusted_Penalty>  (148) 
0.00352425

>  <i_epik_Tot_Q>  (148) 
0

>  <i_epik_Tot_abs_Q>  (148) 
0

>  <s_lp_Force_Field>  (148) 
OPLS3e

>  <r_lp_Energy>  (148) 
7.68613

>  <b_lp_Chiralities_Consistent>  (148) 
1

>  <s_lp_Variant>  (148) 
47:0-1

>  <s_i_glide_gridfile>  (148) 
pfpi4k_grid

>  <i_i_glide_lignum>  (148) 
18

>  <i_i_glide_rotatable_bonds>  (148) 
0

>  <r_i_docking_score>  (148) 
-4.31105

>  <r_i_glide_ligand_efficiency>  (148) 
-0.331619

>  <r_i_glide_ligand_efficiency_sa>  (148) 
-0.779748

>  <r_i_glide_ligand_efficiency_ln>  (148) 
-1.20929

>  <r_i_glide_gscore>  (148) 
-4.31105

>  <r_i_glide_lipo>  (148) 
-0.0198188

>  <r_i_glide_hbond>  (148) 
-0.296505

>  <r_i_glide_metal>  (148) 
-0

>  <r_i_glide_rewards>  (148) 
-2.10538

>  <r_i_glide_evdw>  (148) 
-14.0925

>  <r_i_glide_ecoul>  (148) 
-7.17706

>  <r_i_glide_erotb>  (148) 
0

>  <r_i_glide_esite>  (148) 
-0.108161

>  <r_i_glide_emodel>  (148) 
-28.7782

>  <r_i_glide_energy>  (148) 
-21.2695

>  <r_i_glide_einternal>  (148) 
0

>  <r_i_glide_intrahb_reward>  (148) 
-0

>  <i_i_glide_confnum>  (148) 
2

>  <i_i_glide_posenum>  (148) 
1

>  <r_i_glide_eff_state_penalty>  (148) 
0

>  <ligand_id>  (148) 
47

>  <original_smiles>  (148) 
Oc1nc2ccn3nccc3c2s1

>  <smiles>  (148) 
[H]c1nn2c([H])c([H])c3c(sc(=O)n3[H])c2c1[H]

$$$$
48:0:0
     RDKit          3D

 70 76  0  0  1  0  0  0  0  0999 V2000
    1.6346   -5.2787    4.6714 C   0  0  0  0  0  0  0  0  0  0  0  0
    2.9725   -5.6652    5.3323 C   0  0  2  0  0  0  0  0  0  0  0  0
    4.1315   -4.9474    4.6090 C   0  0  0  0  0  0  0  0  0  0  0  0
    5.5486   -5.5355    4.7373 C   0  0  0  0  0  0  0  0  0  0  0  0
    5.8703   -6.8489    3.9736 C   0  0  2  0  0  0  0  0  0  0  0  0
    6.1843   -6.6652    2.4564 C   0  0  1  0  0  0  0  0  0  0  0  0
    7.2810   -7.5852    1.8877 C   0  0  0  0  0  0  0  0  0  0  0  0
    4.9632   -6.5706    1.5061 C   0  0  1  0  0  0  0  0  0  0  0  0
    5.2347   -5.7983    0.1871 C   0  0  0  0  0  0  0  0  0  0  0  0
    4.9856   -4.2560    0.2180 C   0  0  1  0  0  0  0  0  0  0  0  0
    5.4398   -3.6414   -1.1414 C   0  0  0  0  0  0  0  0  0  0  0  0
    5.2276   -2.1077   -1.1623 C   0  0  2  0  0  0  0  0  0  0  0  0
    6.0473   -1.4532   -0.0287 C   0  0  0  0  0  0  0  0  0  0  0  0
    5.5743   -2.0137    1.3174 C   0  0  1  0  0  0  0  0  0  0  0  0
    4.0741   -1.7332    1.5303 C   0  0  0  0  0  0  0  0  0  0  0  0
    3.2672   -2.3821    0.3886 C   0  0  1  0  0  0  0  0  0  0  0  0
    3.7280   -1.8064   -0.9613 C   0  0  0  0  0  0  0  0  0  0  0  0
    3.4754   -3.9083    0.3926 C   0  0  0  0  0  0  0  0  0  0  0  0
    5.7966   -3.5290    1.3304 C   0  0  0  0  0  0  0  0  0  0  0  0
    4.4724   -7.8494    1.1385 O   0  0  0  0  0  0  0  0  0  0  0  0
    3.7180   -8.5753    2.0758 C   0  0  1  0  0  0  0  0  0  0  0  0
    2.6001   -9.2535    1.2904 C   0  0  0  0  0  0  0  0  0  0  0  0
    4.4331   -9.6478    2.6683 O   0  0  0  0  0  0  0  0  0  0  0  0
    5.5442   -9.1487    3.5915 O   0  0  0  0  0  0  0  0  0  0  0  0
    5.0526   -8.0924    4.4013 C   0  0  1  0  0  0  0  0  0  0  0  0
    5.2287   -8.3738    5.9027 C   0  0  0  0  0  0  0  0  0  0  0  0
    4.0894   -7.6143    6.6173 C   0  0  0  0  0  0  0  0  0  0  0  0
    3.0737   -7.2037    5.5237 C   0  0  2  0  0  0  0  0  0  0  0  0
    3.5274   -8.0392    4.3281 C   0  0  1  0  0  0  0  0  0  0  0  0
    3.0733   -7.7640    3.0209 O   0  0  0  0  0  0  0  0  0  0  0  0
    1.5685   -5.6667    3.6525 H   0  0  0  0  0  0  0  0  0  0  0  0
    1.5195   -4.1938    4.6185 H   0  0  0  0  0  0  0  0  0  0  0  0
    0.7809   -5.6693    5.2317 H   0  0  0  0  0  0  0  0  0  0  0  0
    2.9241   -5.2452    6.3373 H   0  0  0  0  0  0  0  0  0  0  0  0
    3.8636   -4.7825    3.5724 H   0  0  0  0  0  0  0  0  0  0  0  0
    4.1642   -3.9363    5.0177 H   0  0  0  0  0  0  0  0  0  0  0  0
    6.2388   -4.7691    4.4019 H   0  0  0  0  0  0  0  0  0  0  0  0
    5.7954   -5.6459    5.7928 H   0  0  0  0  0  0  0  0  0  0  0  0
    6.8653   -7.0744    4.3576 H   0  0  0  0  0  0  0  0  0  0  0  0
    6.7082   -5.7217    2.4338 H   0  0  0  0  0  0  0  0  0  0  0  0
    6.9504   -8.6064    1.7156 H   0  0  0  0  0  0  0  0  0  0  0  0
    8.1461   -7.6121    2.5432 H   0  0  0  0  0  0  0  0  0  0  0  0
    7.6529   -7.2246    0.9316 H   0  0  0  0  0  0  0  0  0  0  0  0
    4.1416   -6.0492    1.9706 H   0  0  0  0  0  0  0  0  0  0  0  0
    6.2526   -5.9644   -0.1558 H   0  0  0  0  0  0  0  0  0  0  0  0
    4.6107   -6.2086   -0.6138 H   0  0  0  0  0  0  0  0  0  0  0  0
    6.4930   -3.8525   -1.3270 H   0  0  0  0  0  0  0  0  0  0  0  0
    4.8915   -4.0915   -1.9733 H   0  0  0  0  0  0  0  0  0  0  0  0
    5.5476   -1.6972   -2.1220 H   0  0  0  0  0  0  0  0  0  0  0  0
    7.1077   -1.6700   -0.1582 H   0  0  0  0  0  0  0  0  0  0  0  0
    5.9333   -0.3690   -0.0380 H   0  0  0  0  0  0  0  0  0  0  0  0
    6.1515   -1.5740    2.1303 H   0  0  0  0  0  0  0  0  0  0  0  0
    3.7505   -2.1327    2.4905 H   0  0  0  0  0  0  0  0  0  0  0  0
    3.9001   -0.6594    1.5613 H   0  0  0  0  0  0  0  0  0  0  0  0
    2.2091   -2.1664    0.5361 H   0  0  0  0  0  0  0  0  0  0  0  0
    3.5419   -0.7332   -0.9859 H   0  0  0  0  0  0  0  0  0  0  0  0
    3.1438   -2.2480   -1.7694 H   0  0  0  0  0  0  0  0  0  0  0  0
    2.8865   -4.3727   -0.3974 H   0  0  0  0  0  0  0  0  0  0  0  0
    3.0687   -4.2839    1.3247 H   0  0  0  0  0  0  0  0  0  0  0  0
    5.4749   -3.8555    2.3065 H   0  0  0  0  0  0  0  0  0  0  0  0
    6.8556   -3.7483    1.2294 H   0  0  0  0  0  0  0  0  0  0  0  0
    2.0354   -9.9325    1.9391 H   0  0  0  0  0  0  0  0  0  0  0  0
    3.0226   -9.8395    0.4721 H   0  0  0  0  0  0  0  0  0  0  0  0
    1.9060   -8.5092    0.8911 H   0  0  0  0  0  0  0  0  0  0  0  0
    5.1041   -9.4422    6.0878 H   0  0  0  0  0  0  0  0  0  0  0  0
    6.2135   -8.1013    6.2882 H   0  0  0  0  0  0  0  0  0  0  0  0
    3.6128   -8.2661    7.3495 H   0  0  0  0  0  0  0  0  0  0  0  0
    4.4602   -6.7543    7.1746 H   0  0  0  0  0  0  0  0  0  0  0  0
    2.0854   -7.5533    5.8377 H   0  0  0  0  0  0  0  0  0  0  0  0
    3.1652   -9.0422    4.5622 H   0  0  0  0  0  0  0  0  0  0  0  0
  1  2  1  0
  1 31  1  0
  1 32  1  0
  1 33  1  0
  2 28  1  0
  2  3  1  0
  2 34  1  1
  3  4  1  0
  3 35  1  0
  3 36  1  0
  4  5  1  0
  4 37  1  0
  4 38  1  0
  5 25  1  0
  5  6  1  0
  5 39  1  1
  6  7  1  0
  6  8  1  0
  6 40  1  1
  7 41  1  0
  7 42  1  0
  7 43  1  0
  8  9  1  0
  8 20  1  0
  8 44  1  1
 10  9  1  6
  9 45  1  0
  9 46  1  0
 10 18  1  0
 10 19  1  0
 10 11  1  0
 11 12  1  0
 11 47  1  0
 11 48  1  0
 12 17  1  0
 12 13  1  0
 12 49  1  6
 13 14  1  0
 13 50  1  0
 13 51  1  0
 14 15  1  0
 14 19  1  0
 14 52  1  1
 15 16  1  0
 15 53  1  0
 15 54  1  0
 16 17  1  0
 16 18  1  0
 16 55  1  1
 17 56  1  0
 17 57  1  0
 18 58  1  0
 18 59  1  0
 19 60  1  0
 19 61  1  0
 20 21  1  0
 21 30  1  0
 21 22  1  6
 21 23  1  0
 22 62  1  0
 22 63  1  0
 22 64  1  0
 23 24  1  0
 24 25  1  0
 25 29  1  0
 25 26  1  1
 26 27  1  0
 26 65  1  0
 26 66  1  0
 27 28  1  0
 27 67  1  0
 27 68  1  0
 28 29  1  0
 28 69  1  1
 29 30  1  0
 29 70  1  1
M  END
>  <i_m_ct_stereo_status>  (149) 
1

>  <s_m_source_file>  (149) 
/var/tmp/pbs.5076255.sched01/tmpkddd28mm/459jwin2qj.sdf

>  <i_m_source_file_index>  (149) 
19

>  <i_lp_mmshare_version>  (149) 
48012

>  <i_f3d_flags>  (149) 
0

>  <s_epik_input>  (149) 
W0NAXTEyM1tDQEBIXTRbQ0gyXVtDSDJdW0NAQEhdKFtDSDNdKVtDQEhdKFtDSDJdW0NIMl0yKVtDQEhdM09bQ0BdKFtDSDNdKShPTzEpT1tDQEBIXShbQ0BASF00W0NIM10pW0NIMl1DNTZbQ0gyXVtDQEhdN1tDSDJdW0NAQEhdKFtDSDJdNilbQ0gyXVtDQEhdKFtDSDJdNylbQ0gyXTU=

>  <s_epik_cmdline>  (149) 
J2VwaWtfcHl0aG9uJywgJy1waHQnLCAnMi4wJywgJy1waCcsICc3LjAnLCAnLXRuJywgJzgnLCAnLW1hJywgJzIwMCcsICctaW1hZScsICc8aW5maWxlLm1hZT4nLCAnLW9tYWUnLCAnPG91dGZpbGUubWFlPic=

>  <r_lp_tautomer_probability>  (149) 
1

>  <r_epik_Ionization_Penalty>  (149) 
2.76272e-15

>  <r_epik_Ionization_Penalty_Charging>  (149) 
0

>  <r_epik_Ionization_Penalty_Neutral>  (149) 
2.76272e-15

>  <r_epik_State_Penalty>  (149) 
-0

>  <r_epik_Charging_Adjusted_Penalty>  (149) 
0

>  <i_epik_Tot_Q>  (149) 
0

>  <i_epik_Tot_abs_Q>  (149) 
0

>  <s_lp_Force_Field>  (149) 
OPLS3e

>  <r_lp_Energy>  (149) 
45.2179

>  <b_lp_Chiralities_Consistent>  (149) 
1

>  <s_lp_Variant>  (149) 
48:0-1

>  <s_i_glide_gridfile>  (149) 
pfpi4k_grid

>  <i_i_glide_lignum>  (149) 
19

>  <i_i_glide_rotatable_bonds>  (149) 
2

>  <r_i_docking_score>  (149) 
-1.90834

>  <r_i_glide_ligand_efficiency>  (149) 
-0.0636112

>  <r_i_glide_ligand_efficiency_sa>  (149) 
-0.197655

>  <r_i_glide_ligand_efficiency_ln>  (149) 
-0.433595

>  <r_i_glide_gscore>  (149) 
-1.90834

>  <r_i_glide_lipo>  (149) 
-0.489521

>  <r_i_glide_hbond>  (149) 
0

>  <r_i_glide_metal>  (149) 
-0

>  <r_i_glide_rewards>  (149) 
-0.568681

>  <r_i_glide_evdw>  (149) 
-19.9683

>  <r_i_glide_ecoul>  (149) 
-0.416311

>  <r_i_glide_erotb>  (149) 
0.227685

>  <r_i_glide_esite>  (149) 
-0.0169571

>  <r_i_glide_emodel>  (149) 
-21.3168

>  <r_i_glide_energy>  (149) 
-20.3846

>  <r_i_glide_einternal>  (149) 
2.58833

>  <r_i_glide_intrahb_reward>  (149) 
-0

>  <i_i_glide_confnum>  (149) 
1

>  <i_i_glide_posenum>  (149) 
20

>  <r_i_glide_eff_state_penalty>  (149) 
0

>  <ligand_id>  (149) 
48

>  <original_smiles>  (149) 
CC1CCC2C(C)C(CC34CC5CC(CC(C5)C3)C4)OC3(C)OOC24CCC1C4O3

>  <smiles>  (149) 
[H]C([H])([H])C12OOC34C([H])([H])C([H])([H])C([H])(C3([H])O1)C([H])(C([H])([H])[H])C([H])([H])C([H])([H])C4([H])C([H])(C([H])([H])[H])C([H])(C([H])([H])C13C([H])([H])C4([H])C([H])([H])C([H])(C([H])([H])C([H])(C4([H])[H])C1([H])[H])C3([H])[H])O2

$$$$
48:0:1
     RDKit          3D

 70 76  0  0  1  0  0  0  0  0999 V2000
    0.6413   -2.5101    3.9208 C   0  0  0  0  0  0  0  0  0  0  0  0
    1.4719   -3.3241    4.9396 C   0  0  2  0  0  0  0  0  0  0  0  0
    2.9296   -3.3376    4.4827 C   0  0  0  0  0  0  0  0  0  0  0  0
    3.8874   -4.4536    4.9502 C   0  0  0  0  0  0  0  0  0  0  0  0
    3.7047   -5.8715    4.3560 C   0  0  2  0  0  0  0  0  0  0  0  0
    4.3467   -6.0799    2.9427 C   0  0  1  0  0  0  0  0  0  0  0  0
    4.9749   -7.4812    2.7326 C   0  0  0  0  0  0  0  0  0  0  0  0
    3.5079   -5.6436    1.7084 C   0  0  1  0  0  0  0  0  0  0  0  0
    4.3961   -5.3245    0.4728 C   0  0  0  0  0  0  0  0  0  0  0  0
    4.7597   -3.8263    0.2456 C   0  0  1  0  0  0  0  0  0  0  0  0
    5.8936   -3.7140   -0.8090 C   0  0  0  0  0  0  0  0  0  0  0  0
    6.2833   -2.2404   -1.0615 C   0  0  2  0  0  0  0  0  0  0  0  0
    6.7568   -1.5891    0.2584 C   0  0  0  0  0  0  0  0  0  0  0  0
    5.6186   -1.6561    1.2855 C   0  0  1  0  0  0  0  0  0  0  0  0
    4.3707   -0.9115    0.7577 C   0  0  0  0  0  0  0  0  0  0  0  0
    3.9103   -1.5599   -0.5570 C   0  0  1  0  0  0  0  0  0  0  0  0
    5.0513   -1.4830   -1.5990 C   0  0  0  0  0  0  0  0  0  0  0  0
    3.5317   -3.0356   -0.3021 C   0  0  0  0  0  0  0  0  0  0  0  0
    5.3100   -3.1337    1.5163 C   0  0  0  0  0  0  0  0  0  0  0  0
    2.5555   -6.6391    1.3507 O   0  0  0  0  0  0  0  0  0  0  0  0
    1.3808   -6.7675    2.1086 C   0  0  1  0  0  0  0  0  0  0  0  0
    0.2678   -7.0096    1.1141 C   0  0  0  0  0  0  0  0  0  0  0  0
    1.3987   -7.9272    2.9222 O   0  0  0  0  0  0  0  0  0  0  0  0
    2.4271   -7.8116    4.0184 O   0  0  0  0  0  0  0  0  0  0  0  0
    2.3458   -6.5438    4.6530 C   0  0  1  0  0  0  0  0  0  0  0  0
    2.0738   -6.6310    6.1634 C   0  0  0  0  0  0  0  0  0  0  0  0
    1.3063   -5.3382    6.5372 C   0  0  0  0  0  0  0  0  0  0  0  0
    0.8191   -4.7056    5.2149 C   0  0  2  0  0  0  0  0  0  0  0  0
    1.0634   -5.8297    4.2097 C   0  0  1  0  0  0  0  0  0  0  0  0
    1.0233   -5.6085    2.8182 O   0  0  0  0  0  0  0  0  0  0  0  0
    0.6200   -3.0017    2.9516 H   0  0  0  0  0  0  0  0  0  0  0  0
    1.0782   -1.5251    3.7699 H   0  0  0  0  0  0  0  0  0  0  0  0
   -0.3882   -2.3759    4.2534 H   0  0  0  0  0  0  0  0  0  0  0  0
    1.4308   -2.7693    5.8815 H   0  0  0  0  0  0  0  0  0  0  0  0
    2.8966   -3.3008    3.3878 H   0  0  0  0  0  0  0  0  0  0  0  0
    3.3718   -2.3903    4.7706 H   0  0  0  0  0  0  0  0  0  0  0  0
    4.9010   -4.1357    4.7257 H   0  0  0  0  0  0  0  0  0  0  0  0
    3.8860   -4.5088    6.0429 H   0  0  0  0  0  0  0  0  0  0  0  0
    4.3874   -6.4564    4.9769 H   0  0  0  0  0  0  0  0  0  0  0  0
    5.2168   -5.4345    2.9651 H   0  0  0  0  0  0  0  0  0  0  0  0
    4.2388   -8.2663    2.5539 H   0  0  0  0  0  0  0  0  0  0  0  0
    5.5811   -7.7776    3.5840 H   0  0  0  0  0  0  0  0  0  0  0  0
    5.6419   -7.5074    1.8726 H   0  0  0  0  0  0  0  0  0  0  0  0
    2.9587   -4.7246    1.9056 H   0  0  0  0  0  0  0  0  0  0  0  0
    5.3141   -5.9127    0.4949 H   0  0  0  0  0  0  0  0  0  0  0  0
    3.8914   -5.6950   -0.4207 H   0  0  0  0  0  0  0  0  0  0  0  0
    6.7746   -4.2596   -0.4628 H   0  0  0  0  0  0  0  0  0  0  0  0
    5.5945   -4.1881   -1.7545 H   0  0  0  0  0  0  0  0  0  0  0  0
    7.0855   -2.2129   -1.7936 H   0  0  0  0  0  0  0  0  0  0  0  0
    7.6269   -2.1183    0.6505 H   0  0  0  0  0  0  0  0  0  0  0  0
    7.0616   -0.5484    0.1145 H   0  0  0  0  0  0  0  0  0  0  0  0
    5.9388   -1.2055    2.2256 H   0  0  0  0  0  0  0  0  0  0  0  0
    3.5698   -0.9481    1.4912 H   0  0  0  0  0  0  0  0  0  0  0  0
    4.5985    0.1453    0.6021 H   0  0  0  0  0  0  0  0  0  0  0  0
    3.0348   -1.0336   -0.9378 H   0  0  0  0  0  0  0  0  0  0  0  0
    5.2912   -0.4410   -1.8022 H   0  0  0  0  0  0  0  0  0  0  0  0
    4.7236   -1.9279   -2.5382 H   0  0  0  0  0  0  0  0  0  0  0  0
    3.1664   -3.4804   -1.2285 H   0  0  0  0  0  0  0  0  0  0  0  0
    2.6935   -3.0713    0.3897 H   0  0  0  0  0  0  0  0  0  0  0  0
    4.5557   -3.1589    2.3241 H   0  0  0  0  0  0  0  0  0  0  0  0
    6.1885   -3.6381    1.8867 H   0  0  0  0  0  0  0  0  0  0  0  0
   -0.6654   -7.2547    1.6356 H   0  0  0  0  0  0  0  0  0  0  0  0
    0.5480   -7.8451    0.4831 H   0  0  0  0  0  0  0  0  0  0  0  0
    0.1162   -6.1483    0.4579 H   0  0  0  0  0  0  0  0  0  0  0  0
    1.4291   -7.4873    6.3728 H   0  0  0  0  0  0  0  0  0  0  0  0
    2.9818   -6.7570    6.7591 H   0  0  0  0  0  0  0  0  0  0  0  0
    0.4557   -5.5782    7.1708 H   0  0  0  0  0  0  0  0  0  0  0  0
    1.9309   -4.6519    7.1034 H   0  0  0  0  0  0  0  0  0  0  0  0
   -0.2584   -4.5344    5.2876 H   0  0  0  0  0  0  0  0  0  0  0  0
    0.2389   -6.5270    4.3999 H   0  0  0  0  0  0  0  0  0  0  0  0
  1  2  1  0
  1 31  1  0
  1 32  1  0
  1 33  1  0
  2 28  1  0
  2  3  1  0
  2 34  1  1
  3  4  1  0
  3 35  1  0
  3 36  1  0
  4  5  1  0
  4 37  1  0
  4 38  1  0
  5 25  1  0
  5  6  1  0
  5 39  1  1
  6  7  1  0
  6  8  1  0
  6 40  1  1
  7 41  1  0
  7 42  1  0
  7 43  1  0
  8  9  1  0
  8 20  1  0
  8 44  1  1
 10  9  1  1
  9 45  1  0
  9 46  1  0
 10 18  1  0
 10 19  1  0
 10 11  1  0
 11 12  1  0
 11 47  1  0
 11 48  1  0
 12 17  1  0
 12 13  1  0
 12 49  1  6
 13 14  1  0
 13 50  1  0
 13 51  1  0
 14 15  1  0
 14 19  1  0
 14 52  1  1
 15 16  1  0
 15 53  1  0
 15 54  1  0
 16 17  1  0
 16 18  1  0
 16 55  1  6
 17 56  1  0
 17 57  1  0
 18 58  1  0
 18 59  1  0
 19 60  1  0
 19 61  1  0
 20 21  1  0
 21 30  1  0
 21 22  1  6
 21 23  1  0
 22 62  1  0
 22 63  1  0
 22 64  1  0
 23 24  1  0
 24 25  1  0
 25 29  1  0
 25 26  1  1
 26 27  1  0
 26 65  1  0
 26 66  1  0
 27 28  1  0
 27 67  1  0
 27 68  1  0
 28 29  1  0
 28 69  1  1
 29 30  1  0
 29 70  1  6
M  END
>  <i_m_ct_stereo_status>  (150) 
1

>  <s_m_source_file>  (150) 
/var/tmp/pbs.5076255.sched01/tmpkddd28mm/459jwin2qj.sdf

>  <i_m_source_file_index>  (150) 
19

>  <i_lp_mmshare_version>  (150) 
48012

>  <i_f3d_flags>  (150) 
0

>  <s_epik_input>  (150) 
W0NAXTEyM1tDQEBIXTRbQ0gyXVtDSDJdW0NAQEhdKFtDSDNdKVtDQEhdKFtDSDJdW0NIMl0yKVtDQEhdM09bQ0BdKFtDSDNdKShPTzEpT1tDQEBIXShbQ0BASF00W0NIM10pW0NIMl1DNTZbQ0gyXVtDQEhdN1tDSDJdW0NAQEhdKFtDSDJdNilbQ0gyXVtDQEhdKFtDSDJdNylbQ0gyXTU=

>  <s_epik_cmdline>  (150) 
J2VwaWtfcHl0aG9uJywgJy1waHQnLCAnMi4wJywgJy1waCcsICc3LjAnLCAnLXRuJywgJzgnLCAnLW1hJywgJzIwMCcsICctaW1hZScsICc8aW5maWxlLm1hZT4nLCAnLW9tYWUnLCAnPG91dGZpbGUubWFlPic=

>  <r_lp_tautomer_probability>  (150) 
1

>  <r_epik_Ionization_Penalty>  (150) 
2.76272e-15

>  <r_epik_Ionization_Penalty_Charging>  (150) 
0

>  <r_epik_Ionization_Penalty_Neutral>  (150) 
2.76272e-15

>  <r_epik_State_Penalty>  (150) 
-0

>  <r_epik_Charging_Adjusted_Penalty>  (150) 
0

>  <i_epik_Tot_Q>  (150) 
0

>  <i_epik_Tot_abs_Q>  (150) 
0

>  <s_lp_Force_Field>  (150) 
OPLS3e

>  <r_lp_Energy>  (150) 
45.2179

>  <b_lp_Chiralities_Consistent>  (150) 
1

>  <s_lp_Variant>  (150) 
48:0-1

>  <s_i_glide_gridfile>  (150) 
pfpi4k_grid

>  <i_i_glide_lignum>  (150) 
19

>  <i_i_glide_rotatable_bonds>  (150) 
2

>  <r_i_docking_score>  (150) 
-1.86574

>  <r_i_glide_ligand_efficiency>  (150) 
-0.0621914

>  <r_i_glide_ligand_efficiency_sa>  (150) 
-0.193243

>  <r_i_glide_ligand_efficiency_ln>  (150) 
-0.423917

>  <r_i_glide_gscore>  (150) 
-1.86574

>  <r_i_glide_lipo>  (150) 
-0.445783

>  <r_i_glide_hbond>  (150) 
0

>  <r_i_glide_metal>  (150) 
-0

>  <r_i_glide_rewards>  (150) 
-0.568681

>  <r_i_glide_evdw>  (150) 
-21.913

>  <r_i_glide_ecoul>  (150) 
0.374214

>  <r_i_glide_erotb>  (150) 
0.227685

>  <r_i_glide_esite>  (150) 
-0.0394466

>  <r_i_glide_emodel>  (150) 
-21.7003

>  <r_i_glide_energy>  (150) 
-21.5387

>  <r_i_glide_einternal>  (150) 
2.98745

>  <r_i_glide_intrahb_reward>  (150) 
-0

>  <i_i_glide_confnum>  (150) 
1

>  <i_i_glide_posenum>  (150) 
24

>  <r_i_glide_eff_state_penalty>  (150) 
0

>  <ligand_id>  (150) 
48

>  <original_smiles>  (150) 
CC1CCC2C(C)C(CC34CC5CC(CC(C5)C3)C4)OC3(C)OOC24CCC1C4O3

>  <smiles>  (150) 
[H]C([H])([H])C12OOC34C([H])([H])C([H])([H])C([H])(C3([H])O1)C([H])(C([H])([H])[H])C([H])([H])C([H])([H])C4([H])C([H])(C([H])([H])[H])C([H])(C([H])([H])C13C([H])([H])C4([H])C([H])([H])C([H])(C([H])([H])C([H])(C4([H])[H])C1([H])[H])C3([H])[H])O2

$$$$
48:0:2
     RDKit          3D

 70 76  0  0  1  0  0  0  0  0999 V2000
    1.0407   -0.8944    3.0415 C   0  0  0  0  0  0  0  0  0  0  0  0
    2.0746   -1.4233    4.0501 C   0  0  2  0  0  0  0  0  0  0  0  0
    3.5065   -1.0673    3.5739 C   0  0  0  0  0  0  0  0  0  0  0  0
    4.6834   -1.8919    4.1230 C   0  0  0  0  0  0  0  0  0  0  0  0
    4.8740   -3.3456    3.6097 C   0  0  2  0  0  0  0  0  0  0  0  0
    5.5274   -3.4321    2.1902 C   0  0  1  0  0  0  0  0  0  0  0  0
    6.4636   -4.6509    1.9989 C   0  0  0  0  0  0  0  0  0  0  0  0
    4.5868   -3.2911    0.9775 C   0  0  1  0  0  0  0  0  0  0  0  0
    5.3525   -2.7811   -0.2726 C   0  0  0  0  0  0  0  0  0  0  0  0
    4.5061   -2.4833   -1.5380 C   0  0  1  0  0  0  0  0  0  0  0  0
    3.4261   -1.4088   -1.2624 C   0  0  0  0  0  0  0  0  0  0  0  0
    2.6540   -1.0940   -2.5444 C   0  0  2  0  0  0  0  0  0  0  0  0
    1.9691   -2.3995   -3.0350 C   0  0  0  0  0  0  0  0  0  0  0  0
    3.0422   -3.4347   -3.3434 C   0  0  1  0  0  0  0  0  0  0  0  0
    3.9808   -2.8969   -4.3818 C   0  0  0  0  0  0  0  0  0  0  0  0
    4.6109   -1.5862   -3.9212 C   0  0  1  0  0  0  0  0  0  0  0  0
    3.5594   -0.5481   -3.6233 C   0  0  0  0  0  0  0  0  0  0  0  0
    5.4230   -1.9111   -2.6460 C   0  0  0  0  0  0  0  0  0  0  0  0
    3.8444   -3.7643   -2.0980 C   0  0  0  0  0  0  0  0  0  0  0  0
    3.9690   -4.5506    0.7144 O   0  0  0  0  0  0  0  0  0  0  0  0
    2.8475   -4.9214    1.4583 C   0  0  1  0  0  0  0  0  0  0  0  0
    1.8192   -5.4741    0.4455 C   0  0  0  0  0  0  0  0  0  0  0  0
    3.1301   -6.0025    2.2972 O   0  0  0  0  0  0  0  0  0  0  0  0
    4.0806   -5.5891    3.4254 O   0  0  0  0  0  0  0  0  0  0  0  0
    3.7039   -4.3271    3.9508 C   0  0  1  0  0  0  0  0  0  0  0  0
    3.4694   -4.4024    5.4800 C   0  0  0  0  0  0  0  0  0  0  0  0
    2.4002   -3.3296    5.7886 C   0  0  0  0  0  0  0  0  0  0  0  0
    1.7794   -2.8962    4.4367 C   0  0  2  0  0  0  0  0  0  0  0  0
    2.2964   -3.9916    3.4973 C   0  0  1  0  0  0  0  0  0  0  0  0
    2.2064   -3.8502    2.0933 O   0  0  0  0  0  0  0  0  0  0  0  0
    1.1114   -1.4175    2.0839 H   0  0  0  0  0  0  0  0  0  0  0  0
    1.1911    0.1686    2.8449 H   0  0  0  0  0  0  0  0  0  0  0  0
    0.0235   -1.0146    3.4136 H   0  0  0  0  0  0  0  0  0  0  0  0
    1.9089   -0.8468    4.9622 H   0  0  0  0  0  0  0  0  0  0  0  0
    3.5423   -1.0055    2.4887 H   0  0  0  0  0  0  0  0  0  0  0  0
    3.6765   -0.0312    3.8754 H   0  0  0  0  0  0  0  0  0  0  0  0
    5.5950   -1.3365    3.8840 H   0  0  0  0  0  0  0  0  0  0  0  0
    4.6592   -1.8812    5.2096 H   0  0  0  0  0  0  0  0  0  0  0  0
    5.6744   -3.7006    4.2424 H   0  0  0  0  0  0  0  0  0  0  0  0
    6.1934   -2.5685    2.1512 H   0  0  0  0  0  0  0  0  0  0  0  0
    5.9251   -5.5803    1.8374 H   0  0  0  0  0  0  0  0  0  0  0  0
    7.0966   -4.8229    2.8591 H   0  0  0  0  0  0  0  0  0  0  0  0
    7.1162   -4.5171    1.1385 H   0  0  0  0  0  0  0  0  0  0  0  0
    3.8448   -2.5349    1.1703 H   0  0  0  0  0  0  0  0  0  0  0  0
    5.8696   -1.8628    0.0002 H   0  0  0  0  0  0  0  0  0  0  0  0
    6.1328   -3.4813   -0.5428 H   0  0  0  0  0  0  0  0  0  0  0  0
    2.7237   -1.7540   -0.5053 H   0  0  0  0  0  0  0  0  0  0  0  0
    3.8908   -0.4994   -0.8791 H   0  0  0  0  0  0  0  0  0  0  0  0
    1.9541   -0.2781   -2.3417 H   0  0  0  0  0  0  0  0  0  0  0  0
    1.3105   -2.8095   -2.2751 H   0  0  0  0  0  0  0  0  0  0  0  0
    1.3821   -2.2801   -3.9375 H   0  0  0  0  0  0  0  0  0  0  0  0
    2.5300   -4.2898   -3.7825 H   0  0  0  0  0  0  0  0  0  0  0  0
    4.7229   -3.6487   -4.6807 H   0  0  0  0  0  0  0  0  0  0  0  0
    3.3210   -2.6958   -5.1921 H   0  0  0  0  0  0  0  0  0  0  0  0
    5.1617   -1.1088   -4.7162 H   0  0  0  0  0  0  0  0  0  0  0  0
    2.9922   -0.3047   -4.5318 H   0  0  0  0  0  0  0  0  0  0  0  0
    4.0255    0.3848   -3.2875 H   0  0  0  0  0  0  0  0  0  0  0  0
    5.9105   -1.0076   -2.2678 H   0  0  0  0  0  0  0  0  0  0  0  0
    6.2010   -2.6434   -2.8795 H   0  0  0  0  0  0  0  0  0  0  0  0
    4.6100   -4.5255   -2.3017 H   0  0  0  0  0  0  0  0  0  0  0  0
    3.1406   -4.1940   -1.4068 H   0  0  0  0  0  0  0  0  0  0  0  0
    0.9843   -5.9044    0.9865 H   0  0  0  0  0  0  0  0  0  0  0  0
    2.2897   -6.2367   -0.1631 H   0  0  0  0  0  0  0  0  0  0  0  0
    1.4491   -4.6760   -0.1967 H   0  0  0  0  0  0  0  0  0  0  0  0
    3.0625   -5.3839    5.7327 H   0  0  0  0  0  0  0  0  0  0  0  0
    4.3811   -4.2700    6.0617 H   0  0  0  0  0  0  0  0  0  0  0  0
    1.6366   -3.7456    6.4428 H   0  0  0  0  0  0  0  0  0  0  0  0
    2.8316   -2.4795    6.3245 H   0  0  0  0  0  0  0  0  0  0  0  0
    0.6957   -2.9948    4.5222 H   0  0  0  0  0  0  0  0  0  0  0  0
    1.6494   -4.8405    3.7306 H   0  0  0  0  0  0  0  0  0  0  0  0
  1  2  1  0
  1 31  1  0
  1 32  1  0
  1 33  1  0
  2 28  1  0
  2  3  1  0
  2 34  1  1
  3  4  1  0
  3 35  1  0
  3 36  1  0
  4  5  1  0
  4 37  1  0
  4 38  1  0
  5 25  1  0
  5  6  1  0
  5 39  1  1
  6  7  1  0
  6  8  1  0
  6 40  1  1
  7 41  1  0
  7 42  1  0
  7 43  1  0
  8  9  1  0
  8 20  1  0
  8 44  1  1
 10  9  1  1
  9 45  1  0
  9 46  1  0
 10 18  1  0
 10 19  1  0
 10 11  1  0
 11 12  1  0
 11 47  1  0
 11 48  1  0
 12 17  1  0
 12 13  1  0
 12 49  1  1
 13 14  1  0
 13 50  1  0
 13 51  1  0
 14 15  1  0
 14 19  1  0
 14 52  1  6
 15 16  1  0
 15 53  1  0
 15 54  1  0
 16 17  1  0
 16 18  1  0
 16 55  1  6
 17 56  1  0
 17 57  1  0
 18 58  1  0
 18 59  1  0
 19 60  1  0
 19 61  1  0
 20 21  1  0
 21 30  1  0
 21 22  1  6
 21 23  1  0
 22 62  1  0
 22 63  1  0
 22 64  1  0
 23 24  1  0
 24 25  1  0
 25 29  1  0
 25 26  1  1
 26 27  1  0
 26 65  1  0
 26 66  1  0
 27 28  1  0
 27 67  1  0
 27 68  1  0
 28 29  1  0
 28 69  1  1
 29 30  1  0
 29 70  1  1
M  END
>  <i_m_ct_stereo_status>  (151) 
1

>  <s_m_source_file>  (151) 
/var/tmp/pbs.5076255.sched01/tmpkddd28mm/459jwin2qj.sdf

>  <i_m_source_file_index>  (151) 
19

>  <i_lp_mmshare_version>  (151) 
48012

>  <i_f3d_flags>  (151) 
0

>  <s_epik_input>  (151) 
W0NAXTEyM1tDQEBIXTRbQ0gyXVtDSDJdW0NAQEhdKFtDSDNdKVtDQEhdKFtDSDJdW0NIMl0yKVtDQEhdM09bQ0BdKFtDSDNdKShPTzEpT1tDQEBIXShbQ0BASF00W0NIM10pW0NIMl1DNTZbQ0gyXVtDQEhdN1tDSDJdW0NAQEhdKFtDSDJdNilbQ0gyXVtDQEhdKFtDSDJdNylbQ0gyXTU=

>  <s_epik_cmdline>  (151) 
J2VwaWtfcHl0aG9uJywgJy1waHQnLCAnMi4wJywgJy1waCcsICc3LjAnLCAnLXRuJywgJzgnLCAnLW1hJywgJzIwMCcsICctaW1hZScsICc8aW5maWxlLm1hZT4nLCAnLW9tYWUnLCAnPG91dGZpbGUubWFlPic=

>  <r_lp_tautomer_probability>  (151) 
1

>  <r_epik_Ionization_Penalty>  (151) 
2.76272e-15

>  <r_epik_Ionization_Penalty_Charging>  (151) 
0

>  <r_epik_Ionization_Penalty_Neutral>  (151) 
2.76272e-15

>  <r_epik_State_Penalty>  (151) 
-0

>  <r_epik_Charging_Adjusted_Penalty>  (151) 
0

>  <i_epik_Tot_Q>  (151) 
0

>  <i_epik_Tot_abs_Q>  (151) 
0

>  <s_lp_Force_Field>  (151) 
OPLS3e

>  <r_lp_Energy>  (151) 
45.2179

>  <b_lp_Chiralities_Consistent>  (151) 
1

>  <s_lp_Variant>  (151) 
48:0-1

>  <s_i_glide_gridfile>  (151) 
pfpi4k_grid

>  <i_i_glide_lignum>  (151) 
19

>  <i_i_glide_rotatable_bonds>  (151) 
2

>  <r_i_docking_score>  (151) 
-1.321

>  <r_i_glide_ligand_efficiency>  (151) 
-0.0440332

>  <r_i_glide_ligand_efficiency_sa>  (151) 
-0.136821

>  <r_i_glide_ligand_efficiency_ln>  (151) 
-0.300145

>  <r_i_glide_gscore>  (151) 
-1.321

>  <r_i_glide_lipo>  (151) 
-0.606008

>  <r_i_glide_hbond>  (151) 
0

>  <r_i_glide_metal>  (151) 
-0

>  <r_i_glide_rewards>  (151) 
-0.568681

>  <r_i_glide_evdw>  (151) 
-10.744

>  <r_i_glide_ecoul>  (151) 
1.15092

>  <r_i_glide_erotb>  (151) 
0.227685

>  <r_i_glide_esite>  (151) 
-0.00942808

>  <r_i_glide_emodel>  (151) 
-9.93041

>  <r_i_glide_energy>  (151) 
-9.59313

>  <r_i_glide_einternal>  (151) 
0.173267

>  <r_i_glide_intrahb_reward>  (151) 
-0

>  <i_i_glide_confnum>  (151) 
1

>  <i_i_glide_posenum>  (151) 
1

>  <r_i_glide_eff_state_penalty>  (151) 
0

>  <ligand_id>  (151) 
48

>  <original_smiles>  (151) 
CC1CCC2C(C)C(CC34CC5CC(CC(C5)C3)C4)OC3(C)OOC24CCC1C4O3

>  <smiles>  (151) 
[H]C([H])([H])C12OOC34C([H])([H])C([H])([H])C([H])(C3([H])O1)C([H])(C([H])([H])[H])C([H])([H])C([H])([H])C4([H])C([H])(C([H])([H])[H])C([H])(C([H])([H])C13C([H])([H])C4([H])C([H])([H])C([H])(C([H])([H])C([H])(C4([H])[H])C1([H])[H])C3([H])[H])O2

$$$$
49:0:0
     RDKit          3D

 27 29  0  0  1  0  0  0  0  0999 V2000
   -5.0184   -8.7985   -5.2563 C   0  0  0  0  0  0  0  0  0  0  0  0
   -4.5889   -7.6117   -4.8248 C   0  0  0  0  0  0  0  0  0  0  0  0
   -5.5824   -6.6080   -5.1354 C   0  0  0  0  0  0  0  0  0  0  0  0
   -5.5628   -5.2374   -4.8310 C   0  0  0  0  0  0  0  0  0  0  0  0
   -6.6893   -4.4889   -5.2346 C   0  0  0  0  0  0  0  0  0  0  0  0
   -7.7643   -5.0848   -5.9332 C   0  0  0  0  0  0  0  0  0  0  0  0
   -7.7543   -6.4758   -6.2422 C   0  0  0  0  0  0  0  0  0  0  0  0
   -6.6330   -7.2240   -5.8066 C   0  0  0  0  0  0  0  0  0  0  0  0
   -6.3225   -8.6541   -5.9179 C   0  0  0  0  0  0  0  0  0  0  0  0
   -7.1195   -9.5978   -6.5085 C   0  0  0  0  0  0  0  0  0  0  0  0
   -6.9088  -11.0568   -6.6861 C   0  0  0  0  0  0  0  0  0  0  0  0
   -5.6936  -11.7342   -6.3785 C   0  0  0  0  0  0  0  0  0  0  0  0
   -5.6416  -13.1340   -6.4989 C   0  0  0  0  0  0  0  0  0  0  0  0
   -6.6720  -13.8968   -6.9333 N   0  0  0  0  0  0  0  0  0  0  0  0
   -7.8008  -13.2594   -7.2847 C   0  0  0  0  0  0  0  0  0  0  0  0
   -7.9890  -11.8585   -7.1641 C   0  0  0  0  0  0  0  0  0  0  0  0
   -4.4130   -9.6626   -5.0586 H   0  0  0  0  0  0  0  0  0  0  0  0
   -3.6574   -7.4358   -4.3192 H   0  0  0  0  0  0  0  0  0  0  0  0
   -4.7196   -4.7929   -4.3191 H   0  0  0  0  0  0  0  0  0  0  0  0
   -6.6922   -3.4394   -5.0030 H   0  0  0  0  0  0  0  0  0  0  0  0
   -8.6041   -4.4788   -6.2332 H   0  0  0  0  0  0  0  0  0  0  0  0
   -8.5799   -6.9430   -6.7580 H   0  0  0  0  0  0  0  0  0  0  0  0
   -8.0478   -9.2245   -6.9143 H   0  0  0  0  0  0  0  0  0  0  0  0
   -4.7915  -11.2770   -6.0574 H   0  0  0  0  0  0  0  0  0  0  0  0
   -4.7183  -13.6176   -6.2356 H   0  0  0  0  0  0  0  0  0  0  0  0
   -8.5944  -13.8995   -7.6547 H   0  0  0  0  0  0  0  0  0  0  0  0
   -8.9364  -11.4282   -7.4270 H   0  0  0  0  0  0  0  0  0  0  0  0
  1  9  1  0
  1  2  2  0
  1 17  1  0
  2  3  1  0
  2 18  1  0
  3  8  2  0
  3  4  1  0
  4  5  2  0
  4 19  1  0
  5  6  1  0
  5 20  1  0
  6  7  2  0
  6 21  1  0
  7  8  1  0
  7 22  1  0
  8  9  1  0
  9 10  2  3
 10 11  1  0
 10 23  1  0
 11 16  1  0
 11 12  2  0
 12 13  1  0
 12 24  1  0
 13 14  2  0
 13 25  1  0
 14 15  1  0
 15 16  2  0
 15 26  1  0
 16 27  1  0
M  END
>  <i_m_ct_stereo_status>  (152) 
1

>  <s_m_source_file>  (152) 
/var/tmp/pbs.5076255.sched01/tmpkddd28mm/459jwin2qj.sdf

>  <i_m_source_file_index>  (152) 
20

>  <i_lp_mmshare_version>  (152) 
48012

>  <i_f3d_flags>  (152) 
0

>  <s_epik_input>  (152) 
W2NIXTFbY0hdW2NIXVtjSF1jKGMxMilDKFxbQ0hdPVtDSF0yKT1bQ0hdXGMzW2NIXVtjSF1uW2NIXVtjSF0z

>  <s_epik_cmdline>  (152) 
J2VwaWtfcHl0aG9uJywgJy1waHQnLCAnMi4wJywgJy1waCcsICc3LjAnLCAnLXRuJywgJzgnLCAnLW1hJywgJzIwMCcsICctaW1hZScsICc8aW5maWxlLm1hZT4nLCAnLW9tYWUnLCAnPG91dGZpbGUubWFlPic=

>  <r_epik_Ionization_Penalty>  (152) 
0.00166079

>  <r_epik_Ionization_Penalty_Charging>  (152) 
0

>  <r_epik_Ionization_Penalty_Neutral>  (152) 
0.00166079

>  <r_epik_State_Penalty>  (152) 
0.00112032

>  <r_epik_Charging_Adjusted_Penalty>  (152) 
0.00112032

>  <i_epik_Tot_Q>  (152) 
0

>  <i_epik_Tot_abs_Q>  (152) 
0

>  <s_lp_Force_Field>  (152) 
OPLS3e

>  <r_lp_Energy>  (152) 
24.6087

>  <b_lp_Chiralities_Consistent>  (152) 
1

>  <s_lp_Variant>  (152) 
49:0-1

>  <s_i_glide_gridfile>  (152) 
pfpi4k_grid

>  <i_i_glide_lignum>  (152) 
20

>  <i_i_glide_rotatable_bonds>  (152) 
1

>  <r_i_docking_score>  (152) 
-6.90344

>  <r_i_glide_ligand_efficiency>  (152) 
-0.431465

>  <r_i_glide_ligand_efficiency_sa>  (152) 
-1.08722

>  <r_i_glide_ligand_efficiency_ln>  (152) 
-1.82989

>  <r_i_glide_gscore>  (152) 
-6.90344

>  <r_i_glide_lipo>  (152) 
-2.90142

>  <r_i_glide_hbond>  (152) 
0

>  <r_i_glide_metal>  (152) 
-0

>  <r_i_glide_rewards>  (152) 
-2.48723

>  <r_i_glide_evdw>  (152) 
-24.9682

>  <r_i_glide_ecoul>  (152) 
-1.77585

>  <r_i_glide_erotb>  (152) 
0

>  <r_i_glide_esite>  (152) 
0

>  <r_i_glide_emodel>  (152) 
-37.3022

>  <r_i_glide_energy>  (152) 
-26.7441

>  <r_i_glide_einternal>  (152) 
0.306921

>  <r_i_glide_intrahb_reward>  (152) 
-0

>  <i_i_glide_confnum>  (152) 
1

>  <i_i_glide_posenum>  (152) 
34

>  <r_i_glide_eff_state_penalty>  (152) 
0

>  <ligand_id>  (152) 
49

>  <original_smiles>  (152) 
C1=Cc2ccccc2C1=Cc1ccncc1

>  <smiles>  (152) 
[H]C1=C([H])c2c([H])c([H])c([H])c([H])c2C1=C([H])c1c([H])c([H])nc([H])c1[H]

$$$$
49:0:1
     RDKit          3D

 27 29  0  0  1  0  0  0  0  0999 V2000
   -4.6816   -8.8047   -5.7435 C   0  0  0  0  0  0  0  0  0  0  0  0
   -4.3228   -7.6494   -5.1782 C   0  0  0  0  0  0  0  0  0  0  0  0
   -5.4119   -6.6971   -5.3164 C   0  0  0  0  0  0  0  0  0  0  0  0
   -5.5055   -5.3514   -4.9298 C   0  0  0  0  0  0  0  0  0  0  0  0
   -6.6932   -4.6525   -5.2299 C   0  0  0  0  0  0  0  0  0  0  0  0
   -7.7546   -5.2987   -5.9146 C   0  0  0  0  0  0  0  0  0  0  0  0
   -7.6349   -6.6509   -6.3125 C   0  0  0  0  0  0  0  0  0  0  0  0
   -6.4492   -7.3383   -6.0015 C   0  0  0  0  0  0  0  0  0  0  0  0
   -6.0313   -8.7168   -6.2713 C   0  0  0  0  0  0  0  0  0  0  0  0
   -6.7707   -9.6725   -6.8892 C   0  0  0  0  0  0  0  0  0  0  0  0
   -6.4410  -11.0977   -7.1010 C   0  0  0  0  0  0  0  0  0  0  0  0
   -7.0418  -11.8207   -8.1548 C   0  0  0  0  0  0  0  0  0  0  0  0
   -6.6922  -13.1752   -8.3470 C   0  0  0  0  0  0  0  0  0  0  0  0
   -5.7714  -13.8101   -7.5911 N   0  0  0  0  0  0  0  0  0  0  0  0
   -5.2101  -13.1258   -6.5762 C   0  0  0  0  0  0  0  0  0  0  0  0
   -5.5166  -11.7910   -6.2907 C   0  0  0  0  0  0  0  0  0  0  0  0
   -4.0093   -9.6478   -5.8111 H   0  0  0  0  0  0  0  0  0  0  0  0
   -3.3643   -7.4536   -4.7231 H   0  0  0  0  0  0  0  0  0  0  0  0
   -4.6806   -4.8591   -4.4356 H   0  0  0  0  0  0  0  0  0  0  0  0
   -6.7822   -3.6180   -4.9374 H   0  0  0  0  0  0  0  0  0  0  0  0
   -8.6567   -4.7513   -6.1328 H   0  0  0  0  0  0  0  0  0  0  0  0
   -8.4397   -7.1439   -6.8339 H   0  0  0  0  0  0  0  0  0  0  0  0
   -7.7538   -9.3781   -7.2237 H   0  0  0  0  0  0  0  0  0  0  0  0
   -7.7729  -11.3606   -8.7989 H   0  0  0  0  0  0  0  0  0  0  0  0
   -7.1467  -13.7632   -9.1357 H   0  0  0  0  0  0  0  0  0  0  0  0
   -4.4915  -13.6530   -5.9727 H   0  0  0  0  0  0  0  0  0  0  0  0
   -5.0640  -11.3463   -5.4177 H   0  0  0  0  0  0  0  0  0  0  0  0
  1  9  1  0
  1  2  2  0
  1 17  1  0
  2  3  1  0
  2 18  1  0
  3  8  2  0
  3  4  1  0
  4  5  2  0
  4 19  1  0
  5  6  1  0
  5 20  1  0
  6  7  2  0
  6 21  1  0
  7  8  1  0
  7 22  1  0
  8  9  1  0
  9 10  2  3
 10 11  1  0
 10 23  1  0
 11 16  1  0
 11 12  2  0
 12 13  1  0
 12 24  1  0
 13 14  2  0
 13 25  1  0
 14 15  1  0
 15 16  2  0
 15 26  1  0
 16 27  1  0
M  END
>  <i_m_ct_stereo_status>  (153) 
1

>  <s_m_source_file>  (153) 
/var/tmp/pbs.5076255.sched01/tmpkddd28mm/459jwin2qj.sdf

>  <i_m_source_file_index>  (153) 
20

>  <i_lp_mmshare_version>  (153) 
48012

>  <i_f3d_flags>  (153) 
0

>  <s_epik_input>  (153) 
W2NIXTFbY0hdW2NIXVtjSF1jKGMxMilDKFxbQ0hdPVtDSF0yKT1bQ0hdXGMzW2NIXVtjSF1uW2NIXVtjSF0z

>  <s_epik_cmdline>  (153) 
J2VwaWtfcHl0aG9uJywgJy1waHQnLCAnMi4wJywgJy1waCcsICc3LjAnLCAnLXRuJywgJzgnLCAnLW1hJywgJzIwMCcsICctaW1hZScsICc8aW5maWxlLm1hZT4nLCAnLW9tYWUnLCAnPG91dGZpbGUubWFlPic=

>  <r_epik_Ionization_Penalty>  (153) 
0.00166079

>  <r_epik_Ionization_Penalty_Charging>  (153) 
0

>  <r_epik_Ionization_Penalty_Neutral>  (153) 
0.00166079

>  <r_epik_State_Penalty>  (153) 
0.00112032

>  <r_epik_Charging_Adjusted_Penalty>  (153) 
0.00112032

>  <i_epik_Tot_Q>  (153) 
0

>  <i_epik_Tot_abs_Q>  (153) 
0

>  <s_lp_Force_Field>  (153) 
OPLS3e

>  <r_lp_Energy>  (153) 
24.6087

>  <b_lp_Chiralities_Consistent>  (153) 
1

>  <s_lp_Variant>  (153) 
49:0-1

>  <s_i_glide_gridfile>  (153) 
pfpi4k_grid

>  <i_i_glide_lignum>  (153) 
20

>  <i_i_glide_rotatable_bonds>  (153) 
1

>  <r_i_docking_score>  (153) 
-6.46544

>  <r_i_glide_ligand_efficiency>  (153) 
-0.40409

>  <r_i_glide_ligand_efficiency_sa>  (153) 
-1.01824

>  <r_i_glide_ligand_efficiency_ln>  (153) 
-1.71379

>  <r_i_glide_gscore>  (153) 
-6.46544

>  <r_i_glide_lipo>  (153) 
-2.39716

>  <r_i_glide_hbond>  (153) 
0

>  <r_i_glide_metal>  (153) 
-0

>  <r_i_glide_rewards>  (153) 
-2.67629

>  <r_i_glide_evdw>  (153) 
-23.8523

>  <r_i_glide_ecoul>  (153) 
-1.3291

>  <r_i_glide_erotb>  (153) 
0

>  <r_i_glide_esite>  (153) 
0

>  <r_i_glide_emodel>  (153) 
-35.0762

>  <r_i_glide_energy>  (153) 
-25.1814

>  <r_i_glide_einternal>  (153) 
0.905313

>  <r_i_glide_intrahb_reward>  (153) 
-0

>  <i_i_glide_confnum>  (153) 
2

>  <i_i_glide_posenum>  (153) 
3

>  <r_i_glide_eff_state_penalty>  (153) 
0

>  <ligand_id>  (153) 
49

>  <original_smiles>  (153) 
C1=Cc2ccccc2C1=Cc1ccncc1

>  <smiles>  (153) 
[H]C1=C([H])c2c([H])c([H])c([H])c([H])c2C1=C([H])c1c([H])c([H])nc([H])c1[H]

$$$$
49:0:2
     RDKit          3D

 27 29  0  0  1  0  0  0  0  0999 V2000
   -6.1172   -8.9435   -5.6371 C   0  0  0  0  0  0  0  0  0  0  0  0
   -5.3625   -7.9768   -5.1009 C   0  0  0  0  0  0  0  0  0  0  0  0
   -5.9982   -6.7002   -5.3584 C   0  0  0  0  0  0  0  0  0  0  0  0
   -5.6156   -5.4234   -4.9332 C   0  0  0  0  0  0  0  0  0  0  0  0
   -6.4463   -4.3463   -5.2903 C   0  0  0  0  0  0  0  0  0  0  0  0
   -7.6204   -4.5480   -6.0637 C   0  0  0  0  0  0  0  0  0  0  0  0
   -7.9969   -5.8497   -6.4815 C   0  0  0  0  0  0  0  0  0  0  0  0
   -7.1581   -6.9228   -6.1004 C   0  0  0  0  0  0  0  0  0  0  0  0
   -7.2758   -8.3633   -6.3321 C   0  0  0  0  0  0  0  0  0  0  0  0
   -8.2742   -8.9798   -7.0034 C   0  0  0  0  0  0  0  0  0  0  0  0
   -8.4992  -10.4196   -7.2974 C   0  0  0  0  0  0  0  0  0  0  0  0
   -7.5019  -11.4117   -7.1422 C   0  0  0  0  0  0  0  0  0  0  0  0
   -7.8502  -12.7639   -7.3620 C   0  0  0  0  0  0  0  0  0  0  0  0
   -9.0729  -13.1697   -7.7491 N   0  0  0  0  0  0  0  0  0  0  0  0
  -10.0195  -12.2234   -7.9439 C   0  0  0  0  0  0  0  0  0  0  0  0
   -9.7820  -10.8491   -7.7145 C   0  0  0  0  0  0  0  0  0  0  0  0
   -5.8682   -9.9795   -5.4954 H   0  0  0  0  0  0  0  0  0  0  0  0
   -4.4561   -8.1041   -4.5201 H   0  0  0  0  0  0  0  0  0  0  0  0
   -4.7168   -5.2806   -4.3474 H   0  0  0  0  0  0  0  0  0  0  0  0
   -6.1483   -3.3568   -4.9665 H   0  0  0  0  0  0  0  0  0  0  0  0
   -8.2277   -3.6939   -6.3415 H   0  0  0  0  0  0  0  0  0  0  0  0
   -8.8976   -6.0093   -7.0550 H   0  0  0  0  0  0  0  0  0  0  0  0
   -9.0359   -8.3301   -7.4069 H   0  0  0  0  0  0  0  0  0  0  0  0
   -6.4807  -11.2033   -6.8993 H   0  0  0  0  0  0  0  0  0  0  0  0
   -7.0970  -13.5215   -7.2147 H   0  0  0  0  0  0  0  0  0  0  0  0
  -10.9812  -12.5829   -8.2794 H   0  0  0  0  0  0  0  0  0  0  0  0
  -10.5931  -10.1517   -7.8663 H   0  0  0  0  0  0  0  0  0  0  0  0
  1  9  1  0
  1  2  2  0
  1 17  1  0
  2  3  1  0
  2 18  1  0
  3  8  2  0
  3  4  1  0
  4  5  2  0
  4 19  1  0
  5  6  1  0
  5 20  1  0
  6  7  2  0
  6 21  1  0
  7  8  1  0
  7 22  1  0
  8  9  1  0
  9 10  2  3
 10 11  1  0
 10 23  1  0
 11 16  1  0
 11 12  2  0
 12 13  1  0
 12 24  1  0
 13 14  2  0
 13 25  1  0
 14 15  1  0
 15 16  2  0
 15 26  1  0
 16 27  1  0
M  END
>  <i_m_ct_stereo_status>  (154) 
1

>  <s_m_source_file>  (154) 
/var/tmp/pbs.5076255.sched01/tmpkddd28mm/459jwin2qj.sdf

>  <i_m_source_file_index>  (154) 
20

>  <i_lp_mmshare_version>  (154) 
48012

>  <i_f3d_flags>  (154) 
0

>  <s_epik_input>  (154) 
W2NIXTFbY0hdW2NIXVtjSF1jKGMxMilDKFxbQ0hdPVtDSF0yKT1bQ0hdXGMzW2NIXVtjSF1uW2NIXVtjSF0z

>  <s_epik_cmdline>  (154) 
J2VwaWtfcHl0aG9uJywgJy1waHQnLCAnMi4wJywgJy1waCcsICc3LjAnLCAnLXRuJywgJzgnLCAnLW1hJywgJzIwMCcsICctaW1hZScsICc8aW5maWxlLm1hZT4nLCAnLW9tYWUnLCAnPG91dGZpbGUubWFlPic=

>  <r_epik_Ionization_Penalty>  (154) 
0.00166079

>  <r_epik_Ionization_Penalty_Charging>  (154) 
0

>  <r_epik_Ionization_Penalty_Neutral>  (154) 
0.00166079

>  <r_epik_State_Penalty>  (154) 
0.00112032

>  <r_epik_Charging_Adjusted_Penalty>  (154) 
0.00112032

>  <i_epik_Tot_Q>  (154) 
0

>  <i_epik_Tot_abs_Q>  (154) 
0

>  <s_lp_Force_Field>  (154) 
OPLS3e

>  <r_lp_Energy>  (154) 
24.6087

>  <b_lp_Chiralities_Consistent>  (154) 
1

>  <s_lp_Variant>  (154) 
49:0-1

>  <s_i_glide_gridfile>  (154) 
pfpi4k_grid

>  <i_i_glide_lignum>  (154) 
20

>  <i_i_glide_rotatable_bonds>  (154) 
1

>  <r_i_docking_score>  (154) 
-6.42646

>  <r_i_glide_ligand_efficiency>  (154) 
-0.401654

>  <r_i_glide_ligand_efficiency_sa>  (154) 
-1.0121

>  <r_i_glide_ligand_efficiency_ln>  (154) 
-1.70346

>  <r_i_glide_gscore>  (154) 
-6.42646

>  <r_i_glide_lipo>  (154) 
-2.72185

>  <r_i_glide_hbond>  (154) 
0

>  <r_i_glide_metal>  (154) 
-0

>  <r_i_glide_rewards>  (154) 
-2.51796

>  <r_i_glide_evdw>  (154) 
-21.9849

>  <r_i_glide_ecoul>  (154) 
-0.582685

>  <r_i_glide_erotb>  (154) 
0

>  <r_i_glide_esite>  (154) 
0

>  <r_i_glide_emodel>  (154) 
-32.6431

>  <r_i_glide_energy>  (154) 
-22.5676

>  <r_i_glide_einternal>  (154) 
0.250571

>  <r_i_glide_intrahb_reward>  (154) 
-0

>  <i_i_glide_confnum>  (154) 
2

>  <i_i_glide_posenum>  (154) 
24

>  <r_i_glide_eff_state_penalty>  (154) 
0

>  <ligand_id>  (154) 
49

>  <original_smiles>  (154) 
C1=Cc2ccccc2C1=Cc1ccncc1

>  <smiles>  (154) 
[H]C1=C([H])c2c([H])c([H])c([H])c([H])c2C1=C([H])c1c([H])c([H])nc([H])c1[H]

$$$$
49:1:0
     RDKit          3D

 27 29  0  0  1  0  0  0  0  0999 V2000
   -5.2058   -8.6023   -6.0242 C   0  0  0  0  0  0  0  0  0  0  0  0
   -5.0561   -7.6015   -5.1380 C   0  0  0  0  0  0  0  0  0  0  0  0
   -6.0985   -6.6047   -5.3805 C   0  0  0  0  0  0  0  0  0  0  0  0
   -6.3491   -5.3842   -4.7238 C   0  0  0  0  0  0  0  0  0  0  0  0
   -7.4414   -4.6017   -5.1588 C   0  0  0  0  0  0  0  0  0  0  0  0
   -8.2629   -5.0604   -6.2178 C   0  0  0  0  0  0  0  0  0  0  0  0
   -8.0162   -6.2990   -6.8429 C   0  0  0  0  0  0  0  0  0  0  0  0
   -6.8906   -7.0535   -6.4468 C   0  0  0  0  0  0  0  0  0  0  0  0
   -6.3183   -8.3267   -6.9223 C   0  0  0  0  0  0  0  0  0  0  0  0
   -6.6632   -9.1285   -7.9551 C   0  0  0  0  0  0  0  0  0  0  0  0
   -7.6458   -8.9017   -9.0268 C   0  0  0  0  0  0  0  0  0  0  0  0
   -7.9306   -7.6148   -9.5228 C   0  0  0  0  0  0  0  0  0  0  0  0
   -8.9788   -7.4561  -10.4486 C   0  0  0  0  0  0  0  0  0  0  0  0
   -9.6584   -8.4864  -10.9652 N   0  0  0  0  0  0  0  0  0  0  0  0
   -9.3373   -9.7351  -10.5737 C   0  0  0  0  0  0  0  0  0  0  0  0
   -8.3443   -9.9841   -9.5980 C   0  0  0  0  0  0  0  0  0  0  0  0
   -4.5754   -9.4787   -6.0623 H   0  0  0  0  0  0  0  0  0  0  0  0
   -4.3110   -7.5447   -4.3494 H   0  0  0  0  0  0  0  0  0  0  0  0
   -5.7399   -5.0619   -3.9037 H   0  0  0  0  0  0  0  0  0  0  0  0
   -7.6456   -3.6605   -4.6695 H   0  0  0  0  0  0  0  0  0  0  0  0
   -9.0896   -4.4485   -6.5256 H   0  0  0  0  0  0  0  0  0  0  0  0
   -8.6858   -6.6509   -7.6059 H   0  0  0  0  0  0  0  0  0  0  0  0
   -6.0876  -10.0423   -8.0672 H   0  0  0  0  0  0  0  0  0  0  0  0
   -7.4287   -6.7378   -9.1158 H   0  0  0  0  0  0  0  0  0  0  0  0
   -9.2810   -6.4676  -10.7613 H   0  0  0  0  0  0  0  0  0  0  0  0
   -9.8634  -10.5506  -11.0522 H   0  0  0  0  0  0  0  0  0  0  0  0
   -8.1467  -11.0039   -9.2891 H   0  0  0  0  0  0  0  0  0  0  0  0
  1  9  1  0
  1  2  2  0
  1 17  1  0
  2  3  1  0
  2 18  1  0
  3  8  2  0
  3  4  1  0
  4  5  2  0
  4 19  1  0
  5  6  1  0
  5 20  1  0
  6  7  2  0
  6 21  1  0
  7  8  1  0
  7 22  1  0
  8  9  1  0
  9 10  2  3
 10 11  1  0
 10 23  1  0
 11 16  1  0
 11 12  2  0
 12 13  1  0
 12 24  1  0
 13 14  2  0
 13 25  1  0
 14 15  1  0
 15 16  2  0
 15 26  1  0
 16 27  1  0
M  END
>  <i_m_ct_stereo_status>  (155) 
1

>  <s_m_source_file>  (155) 
/var/tmp/pbs.5076255.sched01/tmpkddd28mm/459jwin2qj.sdf

>  <i_m_source_file_index>  (155) 
21

>  <i_lp_mmshare_version>  (155) 
48012

>  <i_f3d_flags>  (155) 
0

>  <s_epik_input>  (155) 
W2NIXTFbY0hdW2NIXVtjSF1jKGMxMilDKFxbQ0hdPVtDSF0yKT1bQ0hdXGMzW2NIXVtjSF1uW2NIXVtjSF0z

>  <s_epik_cmdline>  (155) 
J2VwaWtfcHl0aG9uJywgJy1waHQnLCAnMi4wJywgJy1waCcsICc3LjAnLCAnLXRuJywgJzgnLCAnLW1hJywgJzIwMCcsICctaW1hZScsICc8aW5maWxlLm1hZT4nLCAnLW9tYWUnLCAnPG91dGZpbGUubWFlPic=

>  <r_epik_Ionization_Penalty>  (155) 
0.00166079

>  <r_epik_Ionization_Penalty_Charging>  (155) 
0

>  <r_epik_Ionization_Penalty_Neutral>  (155) 
0.00166079

>  <r_epik_State_Penalty>  (155) 
0.00112032

>  <r_epik_Charging_Adjusted_Penalty>  (155) 
0.00112032

>  <i_epik_Tot_Q>  (155) 
0

>  <i_epik_Tot_abs_Q>  (155) 
0

>  <s_lp_Force_Field>  (155) 
OPLS3e

>  <r_lp_Energy>  (155) 
27.3648

>  <b_lp_Chiralities_Consistent>  (155) 
1

>  <s_lp_Variant>  (155) 
49:0-2

>  <s_i_glide_gridfile>  (155) 
pfpi4k_grid

>  <i_i_glide_lignum>  (155) 
21

>  <i_i_glide_rotatable_bonds>  (155) 
1

>  <r_i_docking_score>  (155) 
-7.0622

>  <r_i_glide_ligand_efficiency>  (155) 
-0.441387

>  <r_i_glide_ligand_efficiency_sa>  (155) 
-1.11223

>  <r_i_glide_ligand_efficiency_ln>  (155) 
-1.87198

>  <r_i_glide_gscore>  (155) 
-7.0622

>  <r_i_glide_lipo>  (155) 
-3.32678

>  <r_i_glide_hbond>  (155) 
0

>  <r_i_glide_metal>  (155) 
-0

>  <r_i_glide_rewards>  (155) 
-2.60084

>  <r_i_glide_evdw>  (155) 
-23.2174

>  <r_i_glide_ecoul>  (155) 
0.175279

>  <r_i_glide_erotb>  (155) 
0

>  <r_i_glide_esite>  (155) 
0

>  <r_i_glide_emodel>  (155) 
-31.724

>  <r_i_glide_energy>  (155) 
-23.0421

>  <r_i_glide_einternal>  (155) 
0.244113

>  <r_i_glide_intrahb_reward>  (155) 
-0

>  <i_i_glide_confnum>  (155) 
2

>  <i_i_glide_posenum>  (155) 
12

>  <r_i_glide_eff_state_penalty>  (155) 
0

>  <ligand_id>  (155) 
49

>  <original_smiles>  (155) 
C1=Cc2ccccc2C1=Cc1ccncc1

>  <smiles>  (155) 
[H]C1=C([H])c2c([H])c([H])c([H])c([H])c2C1=C([H])c1c([H])c([H])nc([H])c1[H]

$$$$
50:0:0
     RDKit          3D

 49 53  0  0  1  0  0  0  0  0999 V2000
    2.8824   -2.5498   -3.5303 C   0  0  0  0  0  0  0  0  0  0  0  0
    3.8216   -2.2816   -2.6091 C   0  0  0  0  0  0  0  0  0  0  0  0
    4.4951   -0.9989   -2.5291 C   0  0  0  0  0  0  0  0  0  0  0  0
    4.2001    0.0302   -3.1316 O   0  0  0  0  0  0  0  0  0  0  0  0
    5.5312   -1.1410   -1.7227 O   0  0  0  0  0  0  0  0  0  0  0  0
    5.8411   -2.4858   -1.3976 C   0  0  1  0  0  0  0  0  0  0  0  0
    6.3516   -2.5963    0.0414 C   0  0  1  0  0  0  0  0  0  0  0  0
    7.6046   -1.9367    0.1197 O   0  0  0  0  0  0  0  0  0  0  0  0
    5.2760   -2.1854    1.1259 C   0  0  2  0  0  0  0  0  0  0  0  0
    5.6062   -0.7061    1.5152 C   0  0  0  0  0  0  0  0  0  0  0  0
    5.2377   -3.1724    2.3395 C   0  0  2  0  0  0  0  0  0  0  0  0
    5.0311   -4.6334    1.7868 C   0  0  0  0  0  0  0  0  0  0  0  0
    4.3647   -4.8267    0.3754 C   0  0  1  0  0  0  0  0  0  0  0  0
    3.5038   -5.9451    0.4618 O   0  0  0  0  0  0  0  0  0  0  0  0
    3.7248   -3.5644   -0.3472 C   0  0  2  0  0  0  0  0  0  0  0  0
    2.2503   -3.8807   -0.7143 C   0  0  0  0  0  0  0  0  0  0  0  0
    4.5186   -3.2342   -1.6625 C   0  0  1  0  0  0  0  0  0  0  0  0
    3.8354   -2.3741    0.6220 C   0  0  2  0  0  0  0  0  0  0  0  0
    3.0378   -1.1879    0.5230 O   0  0  0  0  0  0  0  0  0  0  0  0
    2.6938   -2.1201    1.5763 C   0  0  2  0  0  0  0  0  0  0  0  0
    3.1042   -1.8398    2.9875 C   0  0  0  0  0  0  0  0  0  0  0  0
    2.5346   -1.0073    3.6872 O   0  0  0  0  0  0  0  0  0  0  0  0
    4.2670   -2.7062    3.5230 C   0  0  0  0  0  0  0  0  0  0  0  0
    3.6297   -3.8750    4.3074 C   0  0  0  0  0  0  0  0  0  0  0  0
    5.0611   -1.8912    4.5782 C   0  0  0  0  0  0  0  0  0  0  0  0
    2.4466   -3.5324   -3.6299 H   0  0  0  0  0  0  0  0  0  0  0  0
    2.5341   -1.7801   -4.2072 H   0  0  0  0  0  0  0  0  0  0  0  0
    6.6050   -2.8348   -2.0928 H   0  0  0  0  0  0  0  0  0  0  0  0
    6.6576   -3.6336    0.1634 H   0  0  0  0  0  0  0  0  0  0  0  0
    8.0055   -2.1519    0.9485 H   0  0  0  0  0  0  0  0  0  0  0  0
    4.8606   -0.1940    2.1200 H   0  0  0  0  0  0  0  0  0  0  0  0
    5.7373   -0.0781    0.6335 H   0  0  0  0  0  0  0  0  0  0  0  0
    6.5424   -0.6679    2.0786 H   0  0  0  0  0  0  0  0  0  0  0  0
    6.2173   -3.1753    2.7853 H   0  0  0  0  0  0  0  0  0  0  0  0
    6.0232   -5.0855    1.7096 H   0  0  0  0  0  0  0  0  0  0  0  0
    4.5545   -5.2957    2.5052 H   0  0  0  0  0  0  0  0  0  0  0  0
    5.1539   -5.2060   -0.2774 H   0  0  0  0  0  0  0  0  0  0  0  0
    3.3108   -6.2176   -0.4272 H   0  0  0  0  0  0  0  0  0  0  0  0
    1.6950   -3.0202   -1.0727 H   0  0  0  0  0  0  0  0  0  0  0  0
    1.7320   -4.2959    0.1410 H   0  0  0  0  0  0  0  0  0  0  0  0
    2.1687   -4.6255   -1.5019 H   0  0  0  0  0  0  0  0  0  0  0  0
    4.7124   -4.1545   -2.2166 H   0  0  0  0  0  0  0  0  0  0  0  0
    1.7461   -2.6178    1.4355 H   0  0  0  0  0  0  0  0  0  0  0  0
    4.3842   -4.5545    4.7015 H   0  0  0  0  0  0  0  0  0  0  0  0
    2.9392   -4.4410    3.6792 H   0  0  0  0  0  0  0  0  0  0  0  0
    3.0467   -3.5050    5.1531 H   0  0  0  0  0  0  0  0  0  0  0  0
    5.8284   -2.5102    5.0387 H   0  0  0  0  0  0  0  0  0  0  0  0
    4.4341   -1.5278    5.3934 H   0  0  0  0  0  0  0  0  0  0  0  0
    5.5594   -1.0203    4.1581 H   0  0  0  0  0  0  0  0  0  0  0  0
  1  2  2  0
  1 26  1  0
  1 27  1  0
  2 17  1  0
  2  3  1  0
  3  4  2  0
  3  5  1  0
  5  6  1  0
  6 17  1  0
  6  7  1  0
  6 28  1  6
  7  8  1  0
  7  9  1  0
  7 29  1  1
  8 30  1  0
  9 18  1  0
  9 10  1  1
  9 11  1  0
 10 31  1  0
 10 32  1  0
 10 33  1  0
 11 23  1  0
 11 12  1  0
 11 34  1  1
 12 13  1  0
 12 35  1  0
 12 36  1  0
 13 14  1  0
 13 15  1  0
 13 37  1  6
 14 38  1  0
 15 16  1  6
 15 17  1  0
 15 18  1  0
 16 39  1  0
 16 40  1  0
 16 41  1  0
 17 42  1  6
 18 20  1  0
 18 19  1  6
 19 20  1  0
 20 21  1  0
 20 43  1  1
 21 22  2  0
 21 23  1  0
 23 24  1  0
 23 25  1  0
 24 44  1  0
 24 45  1  0
 24 46  1  0
 25 47  1  0
 25 48  1  0
 25 49  1  0
M  END
>  <i_m_ct_stereo_status>  (156) 
1

>  <s_m_source_file>  (156) 
/var/tmp/pbs.5076255.sched01/tmpkddd28mm/459jwin2qj.sdf

>  <i_m_source_file_index>  (156) 
22

>  <i_lp_mmshare_version>  (156) 
48012

>  <i_f3d_flags>  (156) 
0

>  <s_epik_input>  (156) 
W0NIMl09QzFDKD1PKU9bQ0BASF0oW0NASF0yW09IXSlbQ0BIXTFbQ0BAXTMoW0NIM10pW0NASF0oW09IXSlbQ0gyXVtDQEBIXShbQ0BAXTIoW0NAXTM0NSlbQ0gzXSlDKFtDSDNdKShbQ0gzXSlDKD1PKVtDQEhdNU80

>  <s_epik_cmdline>  (156) 
J2VwaWtfcHl0aG9uJywgJy1waHQnLCAnMi4wJywgJy1waCcsICc3LjAnLCAnLXRuJywgJzgnLCAnLW1hJywgJzIwMCcsICctaW1hZScsICc8aW5maWxlLm1hZT4nLCAnLW9tYWUnLCAnPG91dGZpbGUubWFlPic=

>  <r_lp_tautomer_probability>  (156) 
1

>  <r_epik_Ionization_Penalty>  (156) 
7.2256e-06

>  <r_epik_Ionization_Penalty_Charging>  (156) 
0

>  <r_epik_Ionization_Penalty_Neutral>  (156) 
7.2256e-06

>  <r_epik_State_Penalty>  (156) 
-0

>  <r_epik_Charging_Adjusted_Penalty>  (156) 
0

>  <i_epik_Tot_Q>  (156) 
0

>  <i_epik_Tot_abs_Q>  (156) 
0

>  <s_epik_Chemistry_Notes>  (156) 
This compound has an ester and may undergo hydrolysis at high or low pH.

>  <s_lp_Force_Field>  (156) 
OPLS3e

>  <r_lp_Energy>  (156) 
66.2235

>  <b_lp_Chiralities_Consistent>  (156) 
1

>  <s_lp_Variant>  (156) 
50:0-1

>  <s_i_glide_gridfile>  (156) 
pfpi4k_grid

>  <i_i_glide_lignum>  (156) 
22

>  <i_i_glide_rotatable_bonds>  (156) 
2

>  <r_i_docking_score>  (156) 
-3.79072

>  <r_i_glide_ligand_efficiency>  (156) 
-0.151629

>  <r_i_glide_ligand_efficiency_sa>  (156) 
-0.443365

>  <r_i_glide_ligand_efficiency_ln>  (156) 
-0.898513

>  <r_i_glide_gscore>  (156) 
-3.79072

>  <r_i_glide_lipo>  (156) 
-0.632615

>  <r_i_glide_hbond>  (156) 
-0.226973

>  <r_i_glide_metal>  (156) 
-0

>  <r_i_glide_rewards>  (156) 
-1.0337

>  <r_i_glide_evdw>  (156) 
-27.2323

>  <r_i_glide_ecoul>  (156) 
-3.42609

>  <r_i_glide_erotb>  (156) 
0

>  <r_i_glide_esite>  (156) 
-0.0218973

>  <r_i_glide_emodel>  (156) 
-37.2644

>  <r_i_glide_energy>  (156) 
-30.6584

>  <r_i_glide_einternal>  (156) 
0.667136

>  <r_i_glide_intrahb_reward>  (156) 
-0

>  <i_i_glide_confnum>  (156) 
2

>  <i_i_glide_posenum>  (156) 
2

>  <r_i_glide_eff_state_penalty>  (156) 
0

>  <ligand_id>  (156) 
50

>  <original_smiles>  (156) 
C=C1C(=O)OC2C(O)C3(C)C4CC(O)C(C)(C12)C31OC1C(=O)C4(C)C

>  <smiles>  (156) 
[H]OC1([H])C([H])([H])C2([H])C(C([H])([H])[H])(C([H])([H])[H])C(=O)C3([H])OC34C1(C([H])([H])[H])C1([H])C(=C([H])[H])C(=O)OC1([H])C([H])(O[H])C24C([H])([H])[H]

$$$$
50:0:1
     RDKit          3D

 49 53  0  0  1  0  0  0  0  0999 V2000
    2.9376   -6.9067    5.3444 C   0  0  0  0  0  0  0  0  0  0  0  0
    2.6962   -6.3249    4.1555 C   0  0  0  0  0  0  0  0  0  0  0  0
    1.4578   -5.6166    3.8659 C   0  0  0  0  0  0  0  0  0  0  0  0
    0.6127   -5.2414    4.6764 O   0  0  0  0  0  0  0  0  0  0  0  0
    1.3916   -5.4485    2.5510 O   0  0  0  0  0  0  0  0  0  0  0  0
    2.3878   -6.1446    1.8180 C   0  0  1  0  0  0  0  0  0  0  0  0
    2.8931   -5.3265    0.6238 C   0  0  1  0  0  0  0  0  0  0  0  0
    1.8389   -5.1644   -0.3117 O   0  0  0  0  0  0  0  0  0  0  0  0
    3.6841   -4.0144    1.0269 C   0  0  2  0  0  0  0  0  0  0  0  0
    2.6605   -2.8436    0.9150 C   0  0  0  0  0  0  0  0  0  0  0  0
    4.9679   -3.8032    0.1631 C   0  0  2  0  0  0  0  0  0  0  0  0
    5.8576   -5.0949    0.3038 C   0  0  0  0  0  0  0  0  0  0  0  0
    5.6717   -6.0432    1.5441 C   0  0  1  0  0  0  0  0  0  0  0  0
    6.9579   -6.4871    1.9337 O   0  0  0  0  0  0  0  0  0  0  0  0
    4.7606   -5.5527    2.7475 C   0  0  2  0  0  0  0  0  0  0  0  0
    5.5694   -5.6325    4.0810 C   0  0  0  0  0  0  0  0  0  0  0  0
    3.4772   -6.4649    2.8655 C   0  0  1  0  0  0  0  0  0  0  0  0
    4.3221   -4.1190    2.4236 C   0  0  2  0  0  0  0  0  0  0  0  0
    3.8325   -3.2108    3.4234 O   0  0  0  0  0  0  0  0  0  0  0  0
    5.1739   -2.9780    2.9187 C   0  0  2  0  0  0  0  0  0  0  0  0
    5.4279   -1.9108    1.8990 C   0  0  0  0  0  0  0  0  0  0  0  0
    5.4520   -0.7153    2.1940 O   0  0  0  0  0  0  0  0  0  0  0  0
    5.7004   -2.4058    0.4536 C   0  0  0  0  0  0  0  0  0  0  0  0
    7.2378   -2.4509    0.2947 C   0  0  0  0  0  0  0  0  0  0  0  0
    5.2059   -1.3401   -0.5636 C   0  0  0  0  0  0  0  0  0  0  0  0
    3.8188   -7.5082    5.5144 H   0  0  0  0  0  0  0  0  0  0  0  0
    2.2435   -6.8000    6.1657 H   0  0  0  0  0  0  0  0  0  0  0  0
    1.9390   -7.0716    1.4652 H   0  0  0  0  0  0  0  0  0  0  0  0
    3.5363   -6.0079    0.0759 H   0  0  0  0  0  0  0  0  0  0  0  0
    2.2100   -5.2241   -1.1928 H   0  0  0  0  0  0  0  0  0  0  0  0
    2.9704   -1.8778    1.3092 H   0  0  0  0  0  0  0  0  0  0  0  0
    1.7690   -3.0857    1.4818 H   0  0  0  0  0  0  0  0  0  0  0  0
    2.3815   -2.6774   -0.1288 H   0  0  0  0  0  0  0  0  0  0  0  0
    4.6511   -3.7709   -0.8807 H   0  0  0  0  0  0  0  0  0  0  0  0
    5.6311   -5.7093   -0.5700 H   0  0  0  0  0  0  0  0  0  0  0  0
    6.9152   -4.8970    0.1606 H   0  0  0  0  0  0  0  0  0  0  0  0
    5.2215   -6.9551    1.1514 H   0  0  0  0  0  0  0  0  0  0  0  0
    6.8578   -7.2446    2.4925 H   0  0  0  0  0  0  0  0  0  0  0  0
    5.0435   -5.1609    4.9156 H   0  0  0  0  0  0  0  0  0  0  0  0
    6.5480   -5.1504    4.0172 H   0  0  0  0  0  0  0  0  0  0  0  0
    5.7564   -6.6738    4.3584 H   0  0  0  0  0  0  0  0  0  0  0  0
    3.7726   -7.5134    2.7827 H   0  0  0  0  0  0  0  0  0  0  0  0
    5.9506   -3.1511    3.6474 H   0  0  0  0  0  0  0  0  0  0  0  0
    7.5357   -2.8174   -0.6871 H   0  0  0  0  0  0  0  0  0  0  0  0
    7.6923   -3.0868    1.0553 H   0  0  0  0  0  0  0  0  0  0  0  0
    7.6779   -1.4609    0.4308 H   0  0  0  0  0  0  0  0  0  0  0  0
    5.4472   -1.6251   -1.5879 H   0  0  0  0  0  0  0  0  0  0  0  0
    5.6614   -0.3641   -0.3843 H   0  0  0  0  0  0  0  0  0  0  0  0
    4.1303   -1.1810   -0.5255 H   0  0  0  0  0  0  0  0  0  0  0  0
  1  2  2  0
  1 26  1  0
  1 27  1  0
  2 17  1  0
  2  3  1  0
  3  4  2  0
  3  5  1  0
  5  6  1  0
  6 17  1  0
  6  7  1  0
  6 28  1  6
  7  8  1  0
  7  9  1  0
  7 29  1  6
  8 30  1  0
  9 18  1  0
  9 10  1  1
  9 11  1  0
 10 31  1  0
 10 32  1  0
 10 33  1  0
 11 23  1  0
 11 12  1  0
 11 34  1  6
 12 13  1  0
 12 35  1  0
 12 36  1  0
 13 14  1  0
 13 15  1  0
 13 37  1  6
 14 38  1  0
 15 16  1  1
 15 17  1  0
 15 18  1  0
 16 39  1  0
 16 40  1  0
 16 41  1  0
 17 42  1  6
 18 20  1  0
 18 19  1  1
 19 20  1  0
 20 21  1  0
 20 43  1  1
 21 22  2  0
 21 23  1  0
 23 24  1  0
 23 25  1  0
 24 44  1  0
 24 45  1  0
 24 46  1  0
 25 47  1  0
 25 48  1  0
 25 49  1  0
M  END
>  <i_m_ct_stereo_status>  (157) 
1

>  <s_m_source_file>  (157) 
/var/tmp/pbs.5076255.sched01/tmpkddd28mm/459jwin2qj.sdf

>  <i_m_source_file_index>  (157) 
22

>  <i_lp_mmshare_version>  (157) 
48012

>  <i_f3d_flags>  (157) 
0

>  <s_epik_input>  (157) 
W0NIMl09QzFDKD1PKU9bQ0BASF0oW0NASF0yW09IXSlbQ0BIXTFbQ0BAXTMoW0NIM10pW0NASF0oW09IXSlbQ0gyXVtDQEBIXShbQ0BAXTIoW0NAXTM0NSlbQ0gzXSlDKFtDSDNdKShbQ0gzXSlDKD1PKVtDQEhdNU80

>  <s_epik_cmdline>  (157) 
J2VwaWtfcHl0aG9uJywgJy1waHQnLCAnMi4wJywgJy1waCcsICc3LjAnLCAnLXRuJywgJzgnLCAnLW1hJywgJzIwMCcsICctaW1hZScsICc8aW5maWxlLm1hZT4nLCAnLW9tYWUnLCAnPG91dGZpbGUubWFlPic=

>  <r_lp_tautomer_probability>  (157) 
1

>  <r_epik_Ionization_Penalty>  (157) 
7.2256e-06

>  <r_epik_Ionization_Penalty_Charging>  (157) 
0

>  <r_epik_Ionization_Penalty_Neutral>  (157) 
7.2256e-06

>  <r_epik_State_Penalty>  (157) 
-0

>  <r_epik_Charging_Adjusted_Penalty>  (157) 
0

>  <i_epik_Tot_Q>  (157) 
0

>  <i_epik_Tot_abs_Q>  (157) 
0

>  <s_epik_Chemistry_Notes>  (157) 
This compound has an ester and may undergo hydrolysis at high or low pH.

>  <s_lp_Force_Field>  (157) 
OPLS3e

>  <r_lp_Energy>  (157) 
66.2235

>  <b_lp_Chiralities_Consistent>  (157) 
1

>  <s_lp_Variant>  (157) 
50:0-1

>  <s_i_glide_gridfile>  (157) 
pfpi4k_grid

>  <i_i_glide_lignum>  (157) 
22

>  <i_i_glide_rotatable_bonds>  (157) 
2

>  <r_i_docking_score>  (157) 
-3.51403

>  <r_i_glide_ligand_efficiency>  (157) 
-0.140561

>  <r_i_glide_ligand_efficiency_sa>  (157) 
-0.411003

>  <r_i_glide_ligand_efficiency_ln>  (157) 
-0.83293

>  <r_i_glide_gscore>  (157) 
-3.51403

>  <r_i_glide_lipo>  (157) 
-0.456429

>  <r_i_glide_hbond>  (157) 
0

>  <r_i_glide_metal>  (157) 
-0

>  <r_i_glide_rewards>  (157) 
-1.15054

>  <r_i_glide_evdw>  (157) 
-21.0757

>  <r_i_glide_ecoul>  (157) 
-5.62183

>  <r_i_glide_erotb>  (157) 
0

>  <r_i_glide_esite>  (157) 
-0.0100031

>  <r_i_glide_emodel>  (157) 
-32.3744

>  <r_i_glide_energy>  (157) 
-26.6975

>  <r_i_glide_einternal>  (157) 
1.15702

>  <r_i_glide_intrahb_reward>  (157) 
-0

>  <i_i_glide_confnum>  (157) 
2

>  <i_i_glide_posenum>  (157) 
7

>  <r_i_glide_eff_state_penalty>  (157) 
0

>  <ligand_id>  (157) 
50

>  <original_smiles>  (157) 
C=C1C(=O)OC2C(O)C3(C)C4CC(O)C(C)(C12)C31OC1C(=O)C4(C)C

>  <smiles>  (157) 
[H]OC1([H])C([H])([H])C2([H])C(C([H])([H])[H])(C([H])([H])[H])C(=O)C3([H])OC34C1(C([H])([H])[H])C1([H])C(=C([H])[H])C(=O)OC1([H])C([H])(O[H])C24C([H])([H])[H]

$$$$
50:0:2
     RDKit          3D

 49 53  0  0  1  0  0  0  0  0999 V2000
    2.9523   -2.9227   -3.2521 C   0  0  0  0  0  0  0  0  0  0  0  0
    3.8643   -2.5755   -2.3270 C   0  0  0  0  0  0  0  0  0  0  0  0
    4.5211   -1.2804   -2.3265 C   0  0  0  0  0  0  0  0  0  0  0  0
    4.2110   -0.2960   -2.9980 O   0  0  0  0  0  0  0  0  0  0  0  0
    5.5639   -1.3570   -1.5076 O   0  0  0  0  0  0  0  0  0  0  0  0
    5.8633   -2.6691   -1.0613 C   0  0  1  0  0  0  0  0  0  0  0  0
    6.3309   -2.6734    0.3995 C   0  0  1  0  0  0  0  0  0  0  0  0
    7.5717   -1.9938    0.4760 O   0  0  0  0  0  0  0  0  0  0  0  0
    5.2266   -2.2195    1.4348 C   0  0  2  0  0  0  0  0  0  0  0  0
    5.4972   -0.7050    1.7255 C   0  0  0  0  0  0  0  0  0  0  0  0
    5.1948   -3.1184    2.7129 C   0  0  2  0  0  0  0  0  0  0  0  0
    5.0191   -4.6179    2.2514 C   0  0  0  0  0  0  0  0  0  0  0  0
    4.3937   -4.9249    0.8386 C   0  0  1  0  0  0  0  0  0  0  0  0
    3.5499   -6.0552    0.9885 O   0  0  0  0  0  0  0  0  0  0  0  0
    3.7479   -3.7237    0.0200 C   0  0  2  0  0  0  0  0  0  0  0  0
    2.2918   -4.0911   -0.3573 C   0  0  0  0  0  0  0  0  0  0  0  0
    4.5579   -3.4525   -1.3010 C   0  0  1  0  0  0  0  0  0  0  0  0
    3.8111   -2.4788    0.9187 C   0  0  2  0  0  0  0  0  0  0  0  0
    3.0156   -1.3149    0.7139 O   0  0  0  0  0  0  0  0  0  0  0  0
    2.6326   -2.1786    1.8138 C   0  0  2  0  0  0  0  0  0  0  0  0
    2.9944   -1.8092    3.2167 C   0  0  0  0  0  0  0  0  0  0  0  0
    2.3791   -0.9478    3.8484 O   0  0  0  0  0  0  0  0  0  0  0  0
    4.1725   -2.6001    3.8378 C   0  0  0  0  0  0  0  0  0  0  0  0
    3.5308   -3.7257    4.6823 C   0  0  0  0  0  0  0  0  0  0  0  0
    4.9300   -1.6970    4.8505 C   0  0  0  0  0  0  0  0  0  0  0  0
    2.5380   -3.9171   -3.2985 H   0  0  0  0  0  0  0  0  0  0  0  0
    2.6109   -2.2131   -3.9920 H   0  0  0  0  0  0  0  0  0  0  0  0
    6.6496   -3.0651   -1.7018 H   0  0  0  0  0  0  0  0  0  0  0  0
    6.6467   -3.6929    0.6065 H   0  0  0  0  0  0  0  0  0  0  0  0
    8.2323   -2.5233    0.0674 H   0  0  0  0  0  0  0  0  0  0  0  0
    4.7188   -0.1738    2.2736 H   0  0  0  0  0  0  0  0  0  0  0  0
    5.6334   -0.1392    0.8001 H   0  0  0  0  0  0  0  0  0  0  0  0
    6.4159   -0.6061    2.3090 H   0  0  0  0  0  0  0  0  0  0  0  0
    6.1890   -3.0552    3.1479 H   0  0  0  0  0  0  0  0  0  0  0  0
    6.0208   -5.0571    2.2408 H   0  0  0  0  0  0  0  0  0  0  0  0
    4.5262   -5.2299    3.0028 H   0  0  0  0  0  0  0  0  0  0  0  0
    5.2055   -5.3199    0.2259 H   0  0  0  0  0  0  0  0  0  0  0  0
    4.0705   -6.7833    1.2949 H   0  0  0  0  0  0  0  0  0  0  0  0
    1.7399   -3.2386   -0.7610 H   0  0  0  0  0  0  0  0  0  0  0  0
    1.7722   -4.4830    0.5129 H   0  0  0  0  0  0  0  0  0  0  0  0
    2.2436   -4.8766   -1.1107 H   0  0  0  0  0  0  0  0  0  0  0  0
    4.7758   -4.4040   -1.7867 H   0  0  0  0  0  0  0  0  0  0  0  0
    1.6956   -2.6980    1.6766 H   0  0  0  0  0  0  0  0  0  0  0  0
    4.2864   -4.3612    5.1429 H   0  0  0  0  0  0  0  0  0  0  0  0
    2.8650   -4.3448    4.0756 H   0  0  0  0  0  0  0  0  0  0  0  0
    2.9146   -3.3088    5.4837 H   0  0  0  0  0  0  0  0  0  0  0  0
    5.7161   -2.2507    5.3614 H   0  0  0  0  0  0  0  0  0  0  0  0
    4.2652   -1.3063    5.6226 H   0  0  0  0  0  0  0  0  0  0  0  0
    5.3975   -0.8330    4.3808 H   0  0  0  0  0  0  0  0  0  0  0  0
  1  2  2  0
  1 26  1  0
  1 27  1  0
  2 17  1  0
  2  3  1  0
  3  4  2  0
  3  5  1  0
  5  6  1  0
  6 17  1  0
  6  7  1  0
  6 28  1  6
  7  8  1  0
  7  9  1  0
  7 29  1  1
  8 30  1  0
  9 18  1  0
  9 10  1  1
  9 11  1  0
 10 31  1  0
 10 32  1  0
 10 33  1  0
 11 23  1  0
 11 12  1  0
 11 34  1  1
 12 13  1  0
 12 35  1  0
 12 36  1  0
 13 14  1  0
 13 15  1  0
 13 37  1  6
 14 38  1  0
 15 16  1  6
 15 17  1  0
 15 18  1  0
 16 39  1  0
 16 40  1  0
 16 41  1  0
 17 42  1  6
 18 20  1  0
 18 19  1  6
 19 20  1  0
 20 21  1  0
 20 43  1  1
 21 22  2  0
 21 23  1  0
 23 24  1  0
 23 25  1  0
 24 44  1  0
 24 45  1  0
 24 46  1  0
 25 47  1  0
 25 48  1  0
 25 49  1  0
M  END
>  <i_m_ct_stereo_status>  (158) 
1

>  <s_m_source_file>  (158) 
/var/tmp/pbs.5076255.sched01/tmpkddd28mm/459jwin2qj.sdf

>  <i_m_source_file_index>  (158) 
22

>  <i_lp_mmshare_version>  (158) 
48012

>  <i_f3d_flags>  (158) 
0

>  <s_epik_input>  (158) 
W0NIMl09QzFDKD1PKU9bQ0BASF0oW0NASF0yW09IXSlbQ0BIXTFbQ0BAXTMoW0NIM10pW0NASF0oW09IXSlbQ0gyXVtDQEBIXShbQ0BAXTIoW0NAXTM0NSlbQ0gzXSlDKFtDSDNdKShbQ0gzXSlDKD1PKVtDQEhdNU80

>  <s_epik_cmdline>  (158) 
J2VwaWtfcHl0aG9uJywgJy1waHQnLCAnMi4wJywgJy1waCcsICc3LjAnLCAnLXRuJywgJzgnLCAnLW1hJywgJzIwMCcsICctaW1hZScsICc8aW5maWxlLm1hZT4nLCAnLW9tYWUnLCAnPG91dGZpbGUubWFlPic=

>  <r_lp_tautomer_probability>  (158) 
1

>  <r_epik_Ionization_Penalty>  (158) 
7.2256e-06

>  <r_epik_Ionization_Penalty_Charging>  (158) 
0

>  <r_epik_Ionization_Penalty_Neutral>  (158) 
7.2256e-06

>  <r_epik_State_Penalty>  (158) 
-0

>  <r_epik_Charging_Adjusted_Penalty>  (158) 
0

>  <i_epik_Tot_Q>  (158) 
0

>  <i_epik_Tot_abs_Q>  (158) 
0

>  <s_epik_Chemistry_Notes>  (158) 
This compound has an ester and may undergo hydrolysis at high or low pH.

>  <s_lp_Force_Field>  (158) 
OPLS3e

>  <r_lp_Energy>  (158) 
66.2235

>  <b_lp_Chiralities_Consistent>  (158) 
1

>  <s_lp_Variant>  (158) 
50:0-1

>  <s_i_glide_gridfile>  (158) 
pfpi4k_grid

>  <i_i_glide_lignum>  (158) 
22

>  <i_i_glide_rotatable_bonds>  (158) 
2

>  <r_i_docking_score>  (158) 
-3.10827

>  <r_i_glide_ligand_efficiency>  (158) 
-0.124331

>  <r_i_glide_ligand_efficiency_sa>  (158) 
-0.363545

>  <r_i_glide_ligand_efficiency_ln>  (158) 
-0.736753

>  <r_i_glide_gscore>  (158) 
-3.10827

>  <r_i_glide_lipo>  (158) 
-0.508213

>  <r_i_glide_hbond>  (158) 
-0.0249377

>  <r_i_glide_metal>  (158) 
-0

>  <r_i_glide_rewards>  (158) 
-1.0337

>  <r_i_glide_evdw>  (158) 
-27.1156

>  <r_i_glide_ecoul>  (158) 
-0.964646

>  <r_i_glide_erotb>  (158) 
0

>  <r_i_glide_esite>  (158) 
-0.0409375

>  <r_i_glide_emodel>  (158) 
-33.3228

>  <r_i_glide_energy>  (158) 
-28.0802

>  <r_i_glide_einternal>  (158) 
0.863179

>  <r_i_glide_intrahb_reward>  (158) 
-0

>  <i_i_glide_confnum>  (158) 
1

>  <i_i_glide_posenum>  (158) 
8

>  <r_i_glide_eff_state_penalty>  (158) 
0

>  <ligand_id>  (158) 
50

>  <original_smiles>  (158) 
C=C1C(=O)OC2C(O)C3(C)C4CC(O)C(C)(C12)C31OC1C(=O)C4(C)C

>  <smiles>  (158) 
[H]OC1([H])C([H])([H])C2([H])C(C([H])([H])[H])(C([H])([H])[H])C(=O)C3([H])OC34C1(C([H])([H])[H])C1([H])C(=C([H])[H])C(=O)OC1([H])C([H])(O[H])C24C([H])([H])[H]

$$$$
51:0:0
     RDKit          3D

 48 51  0  0  1  0  0  0  0  0999 V2000
    1.4392    2.6814   10.6927 C   0  0  0  0  0  0  0  0  0  0  0  0
    0.6886    3.2896    9.6540 O   0  0  0  0  0  0  0  0  0  0  0  0
   -0.1732    2.4134    9.0017 C   0  0  2  0  0  0  0  0  0  0  0  0
    0.5747    1.4788    8.2324 O   0  0  0  0  0  0  0  0  0  0  0  0
   -0.1900    0.8668    7.2441 C   0  0  2  0  0  0  0  0  0  0  0  0
    0.2295   -0.3845    6.8319 O   0  0  0  0  0  0  0  0  0  0  0  0
   -0.4608   -0.7795    5.6493 C   0  0  2  0  0  0  0  0  0  0  0  0
   -0.8084   -2.2671    5.7945 C   0  0  0  0  0  0  0  0  0  0  0  0
    0.5470   -0.6177    4.5046 C   0  0  0  0  0  0  0  0  0  0  0  0
    1.3499    0.6750    4.6140 C   0  0  0  0  0  0  0  0  0  0  0  0
    0.3827    1.8593    4.7347 C   0  0  2  0  0  0  0  0  0  0  0  0
    0.9385    3.2496    4.3207 C   0  0  1  0  0  0  0  0  0  0  0  0
    1.6268    3.2379    2.9327 C   0  0  0  0  0  0  0  0  0  0  0  0
   -0.1518    4.3611    4.3887 C   0  0  1  0  0  0  0  0  0  0  0  0
   -1.0471    4.3218    3.2808 O   0  0  0  0  0  0  0  0  0  0  0  0
   -0.9944    4.3362    5.6925 C   0  0  0  0  0  0  0  0  0  0  0  0
   -0.5003    3.2822    6.6857 C   0  0  1  0  0  0  0  0  0  0  0  0
   -1.1251    3.2752    8.0846 C   0  0  1  0  0  0  0  0  0  0  0  0
   -2.6181    2.8134    8.1552 C   0  0  0  0  0  0  0  0  0  0  0  0
   -0.4796    1.8525    6.0623 C   0  0  2  0  0  0  0  0  0  0  0  0
   -1.7504    1.4031    5.6214 O   0  0  0  0  0  0  0  0  0  0  0  0
   -1.7426   -0.1367    5.4236 O   0  0  0  0  0  0  0  0  0  0  0  0
    2.1313    3.3945   11.1396 H   0  0  0  0  0  0  0  0  0  0  0  0
    2.0265    1.8423   10.3227 H   0  0  0  0  0  0  0  0  0  0  0  0
    0.7804    2.3184   11.4815 H   0  0  0  0  0  0  0  0  0  0  0  0
   -0.7536    1.8867    9.7659 H   0  0  0  0  0  0  0  0  0  0  0  0
   -1.1225    0.6272    7.7541 H   0  0  0  0  0  0  0  0  0  0  0  0
   -1.5196   -2.4456    6.6000 H   0  0  0  0  0  0  0  0  0  0  0  0
    0.0842   -2.8643    6.0005 H   0  0  0  0  0  0  0  0  0  0  0  0
   -1.2564   -2.6485    4.8748 H   0  0  0  0  0  0  0  0  0  0  0  0
    1.2800   -1.4289    4.5193 H   0  0  0  0  0  0  0  0  0  0  0  0
    0.0448   -0.6699    3.5397 H   0  0  0  0  0  0  0  0  0  0  0  0
    2.0358    0.6581    5.4696 H   0  0  0  0  0  0  0  0  0  0  0  0
    1.9674    0.7236    3.7167 H   0  0  0  0  0  0  0  0  0  0  0  0
   -0.3227    1.6815    3.9163 H   0  0  0  0  0  0  0  0  0  0  0  0
    1.7170    3.5129    5.0302 H   0  0  0  0  0  0  0  0  0  0  0  0
    0.9738    2.7855    2.1795 H   0  0  0  0  0  0  0  0  0  0  0  0
    2.5584    2.6638    2.9103 H   0  0  0  0  0  0  0  0  0  0  0  0
    1.8664    4.2432    2.5811 H   0  0  0  0  0  0  0  0  0  0  0  0
    0.3550    5.3300    4.3286 H   0  0  0  0  0  0  0  0  0  0  0  0
   -0.5555    4.2264    2.4640 H   0  0  0  0  0  0  0  0  0  0  0  0
   -0.9760    5.3268    6.1530 H   0  0  0  0  0  0  0  0  0  0  0  0
   -2.0469    4.1428    5.4762 H   0  0  0  0  0  0  0  0  0  0  0  0
    0.5266    3.5678    6.8798 H   0  0  0  0  0  0  0  0  0  0  0  0
   -1.0837    4.2862    8.4789 H   0  0  0  0  0  0  0  0  0  0  0  0
   -2.7775    1.8019    7.7786 H   0  0  0  0  0  0  0  0  0  0  0  0
   -3.2508    3.5035    7.5880 H   0  0  0  0  0  0  0  0  0  0  0  0
   -3.0108    2.8554    9.1759 H   0  0  0  0  0  0  0  0  0  0  0  0
  1  2  1  0
  1 23  1  0
  1 24  1  0
  1 25  1  0
  2  3  1  0
  3 18  1  0
  3  4  1  0
  3 26  1  1
  4  5  1  0
  5 20  1  0
  5  6  1  0
  5 27  1  1
  6  7  1  0
  7 22  1  0
  7  8  1  1
  7  9  1  0
  8 28  1  0
  8 29  1  0
  8 30  1  0
  9 10  1  0
  9 31  1  0
  9 32  1  0
 10 11  1  0
 10 33  1  0
 10 34  1  0
 11 20  1  0
 11 12  1  0
 11 35  1  6
 12 13  1  0
 12 14  1  0
 12 36  1  1
 13 37  1  0
 13 38  1  0
 13 39  1  0
 14 15  1  0
 14 16  1  0
 14 40  1  6
 15 41  1  0
 16 17  1  0
 16 42  1  0
 16 43  1  0
 17 18  1  0
 17 20  1  0
 17 44  1  1
 18 19  1  0
 18 45  1  1
 19 46  1  0
 19 47  1  0
 19 48  1  0
 20 21  1  6
 21 22  1  0
M  END
>  <i_m_ct_stereo_status>  (159) 
1

>  <s_m_source_file>  (159) 
/var/tmp/pbs.5076255.sched01/tmpkddd28mm/459jwin2qj.sdf

>  <i_m_source_file_index>  (159) 
23

>  <i_lp_mmshare_version>  (159) 
48012

>  <i_f3d_flags>  (159) 
0

>  <s_epik_input>  (159) 
W0NAQF0xMjNbQ0BASF00T1tDQEBIXShPW0NIM10pW0NASF0oW0NIM10pW0NAQEhdMltDSDJdW0NASF0oW09IXSlbQ0BIXShbQ0gzXSlbQ0BIXTFbQ0gyXVtDSDJdW0NAXShPNCkoW0NIM10pT08z

>  <s_epik_cmdline>  (159) 
J2VwaWtfcHl0aG9uJywgJy1waHQnLCAnMi4wJywgJy1waCcsICc3LjAnLCAnLXRuJywgJzgnLCAnLW1hJywgJzIwMCcsICctaW1hZScsICc8aW5maWxlLm1hZT4nLCAnLW9tYWUnLCAnPG91dGZpbGUubWFlPic=

>  <r_lp_tautomer_probability>  (159) 
1

>  <r_epik_Ionization_Penalty>  (159) 
2.72776e-07

>  <r_epik_Ionization_Penalty_Charging>  (159) 
0

>  <r_epik_Ionization_Penalty_Neutral>  (159) 
2.72776e-07

>  <r_epik_State_Penalty>  (159) 
-0

>  <r_epik_Charging_Adjusted_Penalty>  (159) 
0

>  <i_epik_Tot_Q>  (159) 
0

>  <i_epik_Tot_abs_Q>  (159) 
0

>  <s_epik_Chemistry_Notes>  (159) 
This compound contains an acetal/aminal-like group ( X-CH(R)-Y where X, Y are N, S, or O) that may be acid/base labile, releasing an aldehyde.

>  <s_lp_Force_Field>  (159) 
OPLS3e

>  <r_lp_Energy>  (159) 
60.6412

>  <b_lp_Chiralities_Consistent>  (159) 
1

>  <s_lp_Variant>  (159) 
51:0-1

>  <s_i_glide_gridfile>  (159) 
pfpi4k_grid

>  <i_i_glide_lignum>  (159) 
23

>  <i_i_glide_rotatable_bonds>  (159) 
2

>  <r_i_docking_score>  (159) 
-2.93509

>  <r_i_glide_ligand_efficiency>  (159) 
-0.133413

>  <r_i_glide_ligand_efficiency_sa>  (159) 
-0.373829

>  <r_i_glide_ligand_efficiency_ln>  (159) 
-0.717444

>  <r_i_glide_gscore>  (159) 
-2.93509

>  <r_i_glide_lipo>  (159) 
-0.0854536

>  <r_i_glide_hbond>  (159) 
-0.16

>  <r_i_glide_metal>  (159) 
-0

>  <r_i_glide_rewards>  (159) 
-1.26563

>  <r_i_glide_evdw>  (159) 
-13.8591

>  <r_i_glide_ecoul>  (159) 
-4.43895

>  <r_i_glide_erotb>  (159) 
0

>  <r_i_glide_esite>  (159) 
-0.0652117

>  <r_i_glide_emodel>  (159) 
-21.6175

>  <r_i_glide_energy>  (159) 
-18.298

>  <r_i_glide_einternal>  (159) 
0.3486

>  <r_i_glide_intrahb_reward>  (159) 
-0

>  <i_i_glide_confnum>  (159) 
2

>  <i_i_glide_posenum>  (159) 
9

>  <r_i_glide_eff_state_penalty>  (159) 
0

>  <ligand_id>  (159) 
51

>  <original_smiles>  (159) 
COC1OC2OC3(C)CCC4C(C)C(O)CC(C1C)C24OO3

>  <smiles>  (159) 
[H]OC1([H])C([H])([H])C2([H])C([H])(C([H])([H])[H])C([H])(OC([H])([H])[H])OC3([H])OC4(C([H])([H])[H])OOC32C([H])(C([H])([H])C4([H])[H])C1([H])C([H])([H])[H]

$$$$
51:0:1
     RDKit          3D

 48 51  0  0  1  0  0  0  0  0999 V2000
    4.5219    2.6062    9.1739 C   0  0  0  0  0  0  0  0  0  0  0  0
    4.0820    1.9380    7.9961 O   0  0  0  0  0  0  0  0  0  0  0  0
    2.7830    1.4297    8.0266 C   0  0  2  0  0  0  0  0  0  0  0  0
    2.7014    0.3203    7.1434 O   0  0  0  0  0  0  0  0  0  0  0  0
    1.4039    0.0195    6.7577 C   0  0  2  0  0  0  0  0  0  0  0  0
    1.1528   -1.2713    6.3586 O   0  0  0  0  0  0  0  0  0  0  0  0
   -0.1293   -1.3866    5.7451 C   0  0  2  0  0  0  0  0  0  0  0  0
   -0.7893   -2.6656    6.2542 C   0  0  0  0  0  0  0  0  0  0  0  0
    0.1440   -1.5247    4.2470 C   0  0  0  0  0  0  0  0  0  0  0  0
    1.2328   -0.5761    3.7631 C   0  0  0  0  0  0  0  0  0  0  0  0
    0.8743    0.8566    4.1813 C   0  0  2  0  0  0  0  0  0  0  0  0
    1.5257    1.9974    3.3512 C   0  0  1  0  0  0  0  0  0  0  0  0
    1.3589    1.8082    1.8294 C   0  0  0  0  0  0  0  0  0  0  0  0
    1.0157    3.4045    3.7974 C   0  0  1  0  0  0  0  0  0  0  0  0
   -0.2806    3.6721    3.2753 O   0  0  0  0  0  0  0  0  0  0  0  0
    0.9852    3.6206    5.3284 C   0  0  0  0  0  0  0  0  0  0  0  0
    1.5815    2.4198    6.0903 C   0  0  1  0  0  0  0  0  0  0  0  0
    1.7963    2.5850    7.5950 C   0  0  1  0  0  0  0  0  0  0  0  0
    0.5086    2.6384    8.4558 C   0  0  0  0  0  0  0  0  0  0  0  0
    0.8526    1.0971    5.7422 C   0  0  2  0  0  0  0  0  0  0  0  0
   -0.5266    1.1037    6.0439 O   0  0  0  0  0  0  0  0  0  0  0  0
   -1.0872   -0.3426    6.0845 O   0  0  0  0  0  0  0  0  0  0  0  0
    5.5636    2.9017    9.0591 H   0  0  0  0  0  0  0  0  0  0  0  0
    4.4612    1.9598   10.0482 H   0  0  0  0  0  0  0  0  0  0  0  0
    3.9438    3.5092    9.3668 H   0  0  0  0  0  0  0  0  0  0  0  0
    2.5610    1.0534    9.0312 H   0  0  0  0  0  0  0  0  0  0  0  0
    0.8332    0.0537    7.6920 H   0  0  0  0  0  0  0  0  0  0  0  0
   -0.9768   -2.6345    7.3300 H   0  0  0  0  0  0  0  0  0  0  0  0
   -0.1638   -3.5403    6.0586 H   0  0  0  0  0  0  0  0  0  0  0  0
   -1.7543   -2.8239    5.7604 H   0  0  0  0  0  0  0  0  0  0  0  0
    0.4838   -2.5325    4.0090 H   0  0  0  0  0  0  0  0  0  0  0  0
   -0.7743   -1.3579    3.6825 H   0  0  0  0  0  0  0  0  0  0  0  0
    2.2174   -0.8499    4.1531 H   0  0  0  0  0  0  0  0  0  0  0  0
    1.2753   -0.7044    2.6831 H   0  0  0  0  0  0  0  0  0  0  0  0
   -0.1625    0.9549    3.8530 H   0  0  0  0  0  0  0  0  0  0  0  0
    2.5991    1.9673    3.5391 H   0  0  0  0  0  0  0  0  0  0  0  0
    0.3065    1.6644    1.5591 H   0  0  0  0  0  0  0  0  0  0  0  0
    1.9065    0.9497    1.4273 H   0  0  0  0  0  0  0  0  0  0  0  0
    1.7170    2.6826    1.2785 H   0  0  0  0  0  0  0  0  0  0  0  0
    1.6729    4.1571    3.3617 H   0  0  0  0  0  0  0  0  0  0  0  0
   -0.2094    3.7819    2.3257 H   0  0  0  0  0  0  0  0  0  0  0  0
    1.5389    4.5301    5.5742 H   0  0  0  0  0  0  0  0  0  0  0  0
   -0.0256    3.7852    5.6945 H   0  0  0  0  0  0  0  0  0  0  0  0
    2.6022    2.3500    5.7030 H   0  0  0  0  0  0  0  0  0  0  0  0
    2.3138    3.5232    7.7457 H   0  0  0  0  0  0  0  0  0  0  0  0
   -0.1359    1.7560    8.3600 H   0  0  0  0  0  0  0  0  0  0  0  0
   -0.0999    3.5139    8.1834 H   0  0  0  0  0  0  0  0  0  0  0  0
    0.7239    2.7553    9.5219 H   0  0  0  0  0  0  0  0  0  0  0  0
  1  2  1  0
  1 23  1  0
  1 24  1  0
  1 25  1  0
  2  3  1  0
  3 18  1  0
  3  4  1  0
  3 26  1  1
  4  5  1  0
  5 20  1  0
  5  6  1  0
  5 27  1  1
  6  7  1  0
  7 22  1  0
  7  8  1  1
  7  9  1  0
  8 28  1  0
  8 29  1  0
  8 30  1  0
  9 10  1  0
  9 31  1  0
  9 32  1  0
 10 11  1  0
 10 33  1  0
 10 34  1  0
 11 20  1  0
 11 12  1  0
 11 35  1  6
 12 13  1  0
 12 14  1  0
 12 36  1  6
 13 37  1  0
 13 38  1  0
 13 39  1  0
 14 15  1  0
 14 16  1  0
 14 40  1  6
 15 41  1  0
 16 17  1  0
 16 42  1  0
 16 43  1  0
 17 18  1  0
 17 20  1  0
 17 44  1  6
 18 19  1  0
 18 45  1  6
 19 46  1  0
 19 47  1  0
 19 48  1  0
 20 21  1  1
 21 22  1  0
M  END
>  <i_m_ct_stereo_status>  (160) 
1

>  <s_m_source_file>  (160) 
/var/tmp/pbs.5076255.sched01/tmpkddd28mm/459jwin2qj.sdf

>  <i_m_source_file_index>  (160) 
23

>  <i_lp_mmshare_version>  (160) 
48012

>  <i_f3d_flags>  (160) 
0

>  <s_epik_input>  (160) 
W0NAQF0xMjNbQ0BASF00T1tDQEBIXShPW0NIM10pW0NASF0oW0NIM10pW0NAQEhdMltDSDJdW0NASF0oW09IXSlbQ0BIXShbQ0gzXSlbQ0BIXTFbQ0gyXVtDSDJdW0NAXShPNCkoW0NIM10pT08z

>  <s_epik_cmdline>  (160) 
J2VwaWtfcHl0aG9uJywgJy1waHQnLCAnMi4wJywgJy1waCcsICc3LjAnLCAnLXRuJywgJzgnLCAnLW1hJywgJzIwMCcsICctaW1hZScsICc8aW5maWxlLm1hZT4nLCAnLW9tYWUnLCAnPG91dGZpbGUubWFlPic=

>  <r_lp_tautomer_probability>  (160) 
1

>  <r_epik_Ionization_Penalty>  (160) 
2.72776e-07

>  <r_epik_Ionization_Penalty_Charging>  (160) 
0

>  <r_epik_Ionization_Penalty_Neutral>  (160) 
2.72776e-07

>  <r_epik_State_Penalty>  (160) 
-0

>  <r_epik_Charging_Adjusted_Penalty>  (160) 
0

>  <i_epik_Tot_Q>  (160) 
0

>  <i_epik_Tot_abs_Q>  (160) 
0

>  <s_epik_Chemistry_Notes>  (160) 
This compound contains an acetal/aminal-like group ( X-CH(R)-Y where X, Y are N, S, or O) that may be acid/base labile, releasing an aldehyde.

>  <s_lp_Force_Field>  (160) 
OPLS3e

>  <r_lp_Energy>  (160) 
60.6412

>  <b_lp_Chiralities_Consistent>  (160) 
1

>  <s_lp_Variant>  (160) 
51:0-1

>  <s_i_glide_gridfile>  (160) 
pfpi4k_grid

>  <i_i_glide_lignum>  (160) 
23

>  <i_i_glide_rotatable_bonds>  (160) 
2

>  <r_i_docking_score>  (160) 
-2.85508

>  <r_i_glide_ligand_efficiency>  (160) 
-0.129776

>  <r_i_glide_ligand_efficiency_sa>  (160) 
-0.363639

>  <r_i_glide_ligand_efficiency_ln>  (160) 
-0.697886

>  <r_i_glide_gscore>  (160) 
-2.85508

>  <r_i_glide_lipo>  (160) 
0

>  <r_i_glide_hbond>  (160) 
-0.198064

>  <r_i_glide_metal>  (160) 
-0

>  <r_i_glide_rewards>  (160) 
-1.26563

>  <r_i_glide_evdw>  (160) 
-9.72158

>  <r_i_glide_ecoul>  (160) 
-5.8581

>  <r_i_glide_erotb>  (160) 
0

>  <r_i_glide_esite>  (160) 
-0.0265926

>  <r_i_glide_emodel>  (160) 
-17.2366

>  <r_i_glide_energy>  (160) 
-15.5797

>  <r_i_glide_einternal>  (160) 
3.34361

>  <r_i_glide_intrahb_reward>  (160) 
-0

>  <i_i_glide_confnum>  (160) 
2

>  <i_i_glide_posenum>  (160) 
39

>  <r_i_glide_eff_state_penalty>  (160) 
0

>  <ligand_id>  (160) 
51

>  <original_smiles>  (160) 
COC1OC2OC3(C)CCC4C(C)C(O)CC(C1C)C24OO3

>  <smiles>  (160) 
[H]OC1([H])C([H])([H])C2([H])C([H])(C([H])([H])[H])C([H])(OC([H])([H])[H])OC3([H])OC4(C([H])([H])[H])OOC32C([H])(C([H])([H])C4([H])[H])C1([H])C([H])([H])[H]

$$$$
51:0:2
     RDKit          3D

 48 51  0  0  1  0  0  0  0  0999 V2000
    2.1202    3.4443    6.4634 C   0  0  0  0  0  0  0  0  0  0  0  0
    1.1110    3.3035    7.4624 O   0  0  0  0  0  0  0  0  0  0  0  0
    0.2159    2.2236    7.3673 C   0  0  2  0  0  0  0  0  0  0  0  0
    0.8946    0.9930    7.1193 O   0  0  0  0  0  0  0  0  0  0  0  0
    0.0403   -0.0158    6.6669 C   0  0  2  0  0  0  0  0  0  0  0  0
    0.4583   -1.3071    6.8796 O   0  0  0  0  0  0  0  0  0  0  0  0
   -0.2821   -2.2444    6.1189 C   0  0  2  0  0  0  0  0  0  0  0  0
   -0.5585   -3.4544    7.0191 C   0  0  0  0  0  0  0  0  0  0  0  0
    0.6304   -2.6614    4.9594 C   0  0  0  0  0  0  0  0  0  0  0  0
    1.3808   -1.4795    4.3536 C   0  0  0  0  0  0  0  0  0  0  0  0
    0.3793   -0.3982    3.9715 C   0  0  2  0  0  0  0  0  0  0  0  0
    0.8584    0.6166    2.8870 C   0  0  1  0  0  0  0  0  0  0  0  0
    1.4331   -0.0828    1.6492 C   0  0  0  0  0  0  0  0  0  0  0  0
   -0.2801    1.6145    2.4817 C   0  0  1  0  0  0  0  0  0  0  0  0
   -1.2560    0.9544    1.6800 O   0  0  0  0  0  0  0  0  0  0  0  0
   -1.0340    2.2290    3.6881 C   0  0  0  0  0  0  0  0  0  0  0  0
   -0.4177    1.7909    5.0212 C   0  0  1  0  0  0  0  0  0  0  0  0
   -0.8738    2.5135    6.2842 C   0  0  1  0  0  0  0  0  0  0  0  0
   -2.3334    2.1885    6.7357 C   0  0  0  0  0  0  0  0  0  0  0  0
   -0.4013    0.2491    5.1867 C   0  0  2  0  0  0  0  0  0  0  0  0
   -1.6844   -0.3756    5.1453 O   0  0  0  0  0  0  0  0  0  0  0  0
   -1.6050   -1.8128    5.7110 O   0  0  0  0  0  0  0  0  0  0  0  0
    2.8737    4.1777    6.7851 H   0  0  0  0  0  0  0  0  0  0  0  0
    1.6993    3.7319    5.5035 H   0  0  0  0  0  0  0  0  0  0  0  0
    2.6627    2.5142    6.3210 H   0  0  0  0  0  0  0  0  0  0  0  0
   -0.2485    2.1745    8.3478 H   0  0  0  0  0  0  0  0  0  0  0  0
   -0.8116    0.0254    7.3486 H   0  0  0  0  0  0  0  0  0  0  0  0
   -1.1777   -3.1802    7.8723 H   0  0  0  0  0  0  0  0  0  0  0  0
    0.3745   -3.8683    7.4030 H   0  0  0  0  0  0  0  0  0  0  0  0
   -1.0820   -4.2328    6.4596 H   0  0  0  0  0  0  0  0  0  0  0  0
    1.3886   -3.3629    5.3084 H   0  0  0  0  0  0  0  0  0  0  0  0
    0.0453   -3.1715    4.1936 H   0  0  0  0  0  0  0  0  0  0  0  0
    2.1382   -1.0832    5.0353 H   0  0  0  0  0  0  0  0  0  0  0  0
    1.9181   -1.8896    3.5004 H   0  0  0  0  0  0  0  0  0  0  0  0
   -0.3679   -0.9394    3.3969 H   0  0  0  0  0  0  0  0  0  0  0  0
    1.6987    1.1994    3.2863 H   0  0  0  0  0  0  0  0  0  0  0  0
    0.7219   -0.8182    1.2789 H   0  0  0  0  0  0  0  0  0  0  0  0
    2.3730   -0.6066    1.8149 H   0  0  0  0  0  0  0  0  0  0  0  0
    1.6051    0.6274    0.8395 H   0  0  0  0  0  0  0  0  0  0  0  0
    0.1658    2.4290    1.9039 H   0  0  0  0  0  0  0  0  0  0  0  0
   -1.0079    0.9058    0.7642 H   0  0  0  0  0  0  0  0  0  0  0  0
   -0.9960    3.3177    3.6013 H   0  0  0  0  0  0  0  0  0  0  0  0
   -2.1158    1.9966    3.6428 H   0  0  0  0  0  0  0  0  0  0  0  0
    0.6032    2.1023    4.9431 H   0  0  0  0  0  0  0  0  0  0  0  0
   -0.8416    3.5782    6.0863 H   0  0  0  0  0  0  0  0  0  0  0  0
   -2.5320    1.1377    6.9067 H   0  0  0  0  0  0  0  0  0  0  0  0
   -3.0145    2.5441    5.9742 H   0  0  0  0  0  0  0  0  0  0  0  0
   -2.6316    2.7276    7.6364 H   0  0  0  0  0  0  0  0  0  0  0  0
  1  2  1  0
  1 23  1  0
  1 24  1  0
  1 25  1  0
  2  3  1  0
  3 18  1  0
  3  4  1  0
  3 26  1  1
  4  5  1  0
  5 20  1  0
  5  6  1  0
  5 27  1  1
  6  7  1  0
  7 22  1  0
  7  8  1  1
  7  9  1  0
  8 28  1  0
  8 29  1  0
  8 30  1  0
  9 10  1  0
  9 31  1  0
  9 32  1  0
 10 11  1  0
 10 33  1  0
 10 34  1  0
 11 20  1  0
 11 12  1  0
 11 35  1  6
 12 13  1  0
 12 14  1  0
 12 36  1  1
 13 37  1  0
 13 38  1  0
 13 39  1  0
 14 15  1  0
 14 16  1  0
 14 40  1  6
 15 41  1  0
 16 17  1  0
 16 42  1  0
 16 43  1  0
 17 18  1  0
 17 20  1  0
 17 44  1  6
 18 19  1  0
 18 45  1  6
 19 46  1  0
 19 47  1  0
 19 48  1  0
 20 21  1  1
 21 22  1  0
M  END
>  <i_m_ct_stereo_status>  (161) 
1

>  <s_m_source_file>  (161) 
/var/tmp/pbs.5076255.sched01/tmpkddd28mm/459jwin2qj.sdf

>  <i_m_source_file_index>  (161) 
23

>  <i_lp_mmshare_version>  (161) 
48012

>  <i_f3d_flags>  (161) 
0

>  <s_epik_input>  (161) 
W0NAQF0xMjNbQ0BASF00T1tDQEBIXShPW0NIM10pW0NASF0oW0NIM10pW0NAQEhdMltDSDJdW0NASF0oW09IXSlbQ0BIXShbQ0gzXSlbQ0BIXTFbQ0gyXVtDSDJdW0NAXShPNCkoW0NIM10pT08z

>  <s_epik_cmdline>  (161) 
J2VwaWtfcHl0aG9uJywgJy1waHQnLCAnMi4wJywgJy1waCcsICc3LjAnLCAnLXRuJywgJzgnLCAnLW1hJywgJzIwMCcsICctaW1hZScsICc8aW5maWxlLm1hZT4nLCAnLW9tYWUnLCAnPG91dGZpbGUubWFlPic=

>  <r_lp_tautomer_probability>  (161) 
1

>  <r_epik_Ionization_Penalty>  (161) 
2.72776e-07

>  <r_epik_Ionization_Penalty_Charging>  (161) 
0

>  <r_epik_Ionization_Penalty_Neutral>  (161) 
2.72776e-07

>  <r_epik_State_Penalty>  (161) 
-0

>  <r_epik_Charging_Adjusted_Penalty>  (161) 
0

>  <i_epik_Tot_Q>  (161) 
0

>  <i_epik_Tot_abs_Q>  (161) 
0

>  <s_epik_Chemistry_Notes>  (161) 
This compound contains an acetal/aminal-like group ( X-CH(R)-Y where X, Y are N, S, or O) that may be acid/base labile, releasing an aldehyde.

>  <s_lp_Force_Field>  (161) 
OPLS3e

>  <r_lp_Energy>  (161) 
60.6412

>  <b_lp_Chiralities_Consistent>  (161) 
1

>  <s_lp_Variant>  (161) 
51:0-1

>  <s_i_glide_gridfile>  (161) 
pfpi4k_grid

>  <i_i_glide_lignum>  (161) 
23

>  <i_i_glide_rotatable_bonds>  (161) 
2

>  <r_i_docking_score>  (161) 
-2.67391

>  <r_i_glide_ligand_efficiency>  (161) 
-0.121542

>  <r_i_glide_ligand_efficiency_sa>  (161) 
-0.340564

>  <r_i_glide_ligand_efficiency_ln>  (161) 
-0.653602

>  <r_i_glide_gscore>  (161) 
-2.67391

>  <r_i_glide_lipo>  (161) 
-0.0344352

>  <r_i_glide_hbond>  (161) 
-0.174766

>  <r_i_glide_metal>  (161) 
-0

>  <r_i_glide_rewards>  (161) 
-1.26563

>  <r_i_glide_evdw>  (161) 
-12.9777

>  <r_i_glide_ecoul>  (161) 
-3.27577

>  <r_i_glide_erotb>  (161) 
0

>  <r_i_glide_esite>  (161) 
-0.0588339

>  <r_i_glide_emodel>  (161) 
-16.857

>  <r_i_glide_energy>  (161) 
-16.2534

>  <r_i_glide_einternal>  (161) 
3.65147

>  <r_i_glide_intrahb_reward>  (161) 
-0

>  <i_i_glide_confnum>  (161) 
2

>  <i_i_glide_posenum>  (161) 
15

>  <r_i_glide_eff_state_penalty>  (161) 
0

>  <ligand_id>  (161) 
51

>  <original_smiles>  (161) 
COC1OC2OC3(C)CCC4C(C)C(O)CC(C1C)C24OO3

>  <smiles>  (161) 
[H]OC1([H])C([H])([H])C2([H])C([H])(C([H])([H])[H])C([H])(OC([H])([H])[H])OC3([H])OC4(C([H])([H])[H])OOC32C([H])(C([H])([H])C4([H])[H])C1([H])C([H])([H])[H]

$$$$
52:0:0
     RDKit          3D

 24 26  0  0  1  0  0  0  0  0999 V2000
   -6.9556   -5.0180   -3.2452 C   0  0  0  0  0  0  0  0  0  0  0  0
   -6.4125   -5.4036   -4.5283 N   0  0  0  0  0  0  0  0  0  0  0  0
   -5.0560   -5.4641   -4.7420 C   0  0  0  0  0  0  0  0  0  0  0  0
   -4.6584   -6.5061   -5.4896 C   0  0  0  0  0  0  0  0  0  0  0  0
   -5.8476   -7.2589   -5.9277 C   0  0  2  0  0  0  0  0  0  0  0  0
   -5.6944   -8.7625   -5.9299 C   0  0  0  0  0  0  0  0  0  0  0  0
   -6.7352   -9.6340   -6.3339 C   0  0  0  0  0  0  0  0  0  0  0  0
   -6.5700  -10.9723   -6.3701 N   0  0  0  0  0  0  0  0  0  0  0  0
   -5.3694  -11.4408   -5.9694 C   0  0  0  0  0  0  0  0  0  0  0  0
   -4.3383  -10.5856   -5.5401 C   0  0  0  0  0  0  0  0  0  0  0  0
   -4.5006   -9.2425   -5.5215 N   0  0  0  0  0  0  0  0  0  0  0  0
   -6.9351   -6.5575   -6.7345 C   0  0  0  0  0  0  0  0  0  0  0  0
   -6.9717   -6.5416   -5.2317 C   0  0  2  0  0  0  0  0  0  0  0  0
   -6.5463   -4.0777   -2.8829 H   0  0  0  0  0  0  0  0  0  0  0  0
   -6.7355   -5.7762   -2.4867 H   0  0  0  0  0  0  0  0  0  0  0  0
   -8.0254   -4.8658   -3.3635 H   0  0  0  0  0  0  0  0  0  0  0  0
   -4.4541   -4.6691   -4.3523 H   0  0  0  0  0  0  0  0  0  0  0  0
   -3.6414   -6.6925   -5.8078 H   0  0  0  0  0  0  0  0  0  0  0  0
   -7.7043   -9.2724   -6.6368 H   0  0  0  0  0  0  0  0  0  0  0  0
   -5.2493  -12.5137   -5.9487 H   0  0  0  0  0  0  0  0  0  0  0  0
   -3.3935  -10.9730   -5.1967 H   0  0  0  0  0  0  0  0  0  0  0  0
   -6.7744   -5.5600   -7.1328 H   0  0  0  0  0  0  0  0  0  0  0  0
   -7.6758   -7.1617   -7.2539 H   0  0  0  0  0  0  0  0  0  0  0  0
   -7.7803   -7.0533   -4.7158 H   0  0  0  0  0  0  0  0  0  0  0  0
  1  2  1  0
  1 14  1  0
  1 15  1  0
  1 16  1  0
  2 13  1  0
  2  3  1  0
  3  4  2  0
  3 17  1  0
  4  5  1  0
  4 18  1  0
  5 13  1  0
  5  6  1  6
  5 12  1  0
  6 11  1  0
  6  7  2  0
  7  8  1  0
  7 19  1  0
  8  9  2  0
  9 10  1  0
  9 20  1  0
 10 11  2  0
 10 21  1  0
 12 13  1  0
 12 22  1  0
 12 23  1  0
 13 24  1  6
M  END
>  <i_m_ct_stereo_status>  (162) 
1

>  <s_m_source_file>  (162) 
/var/tmp/pbs.5076255.sched01/tmpkddd28mm/459jwin2qj.sdf

>  <i_m_source_file_index>  (162) 
24

>  <i_lp_mmshare_version>  (162) 
48012

>  <i_f3d_flags>  (162) 
0

>  <s_epik_input>  (162) 
W0NIXTE9W0NIXU4oW0NIM10pW0NAQEhdKFtDSDJdMilbQ0BdMTJjM1tjSF1uW2NIXVtjSF1uMw==

>  <s_epik_cmdline>  (162) 
J2VwaWtfcHl0aG9uJywgJy1waHQnLCAnMi4wJywgJy1waCcsICc3LjAnLCAnLXRuJywgJzgnLCAnLW1hJywgJzIwMCcsICctaW1hZScsICc8aW5maWxlLm1hZT4nLCAnLW9tYWUnLCAnPG91dGZpbGUubWFlPic=

>  <r_lp_tautomer_probability>  (162) 
1

>  <r_epik_Ionization_Penalty>  (162) 
2.1633e-05

>  <r_epik_Ionization_Penalty_Charging>  (162) 
1.52213e-06

>  <r_epik_Ionization_Penalty_Neutral>  (162) 
2.01109e-05

>  <r_epik_State_Penalty>  (162) 
-0

>  <r_epik_Charging_Adjusted_Penalty>  (162) 
1.52213e-06

>  <i_epik_Tot_Q>  (162) 
0

>  <i_epik_Tot_abs_Q>  (162) 
0

>  <s_epik_Chemistry_Notes>  (162) 
This compound has an imine and may undergo hydrolysis.

>  <s_lp_Force_Field>  (162) 
OPLS3e

>  <r_lp_Energy>  (162) 
19.8891

>  <b_lp_Chiralities_Consistent>  (162) 
1

>  <s_lp_Variant>  (162) 
52:0-1

>  <s_i_glide_gridfile>  (162) 
pfpi4k_grid

>  <i_i_glide_lignum>  (162) 
24

>  <i_i_glide_rotatable_bonds>  (162) 
1

>  <r_i_docking_score>  (162) 
-4.64832

>  <r_i_glide_ligand_efficiency>  (162) 
-0.357563

>  <r_i_glide_ligand_efficiency_sa>  (162) 
-0.84075

>  <r_i_glide_ligand_efficiency_ln>  (162) 
-1.30389

>  <r_i_glide_gscore>  (162) 
-4.64832

>  <r_i_glide_lipo>  (162) 
-1.51289

>  <r_i_glide_hbond>  (162) 
0

>  <r_i_glide_metal>  (162) 
-0

>  <r_i_glide_rewards>  (162) 
-2.87808

>  <r_i_glide_evdw>  (162) 
-13.2625

>  <r_i_glide_ecoul>  (162) 
-0.746154

>  <r_i_glide_erotb>  (162) 
0.5177

>  <r_i_glide_esite>  (162) 
0

>  <r_i_glide_emodel>  (162) 
-19.086

>  <r_i_glide_energy>  (162) 
-14.0087

>  <r_i_glide_einternal>  (162) 
2.27367

>  <r_i_glide_intrahb_reward>  (162) 
-0

>  <i_i_glide_confnum>  (162) 
3

>  <i_i_glide_posenum>  (162) 
33

>  <r_i_glide_eff_state_penalty>  (162) 
0

>  <ligand_id>  (162) 
52

>  <original_smiles>  (162) 
CN1C=CC2(c3cnccn3)CC12

>  <smiles>  (162) 
[H]C1=C([H])C2(c3nc([H])c([H])nc3[H])C([H])([H])C2([H])N1C([H])([H])[H]

$$$$
52:0:1
     RDKit          3D

 24 26  0  0  1  0  0  0  0  0999 V2000
    3.0081   -0.7340   -3.4925 C   0  0  0  0  0  0  0  0  0  0  0  0
    4.1270   -1.5107   -2.9966 N   0  0  0  0  0  0  0  0  0  0  0  0
    4.8793   -1.0929   -1.9168 C   0  0  0  0  0  0  0  0  0  0  0  0
    5.2324   -2.0695   -1.0772 C   0  0  0  0  0  0  0  0  0  0  0  0
    4.7136   -3.3543   -1.5879 C   0  0  2  0  0  0  0  0  0  0  0  0
    4.1213   -4.2584   -0.5447 C   0  0  0  0  0  0  0  0  0  0  0  0
    2.7472   -4.2384   -0.1964 C   0  0  0  0  0  0  0  0  0  0  0  0
    2.2231   -5.0759    0.7290 N   0  0  0  0  0  0  0  0  0  0  0  0
    3.0905   -5.9392    1.3040 C   0  0  0  0  0  0  0  0  0  0  0  0
    4.4607   -5.9624    0.9641 C   0  0  0  0  0  0  0  0  0  0  0  0
    4.9842   -5.1203    0.0446 N   0  0  0  0  0  0  0  0  0  0  0  0
    5.1432   -3.8732   -2.9463 C   0  0  0  0  0  0  0  0  0  0  0  0
    3.9499   -2.9516   -2.8375 C   0  0  2  0  0  0  0  0  0  0  0  0
    3.3095    0.2888   -3.7265 H   0  0  0  0  0  0  0  0  0  0  0  0
    2.2212   -0.6771   -2.7414 H   0  0  0  0  0  0  0  0  0  0  0  0
    2.5784   -1.1714   -4.3945 H   0  0  0  0  0  0  0  0  0  0  0  0
    5.1522   -0.0576   -1.8657 H   0  0  0  0  0  0  0  0  0  0  0  0
    5.8612   -1.9739   -0.1995 H   0  0  0  0  0  0  0  0  0  0  0  0
    2.0511   -3.5553   -0.6546 H   0  0  0  0  0  0  0  0  0  0  0  0
    2.6878   -6.6129    2.0479 H   0  0  0  0  0  0  0  0  0  0  0  0
    5.1310   -6.6643    1.4390 H   0  0  0  0  0  0  0  0  0  0  0  0
    6.0343   -3.4505   -3.4089 H   0  0  0  0  0  0  0  0  0  0  0  0
    4.9463   -4.9149   -3.1895 H   0  0  0  0  0  0  0  0  0  0  0  0
    2.9360   -3.3207   -2.9941 H   0  0  0  0  0  0  0  0  0  0  0  0
  1  2  1  0
  1 14  1  0
  1 15  1  0
  1 16  1  0
  2 13  1  0
  2  3  1  0
  3  4  2  0
  3 17  1  0
  4  5  1  0
  4 18  1  0
  5 13  1  0
  5  6  1  1
  5 12  1  0
  6 11  1  0
  6  7  2  0
  7  8  1  0
  7 19  1  0
  8  9  2  0
  9 10  1  0
  9 20  1  0
 10 11  2  0
 10 21  1  0
 12 13  1  0
 12 22  1  0
 12 23  1  0
 13 24  1  1
M  END
>  <i_m_ct_stereo_status>  (163) 
1

>  <s_m_source_file>  (163) 
/var/tmp/pbs.5076255.sched01/tmpkddd28mm/459jwin2qj.sdf

>  <i_m_source_file_index>  (163) 
24

>  <i_lp_mmshare_version>  (163) 
48012

>  <i_f3d_flags>  (163) 
0

>  <s_epik_input>  (163) 
W0NIXTE9W0NIXU4oW0NIM10pW0NAQEhdKFtDSDJdMilbQ0BdMTJjM1tjSF1uW2NIXVtjSF1uMw==

>  <s_epik_cmdline>  (163) 
J2VwaWtfcHl0aG9uJywgJy1waHQnLCAnMi4wJywgJy1waCcsICc3LjAnLCAnLXRuJywgJzgnLCAnLW1hJywgJzIwMCcsICctaW1hZScsICc8aW5maWxlLm1hZT4nLCAnLW9tYWUnLCAnPG91dGZpbGUubWFlPic=

>  <r_lp_tautomer_probability>  (163) 
1

>  <r_epik_Ionization_Penalty>  (163) 
2.1633e-05

>  <r_epik_Ionization_Penalty_Charging>  (163) 
1.52213e-06

>  <r_epik_Ionization_Penalty_Neutral>  (163) 
2.01109e-05

>  <r_epik_State_Penalty>  (163) 
-0

>  <r_epik_Charging_Adjusted_Penalty>  (163) 
1.52213e-06

>  <i_epik_Tot_Q>  (163) 
0

>  <i_epik_Tot_abs_Q>  (163) 
0

>  <s_epik_Chemistry_Notes>  (163) 
This compound has an imine and may undergo hydrolysis.

>  <s_lp_Force_Field>  (163) 
OPLS3e

>  <r_lp_Energy>  (163) 
19.8891

>  <b_lp_Chiralities_Consistent>  (163) 
1

>  <s_lp_Variant>  (163) 
52:0-1

>  <s_i_glide_gridfile>  (163) 
pfpi4k_grid

>  <i_i_glide_lignum>  (163) 
24

>  <i_i_glide_rotatable_bonds>  (163) 
1

>  <r_i_docking_score>  (163) 
-3.39715

>  <r_i_glide_ligand_efficiency>  (163) 
-0.261319

>  <r_i_glide_ligand_efficiency_sa>  (163) 
-0.614449

>  <r_i_glide_ligand_efficiency_ln>  (163) 
-0.952931

>  <r_i_glide_gscore>  (163) 
-3.39715

>  <r_i_glide_lipo>  (163) 
-0.343173

>  <r_i_glide_hbond>  (163) 
-0.0192425

>  <r_i_glide_metal>  (163) 
-0

>  <r_i_glide_rewards>  (163) 
-2.26112

>  <r_i_glide_evdw>  (163) 
-17.711

>  <r_i_glide_ecoul>  (163) 
-2.70509

>  <r_i_glide_erotb>  (163) 
0.5177

>  <r_i_glide_esite>  (163) 
0

>  <r_i_glide_emodel>  (163) 
-25.0055

>  <r_i_glide_energy>  (163) 
-20.4161

>  <r_i_glide_einternal>  (163) 
0.000897877

>  <r_i_glide_intrahb_reward>  (163) 
-0

>  <i_i_glide_confnum>  (163) 
3

>  <i_i_glide_posenum>  (163) 
30

>  <r_i_glide_eff_state_penalty>  (163) 
0

>  <ligand_id>  (163) 
52

>  <original_smiles>  (163) 
CN1C=CC2(c3cnccn3)CC12

>  <smiles>  (163) 
[H]C1=C([H])C2(c3nc([H])c([H])nc3[H])C([H])([H])C2([H])N1C([H])([H])[H]

$$$$
52:0:2
     RDKit          3D

 24 26  0  0  1  0  0  0  0  0999 V2000
    1.9936    0.3530   -4.9551 C   0  0  0  0  0  0  0  0  0  0  0  0
    3.0777   -0.4718   -4.4489 N   0  0  0  0  0  0  0  0  0  0  0  0
    4.1209    0.0764   -3.7359 C   0  0  0  0  0  0  0  0  0  0  0  0
    4.5773   -0.6826   -2.7378 C   0  0  0  0  0  0  0  0  0  0  0  0
    3.8442   -1.9573   -2.7086 C   0  0  2  0  0  0  0  0  0  0  0  0
    3.4531   -2.4219   -1.3305 C   0  0  0  0  0  0  0  0  0  0  0  0
    2.6260   -3.5577   -1.1193 C   0  0  0  0  0  0  0  0  0  0  0  0
    2.3476   -4.0288    0.1166 N   0  0  0  0  0  0  0  0  0  0  0  0
    2.8179   -3.2983    1.1487 C   0  0  0  0  0  0  0  0  0  0  0  0
    3.5996   -2.1358    0.9574 C   0  0  0  0  0  0  0  0  0  0  0  0
    3.9327   -1.7141   -0.2852 N   0  0  0  0  0  0  0  0  0  0  0  0
    3.8498   -2.9016   -3.8898 C   0  0  0  0  0  0  0  0  0  0  0  0
    2.8413   -1.7776   -3.8365 C   0  0  2  0  0  0  0  0  0  0  0  0
    2.3608    1.1645   -5.5748 H   0  0  0  0  0  0  0  0  0  0  0  0
    1.4540    0.8603   -4.1571 H   0  0  0  0  0  0  0  0  0  0  0  0
    1.2721   -0.2290   -5.5183 H   0  0  0  0  0  0  0  0  0  0  0  0
    4.4846    1.0361   -4.0420 H   0  0  0  0  0  0  0  0  0  0  0  0
    5.4238   -0.4377   -2.1048 H   0  0  0  0  0  0  0  0  0  0  0  0
    2.1885   -4.1135   -1.9286 H   0  0  0  0  0  0  0  0  0  0  0  0
    2.5487   -3.6275    2.1428 H   0  0  0  0  0  0  0  0  0  0  0  0
    3.9583   -1.5571    1.7969 H   0  0  0  0  0  0  0  0  0  0  0  0
    4.6075   -2.8136   -4.6427 H   0  0  0  0  0  0  0  0  0  0  0  0
    3.4368   -3.9032   -3.7789 H   0  0  0  0  0  0  0  0  0  0  0  0
    1.8023   -2.0336   -3.6560 H   0  0  0  0  0  0  0  0  0  0  0  0
  1  2  1  0
  1 14  1  0
  1 15  1  0
  1 16  1  0
  2 13  1  0
  2  3  1  0
  3  4  2  0
  3 17  1  0
  4  5  1  0
  4 18  1  0
  5 13  1  0
  5  6  1  1
  5 12  1  0
  6 11  1  0
  6  7  2  0
  7  8  1  0
  7 19  1  0
  8  9  2  0
  9 10  1  0
  9 20  1  0
 10 11  2  0
 10 21  1  0
 12 13  1  0
 12 22  1  0
 12 23  1  0
 13 24  1  1
M  END
>  <i_m_ct_stereo_status>  (164) 
1

>  <s_m_source_file>  (164) 
/var/tmp/pbs.5076255.sched01/tmpkddd28mm/459jwin2qj.sdf

>  <i_m_source_file_index>  (164) 
24

>  <i_lp_mmshare_version>  (164) 
48012

>  <i_f3d_flags>  (164) 
0

>  <s_epik_input>  (164) 
W0NIXTE9W0NIXU4oW0NIM10pW0NAQEhdKFtDSDJdMilbQ0BdMTJjM1tjSF1uW2NIXVtjSF1uMw==

>  <s_epik_cmdline>  (164) 
J2VwaWtfcHl0aG9uJywgJy1waHQnLCAnMi4wJywgJy1waCcsICc3LjAnLCAnLXRuJywgJzgnLCAnLW1hJywgJzIwMCcsICctaW1hZScsICc8aW5maWxlLm1hZT4nLCAnLW9tYWUnLCAnPG91dGZpbGUubWFlPic=

>  <r_lp_tautomer_probability>  (164) 
1

>  <r_epik_Ionization_Penalty>  (164) 
2.1633e-05

>  <r_epik_Ionization_Penalty_Charging>  (164) 
1.52213e-06

>  <r_epik_Ionization_Penalty_Neutral>  (164) 
2.01109e-05

>  <r_epik_State_Penalty>  (164) 
-0

>  <r_epik_Charging_Adjusted_Penalty>  (164) 
1.52213e-06

>  <i_epik_Tot_Q>  (164) 
0

>  <i_epik_Tot_abs_Q>  (164) 
0

>  <s_epik_Chemistry_Notes>  (164) 
This compound has an imine and may undergo hydrolysis.

>  <s_lp_Force_Field>  (164) 
OPLS3e

>  <r_lp_Energy>  (164) 
19.8891

>  <b_lp_Chiralities_Consistent>  (164) 
1

>  <s_lp_Variant>  (164) 
52:0-1

>  <s_i_glide_gridfile>  (164) 
pfpi4k_grid

>  <i_i_glide_lignum>  (164) 
24

>  <i_i_glide_rotatable_bonds>  (164) 
1

>  <r_i_docking_score>  (164) 
-3.20974

>  <r_i_glide_ligand_efficiency>  (164) 
-0.246903

>  <r_i_glide_ligand_efficiency_sa>  (164) 
-0.580552

>  <r_i_glide_ligand_efficiency_ln>  (164) 
-0.900361

>  <r_i_glide_gscore>  (164) 
-3.20974

>  <r_i_glide_lipo>  (164) 
-0.288881

>  <r_i_glide_hbond>  (164) 
0

>  <r_i_glide_metal>  (164) 
-0

>  <r_i_glide_rewards>  (164) 
-2.63371

>  <r_i_glide_evdw>  (164) 
-12.9939

>  <r_i_glide_ecoul>  (164) 
-1.03436

>  <r_i_glide_erotb>  (164) 
0.5177

>  <r_i_glide_esite>  (164) 
0

>  <r_i_glide_emodel>  (164) 
-17.0576

>  <r_i_glide_energy>  (164) 
-14.0283

>  <r_i_glide_einternal>  (164) 
2.3518

>  <r_i_glide_intrahb_reward>  (164) 
-0

>  <i_i_glide_confnum>  (164) 
3

>  <i_i_glide_posenum>  (164) 
1

>  <r_i_glide_eff_state_penalty>  (164) 
0

>  <ligand_id>  (164) 
52

>  <original_smiles>  (164) 
CN1C=CC2(c3cnccn3)CC12

>  <smiles>  (164) 
[H]C1=C([H])C2(c3nc([H])c([H])nc3[H])C([H])([H])C2([H])N1C([H])([H])[H]

$$$$
53:0:0
     RDKit          3D

 44 47  0  0  1  0  0  0  0  0999 V2000
    7.1533   -2.5671    0.9958 C   0  0  0  0  0  0  0  0  0  0  0  0
    6.8461   -3.6414   -0.0108 C   0  0  2  0  0  0  0  0  0  0  0  0
    7.0380   -3.0559   -1.3995 C   0  0  0  0  0  0  0  0  0  0  0  0
    5.8928   -2.1011   -1.7040 C   0  0  0  0  0  0  0  0  0  0  0  0
    4.5726   -2.8314   -1.6840 C   0  0  2  0  0  0  0  0  0  0  0  0
    3.4134   -1.9640   -2.1879 C   0  0  1  0  0  0  0  0  0  0  0  0
    3.6172   -1.2615   -3.5547 C   0  0  0  0  0  0  0  0  0  0  0  0
    2.1982   -2.8831   -2.3056 C   0  0  1  0  0  0  0  0  0  0  0  0
    2.2172   -3.7448   -3.4178 O   0  0  0  0  0  0  0  0  0  0  0  0
    1.9102   -3.4926   -1.0734 O   0  0  0  0  0  0  0  0  0  0  0  0
    2.9532   -4.2080   -0.4245 C   0  0  2  0  0  0  0  0  0  0  0  0
    2.5621   -4.7331    0.8341 O   0  0  0  0  0  0  0  0  0  0  0  0
    2.3327   -3.5819    1.7628 O   0  0  0  0  0  0  0  0  0  0  0  0
    3.5567   -2.8926    1.9157 C   0  0  1  0  0  0  0  0  0  0  0  0
    3.2304   -1.6724    2.7736 C   0  0  0  0  0  0  0  0  0  0  0  0
    4.6192   -3.7943    2.5831 C   0  0  0  0  0  0  0  0  0  0  0  0
    5.2363   -4.8431    1.6323 C   0  0  0  0  0  0  0  0  0  0  0  0
    5.4597   -4.3022    0.1964 C   0  0  1  0  0  0  0  0  0  0  0  0
    4.2711   -3.4127   -0.2824 C   0  0  1  0  0  0  0  0  0  0  0  0
    4.0439   -2.3803    0.6771 O   0  0  0  0  0  0  0  0  0  0  0  0
    6.3890   -1.8015    1.1318 H   0  0  0  0  0  0  0  0  0  0  0  0
    8.1092   -2.0742    0.8024 H   0  0  0  0  0  0  0  0  0  0  0  0
    7.2602   -3.1171    1.9198 H   0  0  0  0  0  0  0  0  0  0  0  0
    7.6105   -4.4075    0.1264 H   0  0  0  0  0  0  0  0  0  0  0  0
    8.0028   -2.5487   -1.4710 H   0  0  0  0  0  0  0  0  0  0  0  0
    7.0576   -3.8501   -2.1434 H   0  0  0  0  0  0  0  0  0  0  0  0
    5.8711   -1.2407   -1.0262 H   0  0  0  0  0  0  0  0  0  0  0  0
    6.0232   -1.7668   -2.7139 H   0  0  0  0  0  0  0  0  0  0  0  0
    4.6723   -3.6581   -2.3892 H   0  0  0  0  0  0  0  0  0  0  0  0
    3.1793   -1.1979   -1.4510 H   0  0  0  0  0  0  0  0  0  0  0  0
    3.9303   -1.9673   -4.3215 H   0  0  0  0  0  0  0  0  0  0  0  0
    4.3612   -0.4700   -3.4918 H   0  0  0  0  0  0  0  0  0  0  0  0
    2.6930   -0.7968   -3.8970 H   0  0  0  0  0  0  0  0  0  0  0  0
    1.3634   -2.2511   -2.5244 H   0  0  0  0  0  0  0  0  0  0  0  0
    1.3813   -4.2091   -3.4521 H   0  0  0  0  0  0  0  0  0  0  0  0
    3.1892   -5.0316   -1.0356 H   0  0  0  0  0  0  0  0  0  0  0  0
    2.4627   -1.0671    2.2887 H   0  0  0  0  0  0  0  0  0  0  0  0
    4.1201   -1.0558    2.9057 H   0  0  0  0  0  0  0  0  0  0  0  0
    2.8641   -1.9763    3.7554 H   0  0  0  0  0  0  0  0  0  0  0  0
    5.4053   -3.1521    2.9702 H   0  0  0  0  0  0  0  0  0  0  0  0
    4.2038   -4.2914    3.4602 H   0  0  0  0  0  0  0  0  0  0  0  0
    6.1713   -5.2211    2.0478 H   0  0  0  0  0  0  0  0  0  0  0  0
    4.5900   -5.7198    1.5935 H   0  0  0  0  0  0  0  0  0  0  0  0
    5.4895   -5.1794   -0.4532 H   0  0  0  0  0  0  0  0  0  0  0  0
  1  2  1  0
  1 21  1  0
  1 22  1  0
  1 23  1  0
  2 18  1  0
  2  3  1  0
  2 24  1  1
  3  4  1  0
  3 25  1  0
  3 26  1  0
  4  5  1  0
  4 27  1  0
  4 28  1  0
  5 19  1  0
  5  6  1  0
  5 29  1  6
  6  7  1  0
  6  8  1  0
  6 30  1  1
  7 31  1  0
  7 32  1  0
  7 33  1  0
  8  9  1  0
  8 10  1  0
  8 34  1  6
  9 35  1  0
 10 11  1  0
 11 19  1  0
 11 12  1  0
 11 36  1  6
 12 13  1  0
 13 14  1  0
 14 20  1  0
 14 15  1  1
 14 16  1  0
 15 37  1  0
 15 38  1  0
 15 39  1  0
 16 17  1  0
 16 40  1  0
 16 41  1  0
 17 18  1  0
 17 42  1  0
 17 43  1  0
 18 19  1  0
 18 44  1  6
 19 20  1  1
M  END
>  <i_m_ct_stereo_status>  (165) 
1

>  <s_m_source_file>  (165) 
/var/tmp/pbs.5076255.sched01/tmpkddd28mm/459jwin2qj.sdf

>  <i_m_source_file_index>  (165) 
25

>  <i_lp_mmshare_version>  (165) 
48012

>  <i_f3d_flags>  (165) 
0

>  <s_epik_input>  (165) 
W0NAXTEyM1tDQEBIXTRbQ0gyXVtDSDJdW0NAQEhdKFtDSDNdKVtDQEhdMltDSDJdW0NIMl1bQ0BdKE8zKShbQ0gzXSlPT1tDQEhdMU9bQ0BIXShbT0hdKVtDQEBIXTRbQ0gzXQ==

>  <s_epik_cmdline>  (165) 
J2VwaWtfcHl0aG9uJywgJy1waHQnLCAnMi4wJywgJy1waCcsICc3LjAnLCAnLXRuJywgJzgnLCAnLW1hJywgJzIwMCcsICctaW1hZScsICc8aW5maWxlLm1hZT4nLCAnLW9tYWUnLCAnPG91dGZpbGUubWFlPic=

>  <r_lp_tautomer_probability>  (165) 
1

>  <r_epik_Ionization_Penalty>  (165) 
3.67801e-07

>  <r_epik_Ionization_Penalty_Charging>  (165) 
0

>  <r_epik_Ionization_Penalty_Neutral>  (165) 
3.67801e-07

>  <r_epik_State_Penalty>  (165) 
-0

>  <r_epik_Charging_Adjusted_Penalty>  (165) 
0

>  <i_epik_Tot_Q>  (165) 
0

>  <i_epik_Tot_abs_Q>  (165) 
0

>  <s_epik_Chemistry_Notes>  (165) 
This compound contains an acetal/aminal-like group ( X-CH(R)-Y where X, Y are N, S, or O) that may be acid/base labile, releasing an aldehyde.

>  <s_lp_Force_Field>  (165) 
OPLS3e

>  <r_lp_Energy>  (165) 
19.469

>  <b_lp_Chiralities_Consistent>  (165) 
1

>  <s_lp_Variant>  (165) 
53:0-1

>  <s_i_glide_gridfile>  (165) 
pfpi4k_grid

>  <i_i_glide_lignum>  (165) 
25

>  <i_i_glide_rotatable_bonds>  (165) 
1

>  <r_i_docking_score>  (165) 
-3.30204

>  <r_i_glide_ligand_efficiency>  (165) 
-0.165102

>  <r_i_glide_ligand_efficiency_sa>  (165) 
-0.448155

>  <r_i_glide_ligand_efficiency_ln>  (165) 
-0.826391

>  <r_i_glide_gscore>  (165) 
-3.30204

>  <r_i_glide_lipo>  (165) 
-0.569867

>  <r_i_glide_hbond>  (165) 
-0.022467

>  <r_i_glide_metal>  (165) 
-0

>  <r_i_glide_rewards>  (165) 
-1.47035

>  <r_i_glide_evdw>  (165) 
-8.25522

>  <r_i_glide_ecoul>  (165) 
-5.23091

>  <r_i_glide_erotb>  (165) 
0

>  <r_i_glide_esite>  (165) 
-0.0419504

>  <r_i_glide_emodel>  (165) 
-16.2294

>  <r_i_glide_energy>  (165) 
-13.4861

>  <r_i_glide_einternal>  (165) 
0.408619

>  <r_i_glide_intrahb_reward>  (165) 
-0

>  <i_i_glide_confnum>  (165) 
1

>  <i_i_glide_posenum>  (165) 
2

>  <r_i_glide_eff_state_penalty>  (165) 
0

>  <ligand_id>  (165) 
53

>  <original_smiles>  (165) 
CC1CCC2C(C)C(O)OC3OOC4(C)CCC1C32O4

>  <smiles>  (165) 
[H]OC1([H])OC2([H])OOC3(C([H])([H])[H])OC24C([H])(C([H])([H])C([H])([H])C([H])(C([H])([H])[H])C4([H])C([H])([H])C3([H])[H])C1([H])C([H])([H])[H]

$$$$
53:0:1
     RDKit          3D

 44 47  0  0  1  0  0  0  0  0999 V2000
    7.8364   -3.2455   -0.7055 C   0  0  0  0  0  0  0  0  0  0  0  0
    7.1285   -3.2394    0.6615 C   0  0  2  0  0  0  0  0  0  0  0  0
    7.3437   -4.5866    1.3717 C   0  0  0  0  0  0  0  0  0  0  0  0
    6.4719   -5.6815    0.7835 C   0  0  0  0  0  0  0  0  0  0  0  0
    4.9973   -5.3066    0.9390 C   0  0  2  0  0  0  0  0  0  0  0  0
    4.0455   -6.4278    0.4846 C   0  0  1  0  0  0  0  0  0  0  0  0
    4.3233   -7.8164    1.0981 C   0  0  0  0  0  0  0  0  0  0  0  0
    2.5928   -5.9965    0.8291 C   0  0  1  0  0  0  0  0  0  0  0  0
    2.3306   -5.9339    2.2127 O   0  0  0  0  0  0  0  0  0  0  0  0
    2.3204   -4.7958    0.1828 O   0  0  0  0  0  0  0  0  0  0  0  0
    3.1546   -3.6909    0.5310 C   0  0  2  0  0  0  0  0  0  0  0  0
    2.7885   -2.5125   -0.1402 O   0  0  0  0  0  0  0  0  0  0  0  0
    2.9064   -2.7885   -1.6161 O   0  0  0  0  0  0  0  0  0  0  0  0
    4.2783   -2.9850   -1.9043 C   0  0  1  0  0  0  0  0  0  0  0  0
    4.3396   -3.3253   -3.3976 C   0  0  0  0  0  0  0  0  0  0  0  0
    5.1106   -1.7153   -1.5938 C   0  0  0  0  0  0  0  0  0  0  0  0
    5.3717   -1.5005   -0.0908 C   0  0  0  0  0  0  0  0  0  0  0  0
    5.6234   -2.8300    0.6607 C   0  0  1  0  0  0  0  0  0  0  0  0
    4.6507   -3.9757    0.2178 C   0  0  1  0  0  0  0  0  0  0  0  0
    4.7988   -4.1102   -1.1938 O   0  0  0  0  0  0  0  0  0  0  0  0
    7.2887   -3.8350   -1.4376 H   0  0  0  0  0  0  0  0  0  0  0  0
    8.8416   -3.6656   -0.6307 H   0  0  0  0  0  0  0  0  0  0  0  0
    7.9647   -2.2422   -1.1039 H   0  0  0  0  0  0  0  0  0  0  0  0
    7.6549   -2.4871    1.2497 H   0  0  0  0  0  0  0  0  0  0  0  0
    8.3979   -4.8673    1.3496 H   0  0  0  0  0  0  0  0  0  0  0  0
    7.0676   -4.5044    2.4198 H   0  0  0  0  0  0  0  0  0  0  0  0
    6.6963   -5.8272   -0.2686 H   0  0  0  0  0  0  0  0  0  0  0  0
    6.7107   -6.6115    1.2983 H   0  0  0  0  0  0  0  0  0  0  0  0
    4.8402   -5.1629    2.0099 H   0  0  0  0  0  0  0  0  0  0  0  0
    4.1210   -6.5315   -0.5989 H   0  0  0  0  0  0  0  0  0  0  0  0
    4.4025   -7.7760    2.1842 H   0  0  0  0  0  0  0  0  0  0  0  0
    5.2529   -8.2359    0.7170 H   0  0  0  0  0  0  0  0  0  0  0  0
    3.5401   -8.5357    0.8543 H   0  0  0  0  0  0  0  0  0  0  0  0
    1.8676   -6.7120    0.4430 H   0  0  0  0  0  0  0  0  0  0  0  0
    3.0245   -5.4472    2.6223 H   0  0  0  0  0  0  0  0  0  0  0  0
    3.0184   -3.4823    1.5844 H   0  0  0  0  0  0  0  0  0  0  0  0
    3.7212   -4.1981   -3.6211 H   0  0  0  0  0  0  0  0  0  0  0  0
    5.3610   -3.5600   -3.6975 H   0  0  0  0  0  0  0  0  0  0  0  0
    3.9782   -2.4981   -4.0124 H   0  0  0  0  0  0  0  0  0  0  0  0
    6.0593   -1.8179   -2.1156 H   0  0  0  0  0  0  0  0  0  0  0  0
    4.6386   -0.8310   -2.0248 H   0  0  0  0  0  0  0  0  0  0  0  0
    6.2001   -0.8083    0.0506 H   0  0  0  0  0  0  0  0  0  0  0  0
    4.5173   -0.9829    0.3452 H   0  0  0  0  0  0  0  0  0  0  0  0
    5.4012   -2.6194    1.7061 H   0  0  0  0  0  0  0  0  0  0  0  0
  1  2  1  0
  1 21  1  0
  1 22  1  0
  1 23  1  0
  2 18  1  0
  2  3  1  0
  2 24  1  1
  3  4  1  0
  3 25  1  0
  3 26  1  0
  4  5  1  0
  4 27  1  0
  4 28  1  0
  5 19  1  0
  5  6  1  0
  5 29  1  1
  6  7  1  0
  6  8  1  0
  6 30  1  6
  7 31  1  0
  7 32  1  0
  7 33  1  0
  8  9  1  0
  8 10  1  0
  8 34  1  6
  9 35  1  0
 10 11  1  0
 11 19  1  0
 11 12  1  0
 11 36  1  1
 12 13  1  0
 13 14  1  0
 14 20  1  0
 14 15  1  6
 14 16  1  0
 15 37  1  0
 15 38  1  0
 15 39  1  0
 16 17  1  0
 16 40  1  0
 16 41  1  0
 17 18  1  0
 17 42  1  0
 17 43  1  0
 18 19  1  0
 18 44  1  1
 19 20  1  6
M  END
>  <i_m_ct_stereo_status>  (166) 
1

>  <s_m_source_file>  (166) 
/var/tmp/pbs.5076255.sched01/tmpkddd28mm/459jwin2qj.sdf

>  <i_m_source_file_index>  (166) 
25

>  <i_lp_mmshare_version>  (166) 
48012

>  <i_f3d_flags>  (166) 
0

>  <s_epik_input>  (166) 
W0NAXTEyM1tDQEBIXTRbQ0gyXVtDSDJdW0NAQEhdKFtDSDNdKVtDQEhdMltDSDJdW0NIMl1bQ0BdKE8zKShbQ0gzXSlPT1tDQEhdMU9bQ0BIXShbT0hdKVtDQEBIXTRbQ0gzXQ==

>  <s_epik_cmdline>  (166) 
J2VwaWtfcHl0aG9uJywgJy1waHQnLCAnMi4wJywgJy1waCcsICc3LjAnLCAnLXRuJywgJzgnLCAnLW1hJywgJzIwMCcsICctaW1hZScsICc8aW5maWxlLm1hZT4nLCAnLW9tYWUnLCAnPG91dGZpbGUubWFlPic=

>  <r_lp_tautomer_probability>  (166) 
1

>  <r_epik_Ionization_Penalty>  (166) 
3.67801e-07

>  <r_epik_Ionization_Penalty_Charging>  (166) 
0

>  <r_epik_Ionization_Penalty_Neutral>  (166) 
3.67801e-07

>  <r_epik_State_Penalty>  (166) 
-0

>  <r_epik_Charging_Adjusted_Penalty>  (166) 
0

>  <i_epik_Tot_Q>  (166) 
0

>  <i_epik_Tot_abs_Q>  (166) 
0

>  <s_epik_Chemistry_Notes>  (166) 
This compound contains an acetal/aminal-like group ( X-CH(R)-Y where X, Y are N, S, or O) that may be acid/base labile, releasing an aldehyde.

>  <s_lp_Force_Field>  (166) 
OPLS3e

>  <r_lp_Energy>  (166) 
19.469

>  <b_lp_Chiralities_Consistent>  (166) 
1

>  <s_lp_Variant>  (166) 
53:0-1

>  <s_i_glide_gridfile>  (166) 
pfpi4k_grid

>  <i_i_glide_lignum>  (166) 
25

>  <i_i_glide_rotatable_bonds>  (166) 
1

>  <r_i_docking_score>  (166) 
-3.27461

>  <r_i_glide_ligand_efficiency>  (166) 
-0.163731

>  <r_i_glide_ligand_efficiency_sa>  (166) 
-0.444433

>  <r_i_glide_ligand_efficiency_ln>  (166) 
-0.819527

>  <r_i_glide_gscore>  (166) 
-3.27461

>  <r_i_glide_lipo>  (166) 
-0.945075

>  <r_i_glide_hbond>  (166) 
-8.899e-05

>  <r_i_glide_metal>  (166) 
-0

>  <r_i_glide_rewards>  (166) 
-1.47035

>  <r_i_glide_evdw>  (166) 
-23.026

>  <r_i_glide_ecoul>  (166) 
2.24596

>  <r_i_glide_erotb>  (166) 
0

>  <r_i_glide_esite>  (166) 
-0.0446842

>  <r_i_glide_emodel>  (166) 
-24.6693

>  <r_i_glide_energy>  (166) 
-20.7801

>  <r_i_glide_einternal>  (166) 
0.00468159

>  <r_i_glide_intrahb_reward>  (166) 
-0

>  <i_i_glide_confnum>  (166) 
2

>  <i_i_glide_posenum>  (166) 
8

>  <r_i_glide_eff_state_penalty>  (166) 
0

>  <ligand_id>  (166) 
53

>  <original_smiles>  (166) 
CC1CCC2C(C)C(O)OC3OOC4(C)CCC1C32O4

>  <smiles>  (166) 
[H]OC1([H])OC2([H])OOC3(C([H])([H])[H])OC24C([H])(C([H])([H])C([H])([H])C([H])(C([H])([H])[H])C4([H])C([H])([H])C3([H])[H])C1([H])C([H])([H])[H]

$$$$
53:0:2
     RDKit          3D

 44 47  0  0  1  0  0  0  0  0999 V2000
    7.8486   -3.2158   -0.7450 C   0  0  0  0  0  0  0  0  0  0  0  0
    7.1207   -3.1887    0.6085 C   0  0  2  0  0  0  0  0  0  0  0  0
    7.3321   -4.5188    1.3480 C   0  0  0  0  0  0  0  0  0  0  0  0
    6.4760   -5.6349    0.7777 C   0  0  0  0  0  0  0  0  0  0  0  0
    4.9968   -5.2661    0.9105 C   0  0  2  0  0  0  0  0  0  0  0  0
    4.0586   -6.4044    0.4700 C   0  0  1  0  0  0  0  0  0  0  0  0
    4.3355   -7.7752    1.1175 C   0  0  0  0  0  0  0  0  0  0  0  0
    2.6012   -5.9745    0.7829 C   0  0  1  0  0  0  0  0  0  0  0  0
    2.3315   -5.9013    2.1616 O   0  0  0  0  0  0  0  0  0  0  0  0
    2.3247   -4.7879    0.1161 O   0  0  0  0  0  0  0  0  0  0  0  0
    3.1550   -3.6742    0.4495 C   0  0  2  0  0  0  0  0  0  0  0  0
    2.7974   -2.5135   -0.2567 O   0  0  0  0  0  0  0  0  0  0  0  0
    2.9257   -2.8234   -1.7231 O   0  0  0  0  0  0  0  0  0  0  0  0
    4.3002   -3.0149   -1.9943 C   0  0  1  0  0  0  0  0  0  0  0  0
    4.3832   -3.3786   -3.4777 C   0  0  0  0  0  0  0  0  0  0  0  0
    5.1225   -1.7340   -1.7031 C   0  0  0  0  0  0  0  0  0  0  0  0
    5.3628   -1.4811   -0.2033 C   0  0  0  0  0  0  0  0  0  0  0  0
    5.6132   -2.7921    0.5809 C   0  0  1  0  0  0  0  0  0  0  0  0
    4.6533   -3.9564    0.1537 C   0  0  1  0  0  0  0  0  0  0  0  0
    4.8215   -4.1192   -1.2531 O   0  0  0  0  0  0  0  0  0  0  0  0
    7.3067   -3.8114   -1.4791 H   0  0  0  0  0  0  0  0  0  0  0  0
    8.8499   -3.6379   -0.6541 H   0  0  0  0  0  0  0  0  0  0  0  0
    7.9827   -2.2211   -1.1618 H   0  0  0  0  0  0  0  0  0  0  0  0
    7.6344   -2.4222    1.1866 H   0  0  0  0  0  0  0  0  0  0  0  0
    8.3881   -4.7947    1.3531 H   0  0  0  0  0  0  0  0  0  0  0  0
    7.0287   -4.4077    2.3848 H   0  0  0  0  0  0  0  0  0  0  0  0
    6.7133   -5.8040   -0.2657 H   0  0  0  0  0  0  0  0  0  0  0  0
    6.7153   -6.5507    1.3182 H   0  0  0  0  0  0  0  0  0  0  0  0
    4.8195   -5.0986    1.9766 H   0  0  0  0  0  0  0  0  0  0  0  0
    4.1506   -6.5283   -0.6113 H   0  0  0  0  0  0  0  0  0  0  0  0
    4.4088   -7.7133    2.2041 H   0  0  0  0  0  0  0  0  0  0  0  0
    5.2708   -8.1966    0.7550 H   0  0  0  0  0  0  0  0  0  0  0  0
    3.5601   -8.5050    0.8792 H   0  0  0  0  0  0  0  0  0  0  0  0
    1.8804   -6.6894    0.3874 H   0  0  0  0  0  0  0  0  0  0  0  0
    2.5942   -6.7276    2.5375 H   0  0  0  0  0  0  0  0  0  0  0  0
    3.0055   -3.4459    1.4948 H   0  0  0  0  0  0  0  0  0  0  0  0
    3.7638   -4.2484   -3.6981 H   0  0  0  0  0  0  0  0  0  0  0  0
    5.4070   -3.6221   -3.7636 H   0  0  0  0  0  0  0  0  0  0  0  0
    4.0329   -2.5621   -4.1148 H   0  0  0  0  0  0  0  0  0  0  0  0
    6.0779   -1.8429   -2.2098 H   0  0  0  0  0  0  0  0  0  0  0  0
    4.6508   -0.8612   -2.1596 H   0  0  0  0  0  0  0  0  0  0  0  0
    6.1867   -0.7826   -0.0668 H   0  0  0  0  0  0  0  0  0  0  0  0
    4.5002   -0.9595    0.2125 H   0  0  0  0  0  0  0  0  0  0  0  0
    5.3778   -2.5616    1.6182 H   0  0  0  0  0  0  0  0  0  0  0  0
  1  2  1  0
  1 21  1  0
  1 22  1  0
  1 23  1  0
  2 18  1  0
  2  3  1  0
  2 24  1  1
  3  4  1  0
  3 25  1  0
  3 26  1  0
  4  5  1  0
  4 27  1  0
  4 28  1  0
  5 19  1  0
  5  6  1  0
  5 29  1  1
  6  7  1  0
  6  8  1  0
  6 30  1  6
  7 31  1  0
  7 32  1  0
  7 33  1  0
  8  9  1  0
  8 10  1  0
  8 34  1  6
  9 35  1  0
 10 11  1  0
 11 19  1  0
 11 12  1  0
 11 36  1  1
 12 13  1  0
 13 14  1  0
 14 20  1  0
 14 15  1  6
 14 16  1  0
 15 37  1  0
 15 38  1  0
 15 39  1  0
 16 17  1  0
 16 40  1  0
 16 41  1  0
 17 18  1  0
 17 42  1  0
 17 43  1  0
 18 19  1  0
 18 44  1  1
 19 20  1  6
M  END
>  <i_m_ct_stereo_status>  (167) 
1

>  <s_m_source_file>  (167) 
/var/tmp/pbs.5076255.sched01/tmpkddd28mm/459jwin2qj.sdf

>  <i_m_source_file_index>  (167) 
25

>  <i_lp_mmshare_version>  (167) 
48012

>  <i_f3d_flags>  (167) 
0

>  <s_epik_input>  (167) 
W0NAXTEyM1tDQEBIXTRbQ0gyXVtDSDJdW0NAQEhdKFtDSDNdKVtDQEhdMltDSDJdW0NIMl1bQ0BdKE8zKShbQ0gzXSlPT1tDQEhdMU9bQ0BIXShbT0hdKVtDQEBIXTRbQ0gzXQ==

>  <s_epik_cmdline>  (167) 
J2VwaWtfcHl0aG9uJywgJy1waHQnLCAnMi4wJywgJy1waCcsICc3LjAnLCAnLXRuJywgJzgnLCAnLW1hJywgJzIwMCcsICctaW1hZScsICc8aW5maWxlLm1hZT4nLCAnLW9tYWUnLCAnPG91dGZpbGUubWFlPic=

>  <r_lp_tautomer_probability>  (167) 
1

>  <r_epik_Ionization_Penalty>  (167) 
3.67801e-07

>  <r_epik_Ionization_Penalty_Charging>  (167) 
0

>  <r_epik_Ionization_Penalty_Neutral>  (167) 
3.67801e-07

>  <r_epik_State_Penalty>  (167) 
-0

>  <r_epik_Charging_Adjusted_Penalty>  (167) 
0

>  <i_epik_Tot_Q>  (167) 
0

>  <i_epik_Tot_abs_Q>  (167) 
0

>  <s_epik_Chemistry_Notes>  (167) 
This compound contains an acetal/aminal-like group ( X-CH(R)-Y where X, Y are N, S, or O) that may be acid/base labile, releasing an aldehyde.

>  <s_lp_Force_Field>  (167) 
OPLS3e

>  <r_lp_Energy>  (167) 
19.469

>  <b_lp_Chiralities_Consistent>  (167) 
1

>  <s_lp_Variant>  (167) 
53:0-1

>  <s_i_glide_gridfile>  (167) 
pfpi4k_grid

>  <i_i_glide_lignum>  (167) 
25

>  <i_i_glide_rotatable_bonds>  (167) 
1

>  <r_i_docking_score>  (167) 
-3.24806

>  <r_i_glide_ligand_efficiency>  (167) 
-0.162403

>  <r_i_glide_ligand_efficiency_sa>  (167) 
-0.44083

>  <r_i_glide_ligand_efficiency_ln>  (167) 
-0.812883

>  <r_i_glide_gscore>  (167) 
-3.24806

>  <r_i_glide_lipo>  (167) 
-0.954044

>  <r_i_glide_hbond>  (167) 
0

>  <r_i_glide_metal>  (167) 
-0

>  <r_i_glide_rewards>  (167) 
-1.47035

>  <r_i_glide_evdw>  (167) 
-23.2478

>  <r_i_glide_ecoul>  (167) 
2.55635

>  <r_i_glide_erotb>  (167) 
0

>  <r_i_glide_esite>  (167) 
-0.0447293

>  <r_i_glide_emodel>  (167) 
-23.5995

>  <r_i_glide_energy>  (167) 
-20.6914

>  <r_i_glide_einternal>  (167) 
1.98682

>  <r_i_glide_intrahb_reward>  (167) 
-0

>  <i_i_glide_confnum>  (167) 
2

>  <i_i_glide_posenum>  (167) 
32

>  <r_i_glide_eff_state_penalty>  (167) 
0

>  <ligand_id>  (167) 
53

>  <original_smiles>  (167) 
CC1CCC2C(C)C(O)OC3OOC4(C)CCC1C32O4

>  <smiles>  (167) 
[H]OC1([H])OC2([H])OOC3(C([H])([H])[H])OC24C([H])(C([H])([H])C([H])([H])C([H])(C([H])([H])[H])C4([H])C([H])([H])C3([H])[H])C1([H])C([H])([H])[H]

$$$$
54:0:0
     RDKit          3D

 26 28  0  0  1  0  0  0  0  0999 V2000
    6.4359   -9.3638    2.7039 F   0  0  0  0  0  0  0  0  0  0  0  0
    5.9230   -8.2593    2.1029 C   0  0  0  0  0  0  0  0  0  0  0  0
    6.6135   -7.0252    2.1693 C   0  0  0  0  0  0  0  0  0  0  0  0
    6.0337   -5.8916    1.5713 C   0  0  0  0  0  0  0  0  0  0  0  0
    4.8254   -6.0533    0.8745 C   0  0  0  0  0  0  0  0  0  0  0  0
    4.2205   -7.2425    0.7433 N   0  0  0  0  0  0  0  0  0  0  0  0
    4.6929   -8.3143    1.4131 C   0  0  0  0  0  0  0  0  0  0  0  0
    3.8146   -9.5707    1.3706 C   0  0  0  0  0  0  0  0  0  0  0  0
    2.5773   -9.5198    2.1680 N   0  0  0  0  0  0  0  0  0  0  0  0
    2.2124  -10.4892    3.1103 C   0  0  0  0  0  0  0  0  0  0  0  0
    1.0029  -10.1869    3.6771 C   0  0  0  0  0  0  0  0  0  0  0  0
    0.5499   -8.9753    3.0500 C   0  0  0  0  0  0  0  0  0  0  0  0
   -0.5684   -8.1056    3.1451 C   0  0  0  0  0  0  0  0  0  0  0  0
   -0.6154   -6.9975    2.3707 N   0  0  0  0  0  0  0  0  0  0  0  0
    0.3514   -6.8073    1.4749 C   0  0  0  0  0  0  0  0  0  0  0  0
    1.4252   -7.5310    1.2610 N   0  0  0  0  0  0  0  0  0  0  0  0
    1.5215   -8.6148    2.0855 C   0  0  0  0  0  0  0  0  0  0  0  0
    7.5719   -6.9583    2.6730 H   0  0  0  0  0  0  0  0  0  0  0  0
    6.4901   -4.9136    1.6303 H   0  0  0  0  0  0  0  0  0  0  0  0
    4.2920   -5.2177    0.4475 H   0  0  0  0  0  0  0  0  0  0  0  0
    3.5577   -9.7984    0.3362 H   0  0  0  0  0  0  0  0  0  0  0  0
    4.4127  -10.4057    1.7303 H   0  0  0  0  0  0  0  0  0  0  0  0
    2.8506  -11.3392    3.3058 H   0  0  0  0  0  0  0  0  0  0  0  0
    0.4641  -10.7344    4.4332 H   0  0  0  0  0  0  0  0  0  0  0  0
   -1.3881   -8.2862    3.8390 H   0  0  0  0  0  0  0  0  0  0  0  0
    0.3073   -5.9144    0.8892 H   0  0  0  0  0  0  0  0  0  0  0  0
  1  2  1  0
  2  7  2  0
  2  3  1  0
  3  4  2  0
  3 18  1  0
  4  5  1  0
  4 19  1  0
  5  6  2  0
  5 20  1  0
  6  7  1  0
  7  8  1  0
  8  9  1  0
  8 21  1  0
  8 22  1  0
  9 17  1  0
  9 10  1  0
 10 11  2  0
 10 23  1  0
 11 12  1  0
 11 24  1  0
 12 17  2  0
 12 13  1  0
 13 14  2  0
 13 25  1  0
 14 15  1  0
 15 16  2  0
 15 26  1  0
 16 17  1  0
M  END
>  <i_m_ct_stereo_status>  (168) 
1

>  <s_m_source_file>  (168) 
/var/tmp/pbs.5076255.sched01/tmpkddd28mm/459jwin2qj.sdf

>  <i_m_source_file_index>  (168) 
26

>  <i_lp_mmshare_version>  (168) 
48012

>  <i_f3d_flags>  (168) 
0

>  <s_epik_input>  (168) 
RmMxW2NIXVtjSF1bY0hdbmMxW0NIMl1uKFtjSF1bY0hdMiljKGMyMyluW2NIXW5bY0hdMw==

>  <s_epik_cmdline>  (168) 
J2VwaWtfcHl0aG9uJywgJy1waHQnLCAnMi4wJywgJy1waCcsICc3LjAnLCAnLXRuJywgJzgnLCAnLW1hJywgJzIwMCcsICctaW1hZScsICc8aW5maWxlLm1hZT4nLCAnLW9tYWUnLCAnPG91dGZpbGUubWFlPic=

>  <r_lp_tautomer_probability>  (168) 
1

>  <r_epik_Ionization_Penalty>  (168) 
2.40969e-05

>  <r_epik_Ionization_Penalty_Charging>  (168) 
0

>  <r_epik_Ionization_Penalty_Neutral>  (168) 
2.40969e-05

>  <r_epik_State_Penalty>  (168) 
-0

>  <r_epik_Charging_Adjusted_Penalty>  (168) 
0

>  <i_epik_Tot_Q>  (168) 
0

>  <i_epik_Tot_abs_Q>  (168) 
0

>  <s_lp_Force_Field>  (168) 
OPLS3e

>  <r_lp_Energy>  (168) 
24.457

>  <b_lp_Chiralities_Consistent>  (168) 
1

>  <s_lp_Variant>  (168) 
54:0-1

>  <s_i_glide_gridfile>  (168) 
pfpi4k_grid

>  <i_i_glide_lignum>  (168) 
26

>  <i_i_glide_rotatable_bonds>  (168) 
2

>  <r_i_docking_score>  (168) 
-3.37398

>  <r_i_glide_ligand_efficiency>  (168) 
-0.198469

>  <r_i_glide_ligand_efficiency_sa>  (168) 
-0.510321

>  <r_i_glide_ligand_efficiency_ln>  (168) 
-0.880196

>  <r_i_glide_gscore>  (168) 
-3.37398

>  <r_i_glide_lipo>  (168) 
-0.349569

>  <r_i_glide_hbond>  (168) 
-0.16

>  <r_i_glide_metal>  (168) 
-0

>  <r_i_glide_rewards>  (168) 
-1.87379

>  <r_i_glide_evdw>  (168) 
-20.8659

>  <r_i_glide_ecoul>  (168) 
-3.20379

>  <r_i_glide_erotb>  (168) 
0.654125

>  <r_i_glide_esite>  (168) 
-0.120882

>  <r_i_glide_emodel>  (168) 
-28.3356

>  <r_i_glide_energy>  (168) 
-24.0697

>  <r_i_glide_einternal>  (168) 
1.01167

>  <r_i_glide_intrahb_reward>  (168) 
-0

>  <i_i_glide_confnum>  (168) 
1

>  <i_i_glide_posenum>  (168) 
1

>  <r_i_glide_eff_state_penalty>  (168) 
0

>  <ligand_id>  (168) 
54

>  <original_smiles>  (168) 
Fc1cccnc1Cn1ccc2cncnc21

>  <smiles>  (168) 
[H]c1nc([H])c2c([H])c([H])n(C([H])([H])c3nc([H])c([H])c([H])c3F)c2n1

$$$$
54:0:1
     RDKit          3D

 26 28  0  0  1  0  0  0  0  0999 V2000
    5.8113   -1.0662   -1.3624 F   0  0  0  0  0  0  0  0  0  0  0  0
    4.7451   -1.3998   -2.1293 C   0  0  0  0  0  0  0  0  0  0  0  0
    4.2044   -0.4698   -3.0363 C   0  0  0  0  0  0  0  0  0  0  0  0
    3.1292   -0.8593   -3.8553 C   0  0  0  0  0  0  0  0  0  0  0  0
    2.6180   -2.1644   -3.7066 C   0  0  0  0  0  0  0  0  0  0  0  0
    3.1205   -3.0564   -2.8334 N   0  0  0  0  0  0  0  0  0  0  0  0
    4.1589   -2.6831   -2.0541 C   0  0  0  0  0  0  0  0  0  0  0  0
    4.6915   -3.7376   -1.0961 C   0  0  0  0  0  0  0  0  0  0  0  0
    4.1779   -3.5569    0.2559 N   0  0  0  0  0  0  0  0  0  0  0  0
    4.5166   -2.5049    1.1044 C   0  0  0  0  0  0  0  0  0  0  0  0
    3.8662   -2.6279    2.3023 C   0  0  0  0  0  0  0  0  0  0  0  0
    3.0879   -3.8240    2.2122 C   0  0  0  0  0  0  0  0  0  0  0  0
    2.2008   -4.5384    3.0513 C   0  0  0  0  0  0  0  0  0  0  0  0
    1.6198   -5.6733    2.5972 N   0  0  0  0  0  0  0  0  0  0  0  0
    1.9413   -6.1213    1.3831 C   0  0  0  0  0  0  0  0  0  0  0  0
    2.7405   -5.5586    0.4789 N   0  0  0  0  0  0  0  0  0  0  0  0
    3.3012   -4.3987    0.9304 C   0  0  0  0  0  0  0  0  0  0  0  0
    4.6062    0.5312   -3.1039 H   0  0  0  0  0  0  0  0  0  0  0  0
    2.6815   -0.1658   -4.5521 H   0  0  0  0  0  0  0  0  0  0  0  0
    1.7837   -2.4966   -4.3067 H   0  0  0  0  0  0  0  0  0  0  0  0
    4.4434   -4.7377   -1.4579 H   0  0  0  0  0  0  0  0  0  0  0  0
    5.7791   -3.6924   -1.0615 H   0  0  0  0  0  0  0  0  0  0  0  0
    5.1994   -1.7285    0.7950 H   0  0  0  0  0  0  0  0  0  0  0  0
    3.9213   -1.9597    3.1478 H   0  0  0  0  0  0  0  0  0  0  0  0
    1.9538   -4.2068    4.0493 H   0  0  0  0  0  0  0  0  0  0  0  0
    1.4519   -7.0318    1.0728 H   0  0  0  0  0  0  0  0  0  0  0  0
  1  2  1  0
  2  7  2  0
  2  3  1  0
  3  4  2  0
  3 18  1  0
  4  5  1  0
  4 19  1  0
  5  6  2  0
  5 20  1  0
  6  7  1  0
  7  8  1  0
  8  9  1  0
  8 21  1  0
  8 22  1  0
  9 17  1  0
  9 10  1  0
 10 11  2  0
 10 23  1  0
 11 12  1  0
 11 24  1  0
 12 17  2  0
 12 13  1  0
 13 14  2  0
 13 25  1  0
 14 15  1  0
 15 16  2  0
 15 26  1  0
 16 17  1  0
M  END
>  <i_m_ct_stereo_status>  (169) 
1

>  <s_m_source_file>  (169) 
/var/tmp/pbs.5076255.sched01/tmpkddd28mm/459jwin2qj.sdf

>  <i_m_source_file_index>  (169) 
26

>  <i_lp_mmshare_version>  (169) 
48012

>  <i_f3d_flags>  (169) 
0

>  <s_epik_input>  (169) 
RmMxW2NIXVtjSF1bY0hdbmMxW0NIMl1uKFtjSF1bY0hdMiljKGMyMyluW2NIXW5bY0hdMw==

>  <s_epik_cmdline>  (169) 
J2VwaWtfcHl0aG9uJywgJy1waHQnLCAnMi4wJywgJy1waCcsICc3LjAnLCAnLXRuJywgJzgnLCAnLW1hJywgJzIwMCcsICctaW1hZScsICc8aW5maWxlLm1hZT4nLCAnLW9tYWUnLCAnPG91dGZpbGUubWFlPic=

>  <r_lp_tautomer_probability>  (169) 
1

>  <r_epik_Ionization_Penalty>  (169) 
2.40969e-05

>  <r_epik_Ionization_Penalty_Charging>  (169) 
0

>  <r_epik_Ionization_Penalty_Neutral>  (169) 
2.40969e-05

>  <r_epik_State_Penalty>  (169) 
-0

>  <r_epik_Charging_Adjusted_Penalty>  (169) 
0

>  <i_epik_Tot_Q>  (169) 
0

>  <i_epik_Tot_abs_Q>  (169) 
0

>  <s_lp_Force_Field>  (169) 
OPLS3e

>  <r_lp_Energy>  (169) 
24.457

>  <b_lp_Chiralities_Consistent>  (169) 
1

>  <s_lp_Variant>  (169) 
54:0-1

>  <s_i_glide_gridfile>  (169) 
pfpi4k_grid

>  <i_i_glide_lignum>  (169) 
26

>  <i_i_glide_rotatable_bonds>  (169) 
2

>  <r_i_docking_score>  (169) 
-3.01922

>  <r_i_glide_ligand_efficiency>  (169) 
-0.177601

>  <r_i_glide_ligand_efficiency_sa>  (169) 
-0.456663

>  <r_i_glide_ligand_efficiency_ln>  (169) 
-0.787648

>  <r_i_glide_gscore>  (169) 
-3.01922

>  <r_i_glide_lipo>  (169) 
-0.633969

>  <r_i_glide_hbond>  (169) 
0

>  <r_i_glide_metal>  (169) 
-0

>  <r_i_glide_rewards>  (169) 
-1.88435

>  <r_i_glide_evdw>  (169) 
-21.6402

>  <r_i_glide_ecoul>  (169) 
0.268631

>  <r_i_glide_erotb>  (169) 
0.654125

>  <r_i_glide_esite>  (169) 
-0.113308

>  <r_i_glide_emodel>  (169) 
-26.239

>  <r_i_glide_energy>  (169) 
-21.3716

>  <r_i_glide_einternal>  (169) 
0.388641

>  <r_i_glide_intrahb_reward>  (169) 
-0

>  <i_i_glide_confnum>  (169) 
1

>  <i_i_glide_posenum>  (169) 
4

>  <r_i_glide_eff_state_penalty>  (169) 
0

>  <ligand_id>  (169) 
54

>  <original_smiles>  (169) 
Fc1cccnc1Cn1ccc2cncnc21

>  <smiles>  (169) 
[H]c1nc([H])c2c([H])c([H])n(C([H])([H])c3nc([H])c([H])c([H])c3F)c2n1

$$$$
54:0:2
     RDKit          3D

 26 28  0  0  1  0  0  0  0  0999 V2000
   -0.7119    4.7501    4.9819 F   0  0  0  0  0  0  0  0  0  0  0  0
   -1.1130    3.9038    5.9626 C   0  0  0  0  0  0  0  0  0  0  0  0
   -0.9326    4.2417    7.3181 C   0  0  0  0  0  0  0  0  0  0  0  0
   -1.3864    3.3495    8.3076 C   0  0  0  0  0  0  0  0  0  0  0  0
   -2.0041    2.1559    7.8973 C   0  0  0  0  0  0  0  0  0  0  0  0
   -2.1853    1.8272    6.6038 N   0  0  0  0  0  0  0  0  0  0  0  0
   -1.7372    2.6768    5.6513 C   0  0  0  0  0  0  0  0  0  0  0  0
   -1.9512    2.2512    4.2033 C   0  0  0  0  0  0  0  0  0  0  0  0
   -0.8850    1.3867    3.7208 N   0  0  0  0  0  0  0  0  0  0  0  0
   -0.0051    1.7183    2.6917 C   0  0  0  0  0  0  0  0  0  0  0  0
    0.8764    0.6934    2.4726 C   0  0  0  0  0  0  0  0  0  0  0  0
    0.5335   -0.3376    3.4018 C   0  0  0  0  0  0  0  0  0  0  0  0
    1.0057   -1.6339    3.7165 C   0  0  0  0  0  0  0  0  0  0  0  0
    0.3976   -2.3413    4.6926 N   0  0  0  0  0  0  0  0  0  0  0  0
   -0.6468   -1.8059    5.3229 C   0  0  0  0  0  0  0  0  0  0  0  0
   -1.2283   -0.6261    5.1225 N   0  0  0  0  0  0  0  0  0  0  0  0
   -0.5867    0.1017    4.1578 C   0  0  0  0  0  0  0  0  0  0  0  0
   -0.4657    5.1748    7.5947 H   0  0  0  0  0  0  0  0  0  0  0  0
   -1.2644    3.5660    9.3587 H   0  0  0  0  0  0  0  0  0  0  0  0
   -2.3547    1.4354    8.6204 H   0  0  0  0  0  0  0  0  0  0  0  0
   -2.9048    1.7434    4.0771 H   0  0  0  0  0  0  0  0  0  0  0  0
   -2.0039    3.1314    3.5622 H   0  0  0  0  0  0  0  0  0  0  0  0
   -0.0733    2.6653    2.1759 H   0  0  0  0  0  0  0  0  0  0  0  0
    1.6607    0.6551    1.7317 H   0  0  0  0  0  0  0  0  0  0  0  0
    1.8397   -2.0910    3.2010 H   0  0  0  0  0  0  0  0  0  0  0  0
   -1.0816   -2.4101    6.1037 H   0  0  0  0  0  0  0  0  0  0  0  0
  1  2  1  0
  2  7  2  0
  2  3  1  0
  3  4  2  0
  3 18  1  0
  4  5  1  0
  4 19  1  0
  5  6  2  0
  5 20  1  0
  6  7  1  0
  7  8  1  0
  8  9  1  0
  8 21  1  0
  8 22  1  0
  9 17  1  0
  9 10  1  0
 10 11  2  0
 10 23  1  0
 11 12  1  0
 11 24  1  0
 12 17  2  0
 12 13  1  0
 13 14  2  0
 13 25  1  0
 14 15  1  0
 15 16  2  0
 15 26  1  0
 16 17  1  0
M  END
>  <i_m_ct_stereo_status>  (170) 
1

>  <s_m_source_file>  (170) 
/var/tmp/pbs.5076255.sched01/tmpkddd28mm/459jwin2qj.sdf

>  <i_m_source_file_index>  (170) 
26

>  <i_lp_mmshare_version>  (170) 
48012

>  <i_f3d_flags>  (170) 
0

>  <s_epik_input>  (170) 
RmMxW2NIXVtjSF1bY0hdbmMxW0NIMl1uKFtjSF1bY0hdMiljKGMyMyluW2NIXW5bY0hdMw==

>  <s_epik_cmdline>  (170) 
J2VwaWtfcHl0aG9uJywgJy1waHQnLCAnMi4wJywgJy1waCcsICc3LjAnLCAnLXRuJywgJzgnLCAnLW1hJywgJzIwMCcsICctaW1hZScsICc8aW5maWxlLm1hZT4nLCAnLW9tYWUnLCAnPG91dGZpbGUubWFlPic=

>  <r_lp_tautomer_probability>  (170) 
1

>  <r_epik_Ionization_Penalty>  (170) 
2.40969e-05

>  <r_epik_Ionization_Penalty_Charging>  (170) 
0

>  <r_epik_Ionization_Penalty_Neutral>  (170) 
2.40969e-05

>  <r_epik_State_Penalty>  (170) 
-0

>  <r_epik_Charging_Adjusted_Penalty>  (170) 
0

>  <i_epik_Tot_Q>  (170) 
0

>  <i_epik_Tot_abs_Q>  (170) 
0

>  <s_lp_Force_Field>  (170) 
OPLS3e

>  <r_lp_Energy>  (170) 
24.457

>  <b_lp_Chiralities_Consistent>  (170) 
1

>  <s_lp_Variant>  (170) 
54:0-1

>  <s_i_glide_gridfile>  (170) 
pfpi4k_grid

>  <i_i_glide_lignum>  (170) 
26

>  <i_i_glide_rotatable_bonds>  (170) 
2

>  <r_i_docking_score>  (170) 
-2.78197

>  <r_i_glide_ligand_efficiency>  (170) 
-0.163645

>  <r_i_glide_ligand_efficiency_sa>  (170) 
-0.420778

>  <r_i_glide_ligand_efficiency_ln>  (170) 
-0.725754

>  <r_i_glide_gscore>  (170) 
-2.78197

>  <r_i_glide_lipo>  (170) 
-0.0481999

>  <r_i_glide_hbond>  (170) 
0

>  <r_i_glide_metal>  (170) 
-0

>  <r_i_glide_rewards>  (170) 
-1.85301

>  <r_i_glide_evdw>  (170) 
-18.5921

>  <r_i_glide_ecoul>  (170) 
-3.17512

>  <r_i_glide_erotb>  (170) 
0.654125

>  <r_i_glide_esite>  (170) 
-0.129009

>  <r_i_glide_emodel>  (170) 
-26.2056

>  <r_i_glide_energy>  (170) 
-21.7672

>  <r_i_glide_einternal>  (170) 
0.287935

>  <r_i_glide_intrahb_reward>  (170) 
-0

>  <i_i_glide_confnum>  (170) 
1

>  <i_i_glide_posenum>  (170) 
2

>  <r_i_glide_eff_state_penalty>  (170) 
0

>  <ligand_id>  (170) 
54

>  <original_smiles>  (170) 
Fc1cccnc1Cn1ccc2cncnc21

>  <smiles>  (170) 
[H]c1nc([H])c2c([H])c([H])n(C([H])([H])c3nc([H])c([H])c([H])c3F)c2n1

$$$$
55:0:0
     RDKit          3D

 17 18  0  0  1  0  0  0  0  0999 V2000
   -0.4477    2.4631    3.0523 C   0  0  0  0  0  0  0  0  0  0  0  0
   -1.0204    2.0435    4.3357 N   0  0  0  0  0  0  0  0  0  0  0  0
   -1.6454    2.9354    5.1694 C   0  0  0  0  0  0  0  0  0  0  0  0
   -1.7903    4.1352    4.9224 O   0  0  0  0  0  0  0  0  0  0  0  0
   -2.1849    2.3391    6.4915 C   0  0  0  0  0  0  0  0  0  0  0  0
   -2.0981    1.0985    6.8356 N   0  0  0  0  0  0  0  0  0  0  0  0
   -1.4490    0.2586    5.9186 C   0  0  0  0  0  0  0  0  0  0  0  0
   -1.2227   -1.1088    6.0387 N   0  0  0  0  0  0  0  0  0  0  0  0
   -0.5644   -1.3947    4.9050 C   0  0  0  0  0  0  0  0  0  0  0  0
   -0.3745   -0.3342    4.0912 N   0  0  0  0  0  0  0  0  0  0  0  0
   -0.9503    0.7482    4.7417 C   0  0  0  0  0  0  0  0  0  0  0  0
   -0.5745    3.5292    2.8769 H   0  0  0  0  0  0  0  0  0  0  0  0
   -0.9189    1.9496    2.2125 H   0  0  0  0  0  0  0  0  0  0  0  0
    0.6264    2.2811    3.0124 H   0  0  0  0  0  0  0  0  0  0  0  0
   -2.6890    3.0327    7.1724 H   0  0  0  0  0  0  0  0  0  0  0  0
   -0.2216   -2.3959    4.6675 H   0  0  0  0  0  0  0  0  0  0  0  0
    0.0952   -0.3321    3.1951 H   0  0  0  0  0  0  0  0  0  0  0  0
  1  2  1  0
  1 12  1  0
  1 13  1  0
  1 14  1  0
  2 11  1  0
  2  3  1  0
  3  4  2  0
  3  5  1  0
  5  6  2  0
  5 15  1  0
  6  7  1  0
  7 11  2  0
  7  8  1  0
  8  9  2  0
  9 10  1  0
  9 16  1  0
 10 11  1  0
 10 17  1  0
M  END
>  <i_m_ct_stereo_status>  (171) 
1

>  <s_m_source_file>  (171) 
/var/tmp/pbs.5076255.sched01/tmpkddd28mm/459jwin2qj.sdf

>  <i_m_source_file_index>  (171) 
27

>  <i_lp_mmshare_version>  (171) 
48012

>  <i_f3d_flags>  (171) 
0

>  <s_epik_input>  (171) 
bjFbY0hdYyg9TyluKFtDSDNdKWMoYzEyKW5bY0hdW25IXTI=

>  <s_epik_cmdline>  (171) 
J2VwaWtfcHl0aG9uJywgJy1waHQnLCAnMi4wJywgJy1waCcsICc3LjAnLCAnLXRuJywgJzgnLCAnLW1hJywgJzIwMCcsICctaW1hZScsICc8aW5maWxlLm1hZT4nLCAnLW9tYWUnLCAnPG91dGZpbGUubWFlPic=

>  <r_epik_Ionization_Penalty>  (171) 
0.870791

>  <r_epik_Ionization_Penalty_Charging>  (171) 
0.870743

>  <r_epik_Ionization_Penalty_Neutral>  (171) 
4.8778e-05

>  <r_epik_State_Penalty>  (171) 
0.265406

>  <r_epik_Charging_Adjusted_Penalty>  (171) 
1.13615

>  <i_epik_Tot_Q>  (171) 
0

>  <i_epik_Tot_abs_Q>  (171) 
0

>  <s_lp_Force_Field>  (171) 
OPLS3e

>  <r_lp_Energy>  (171) 
34.4242

>  <b_lp_Chiralities_Consistent>  (171) 
1

>  <s_lp_Variant>  (171) 
55:0-1

>  <s_i_glide_gridfile>  (171) 
pfpi4k_grid

>  <i_i_glide_lignum>  (171) 
27

>  <i_i_glide_rotatable_bonds>  (171) 
0

>  <r_i_docking_score>  (171) 
-4.38794

>  <r_i_glide_ligand_efficiency>  (171) 
-0.398904

>  <r_i_glide_ligand_efficiency_sa>  (171) 
-0.887154

>  <r_i_glide_ligand_efficiency_ln>  (171) 
-1.29137

>  <r_i_glide_gscore>  (171) 
-4.38794

>  <r_i_glide_lipo>  (171) 
-0.0547092

>  <r_i_glide_hbond>  (171) 
-0.18449

>  <r_i_glide_metal>  (171) 
-0

>  <r_i_glide_rewards>  (171) 
-2.25

>  <r_i_glide_evdw>  (171) 
-12.9869

>  <r_i_glide_ecoul>  (171) 
-7.30753

>  <r_i_glide_erotb>  (171) 
0

>  <r_i_glide_esite>  (171) 
-0.15327

>  <r_i_glide_emodel>  (171) 
-26.6889

>  <r_i_glide_energy>  (171) 
-20.2944

>  <r_i_glide_einternal>  (171) 
0

>  <r_i_glide_intrahb_reward>  (171) 
-0

>  <i_i_glide_confnum>  (171) 
2

>  <i_i_glide_posenum>  (171) 
37

>  <r_i_glide_eff_state_penalty>  (171) 
0

>  <ligand_id>  (171) 
55

>  <original_smiles>  (171) 
Cn1c(=O)cnc2[nH]cnc21

>  <smiles>  (171) 
[H]c1nc2nc([H])n([H])c2n(C([H])([H])[H])c1=O

$$$$
55:0:1
     RDKit          3D

 17 18  0  0  1  0  0  0  0  0999 V2000
   -1.1776   -0.1628    4.3863 C   0  0  0  0  0  0  0  0  0  0  0  0
   -1.2755    1.1005    5.1258 N   0  0  0  0  0  0  0  0  0  0  0  0
   -1.1612    1.1410    6.4891 C   0  0  0  0  0  0  0  0  0  0  0  0
   -0.9825    0.1494    7.1942 O   0  0  0  0  0  0  0  0  0  0  0  0
   -1.2895    2.5432    7.1318 C   0  0  0  0  0  0  0  0  0  0  0  0
   -1.4919    3.6380    6.4826 N   0  0  0  0  0  0  0  0  0  0  0  0
   -1.5847    3.5032    5.0879 C   0  0  0  0  0  0  0  0  0  0  0  0
   -1.7836    4.5146    4.1632 N   0  0  0  0  0  0  0  0  0  0  0  0
   -1.7970    3.8349    3.0137 C   0  0  0  0  0  0  0  0  0  0  0  0
   -1.6291    2.5038    3.1273 N   0  0  0  0  0  0  0  0  0  0  0  0
   -1.4833    2.2773    4.4845 C   0  0  0  0  0  0  0  0  0  0  0  0
   -1.0102   -1.0296    5.0263 H   0  0  0  0  0  0  0  0  0  0  0  0
   -0.3456   -0.1404    3.6840 H   0  0  0  0  0  0  0  0  0  0  0  0
   -2.0947   -0.3668    3.8396 H   0  0  0  0  0  0  0  0  0  0  0  0
   -1.2098    2.5896    8.2255 H   0  0  0  0  0  0  0  0  0  0  0  0
   -1.9292    4.3432    2.0749 H   0  0  0  0  0  0  0  0  0  0  0  0
   -1.5936    1.8346    2.3681 H   0  0  0  0  0  0  0  0  0  0  0  0
  1  2  1  0
  1 12  1  0
  1 13  1  0
  1 14  1  0
  2 11  1  0
  2  3  1  0
  3  4  2  0
  3  5  1  0
  5  6  2  0
  5 15  1  0
  6  7  1  0
  7 11  2  0
  7  8  1  0
  8  9  2  0
  9 10  1  0
  9 16  1  0
 10 11  1  0
 10 17  1  0
M  END
>  <i_m_ct_stereo_status>  (172) 
1

>  <s_m_source_file>  (172) 
/var/tmp/pbs.5076255.sched01/tmpkddd28mm/459jwin2qj.sdf

>  <i_m_source_file_index>  (172) 
27

>  <i_lp_mmshare_version>  (172) 
48012

>  <i_f3d_flags>  (172) 
0

>  <s_epik_input>  (172) 
bjFbY0hdYyg9TyluKFtDSDNdKWMoYzEyKW5bY0hdW25IXTI=

>  <s_epik_cmdline>  (172) 
J2VwaWtfcHl0aG9uJywgJy1waHQnLCAnMi4wJywgJy1waCcsICc3LjAnLCAnLXRuJywgJzgnLCAnLW1hJywgJzIwMCcsICctaW1hZScsICc8aW5maWxlLm1hZT4nLCAnLW9tYWUnLCAnPG91dGZpbGUubWFlPic=

>  <r_epik_Ionization_Penalty>  (172) 
0.870791

>  <r_epik_Ionization_Penalty_Charging>  (172) 
0.870743

>  <r_epik_Ionization_Penalty_Neutral>  (172) 
4.8778e-05

>  <r_epik_State_Penalty>  (172) 
0.265406

>  <r_epik_Charging_Adjusted_Penalty>  (172) 
1.13615

>  <i_epik_Tot_Q>  (172) 
0

>  <i_epik_Tot_abs_Q>  (172) 
0

>  <s_lp_Force_Field>  (172) 
OPLS3e

>  <r_lp_Energy>  (172) 
34.4242

>  <b_lp_Chiralities_Consistent>  (172) 
1

>  <s_lp_Variant>  (172) 
55:0-1

>  <s_i_glide_gridfile>  (172) 
pfpi4k_grid

>  <i_i_glide_lignum>  (172) 
27

>  <i_i_glide_rotatable_bonds>  (172) 
0

>  <r_i_docking_score>  (172) 
-4.25716

>  <r_i_glide_ligand_efficiency>  (172) 
-0.387015

>  <r_i_glide_ligand_efficiency_sa>  (172) 
-0.860713

>  <r_i_glide_ligand_efficiency_ln>  (172) 
-1.25288

>  <r_i_glide_gscore>  (172) 
-4.25716

>  <r_i_glide_lipo>  (172) 
-0.00613913

>  <r_i_glide_hbond>  (172) 
-0.236008

>  <r_i_glide_metal>  (172) 
-0

>  <r_i_glide_rewards>  (172) 
-2.25

>  <r_i_glide_evdw>  (172) 
-9.71276

>  <r_i_glide_ecoul>  (172) 
-7.124

>  <r_i_glide_erotb>  (172) 
0

>  <r_i_glide_esite>  (172) 
-0.210778

>  <r_i_glide_emodel>  (172) 
-23.0349

>  <r_i_glide_energy>  (172) 
-16.8368

>  <r_i_glide_einternal>  (172) 
0

>  <r_i_glide_intrahb_reward>  (172) 
-0

>  <i_i_glide_confnum>  (172) 
2

>  <i_i_glide_posenum>  (172) 
17

>  <r_i_glide_eff_state_penalty>  (172) 
0

>  <ligand_id>  (172) 
55

>  <original_smiles>  (172) 
Cn1c(=O)cnc2[nH]cnc21

>  <smiles>  (172) 
[H]c1nc2nc([H])n([H])c2n(C([H])([H])[H])c1=O

$$$$
55:0:2
     RDKit          3D

 17 18  0  0  1  0  0  0  0  0999 V2000
    4.6372   -0.4456   -2.5520 C   0  0  0  0  0  0  0  0  0  0  0  0
    3.9453   -1.4428   -1.7343 N   0  0  0  0  0  0  0  0  0  0  0  0
    3.2902   -2.4914   -2.3192 C   0  0  0  0  0  0  0  0  0  0  0  0
    3.2499   -2.6847   -3.5371 O   0  0  0  0  0  0  0  0  0  0  0  0
    2.5921   -3.4519   -1.3341 C   0  0  0  0  0  0  0  0  0  0  0  0
    2.6234   -3.3666   -0.0485 N   0  0  0  0  0  0  0  0  0  0  0  0
    3.3149   -2.2572    0.4630 C   0  0  0  0  0  0  0  0  0  0  0  0
    3.4610   -1.8812    1.7947 N   0  0  0  0  0  0  0  0  0  0  0  0
    4.1823   -0.7553    1.7033 C   0  0  0  0  0  0  0  0  0  0  0  0
    4.4971   -0.4007    0.4404 N   0  0  0  0  0  0  0  0  0  0  0  0
    3.9294   -1.3660   -0.3738 C   0  0  0  0  0  0  0  0  0  0  0  0
    4.5787   -0.6313   -3.6233 H   0  0  0  0  0  0  0  0  0  0  0  0
    5.6927   -0.4166   -2.2969 H   0  0  0  0  0  0  0  0  0  0  0  0
    4.2212    0.5451   -2.4078 H   0  0  0  0  0  0  0  0  0  0  0  0
    2.0137   -4.2549   -1.7970 H   0  0  0  0  0  0  0  0  0  0  0  0
    4.4879   -0.1890    2.5741 H   0  0  0  0  0  0  0  0  0  0  0  0
    5.0056    0.4194    0.1372 H   0  0  0  0  0  0  0  0  0  0  0  0
  1  2  1  0
  1 12  1  0
  1 13  1  0
  1 14  1  0
  2 11  1  0
  2  3  1  0
  3  4  2  0
  3  5  1  0
  5  6  2  0
  5 15  1  0
  6  7  1  0
  7 11  2  0
  7  8  1  0
  8  9  2  0
  9 10  1  0
  9 16  1  0
 10 11  1  0
 10 17  1  0
M  END
>  <i_m_ct_stereo_status>  (173) 
1

>  <s_m_source_file>  (173) 
/var/tmp/pbs.5076255.sched01/tmpkddd28mm/459jwin2qj.sdf

>  <i_m_source_file_index>  (173) 
27

>  <i_lp_mmshare_version>  (173) 
48012

>  <i_f3d_flags>  (173) 
0

>  <s_epik_input>  (173) 
bjFbY0hdYyg9TyluKFtDSDNdKWMoYzEyKW5bY0hdW25IXTI=

>  <s_epik_cmdline>  (173) 
J2VwaWtfcHl0aG9uJywgJy1waHQnLCAnMi4wJywgJy1waCcsICc3LjAnLCAnLXRuJywgJzgnLCAnLW1hJywgJzIwMCcsICctaW1hZScsICc8aW5maWxlLm1hZT4nLCAnLW9tYWUnLCAnPG91dGZpbGUubWFlPic=

>  <r_epik_Ionization_Penalty>  (173) 
0.870791

>  <r_epik_Ionization_Penalty_Charging>  (173) 
0.870743

>  <r_epik_Ionization_Penalty_Neutral>  (173) 
4.8778e-05

>  <r_epik_State_Penalty>  (173) 
0.265406

>  <r_epik_Charging_Adjusted_Penalty>  (173) 
1.13615

>  <i_epik_Tot_Q>  (173) 
0

>  <i_epik_Tot_abs_Q>  (173) 
0

>  <s_lp_Force_Field>  (173) 
OPLS3e

>  <r_lp_Energy>  (173) 
34.4242

>  <b_lp_Chiralities_Consistent>  (173) 
1

>  <s_lp_Variant>  (173) 
55:0-1

>  <s_i_glide_gridfile>  (173) 
pfpi4k_grid

>  <i_i_glide_lignum>  (173) 
27

>  <i_i_glide_rotatable_bonds>  (173) 
0

>  <r_i_docking_score>  (173) 
-4.11307

>  <r_i_glide_ligand_efficiency>  (173) 
-0.373915

>  <r_i_glide_ligand_efficiency_sa>  (173) 
-0.83158

>  <r_i_glide_ligand_efficiency_ln>  (173) 
-1.21048

>  <r_i_glide_gscore>  (173) 
-4.11307

>  <r_i_glide_lipo>  (173) 
-0.0632329

>  <r_i_glide_hbond>  (173) 
-0.292215

>  <r_i_glide_metal>  (173) 
-0

>  <r_i_glide_rewards>  (173) 
-2.32672

>  <r_i_glide_evdw>  (173) 
-16.6008

>  <r_i_glide_ecoul>  (173) 
-2.93211

>  <r_i_glide_erotb>  (173) 
0

>  <r_i_glide_esite>  (173) 
-0.16105

>  <r_i_glide_emodel>  (173) 
-25.4811

>  <r_i_glide_energy>  (173) 
-19.5329

>  <r_i_glide_einternal>  (173) 
0

>  <r_i_glide_intrahb_reward>  (173) 
-0

>  <i_i_glide_confnum>  (173) 
2

>  <i_i_glide_posenum>  (173) 
24

>  <r_i_glide_eff_state_penalty>  (173) 
0

>  <ligand_id>  (173) 
55

>  <original_smiles>  (173) 
Cn1c(=O)cnc2[nH]cnc21

>  <smiles>  (173) 
[H]c1nc2nc([H])n([H])c2n(C([H])([H])[H])c1=O

$$$$
55:1:0
     RDKit          3D

 16 17  0  0  1  0  0  0  0  0999 V2000
   -0.4434    2.4812    3.0589 C   0  0  0  0  0  0  0  0  0  0  0  0
   -1.0184    2.0399    4.3328 N   0  0  0  0  0  0  0  0  0  0  0  0
   -1.6628    2.8625    5.2136 C   0  0  0  0  0  0  0  0  0  0  0  0
   -1.7920    4.1762    4.8817 O   0  0  0  0  0  0  0  0  0  0  0  0
   -2.1954    2.3947    6.4389 C   0  0  0  0  0  0  0  0  0  0  0  0
   -2.1011    1.0883    6.7763 N   0  0  0  0  0  0  0  0  0  0  0  0
   -1.4669    0.2462    5.9121 C   0  0  0  0  0  0  0  0  0  0  0  0
   -1.2453   -1.0585    6.0080 N   0  0  0  0  0  0  0  0  0  0  0  0
   -0.5697   -1.3520    4.8782 C   0  0  0  0  0  0  0  0  0  0  0  0
   -0.3640   -0.3010    4.0619 N   0  0  0  0  0  0  0  0  0  0  0  0
   -0.9237    0.7213    4.6940 C   0  0  0  0  0  0  0  0  0  0  0  0
   -0.5673    3.5487    2.8805 H   0  0  0  0  0  0  0  0  0  0  0  0
   -0.9126    1.9443    2.2329 H   0  0  0  0  0  0  0  0  0  0  0  0
    0.6260    2.2708    3.0456 H   0  0  0  0  0  0  0  0  0  0  0  0
   -2.7073    3.0573    7.1272 H   0  0  0  0  0  0  0  0  0  0  0  0
   -0.2243   -2.3500    4.6304 H   0  0  0  0  0  0  0  0  0  0  0  0
  1  2  1  0
  1 12  1  0
  1 13  1  0
  1 14  1  0
  2 11  1  0
  2  3  1  0
  3  4  1  0
  3  5  2  0
  5  6  1  0
  5 15  1  0
  6  7  2  0
  7 11  1  0
  7  8  1  0
  8  9  2  0
  9 10  1  0
  9 16  1  0
 10 11  2  0
M  CHG  1   4  -1
M  END
>  <i_m_ct_stereo_status>  (174) 
1

>  <s_m_source_file>  (174) 
/var/tmp/pbs.5076255.sched01/tmpkddd28mm/459jwin2qj.sdf

>  <i_m_source_file_index>  (174) 
28

>  <i_lp_mmshare_version>  (174) 
48012

>  <i_f3d_flags>  (174) 
0

>  <s_epik_input>  (174) 
bjFbY0hdYyg9TyluKFtDSDNdKWMoYzEyKW5bY0hdW25IXTI=

>  <s_epik_cmdline>  (174) 
J2VwaWtfcHl0aG9uJywgJy1waHQnLCAnMi4wJywgJy1waCcsICc3LjAnLCAnLXRuJywgJzgnLCAnLW1hJywgJzIwMCcsICctaW1hZScsICc8aW5maWxlLm1hZT4nLCAnLW9tYWUnLCAnPG91dGZpbGUubWFlPic=

>  <r_epik_Ionization_Penalty>  (174) 
0.598756

>  <r_epik_Ionization_Penalty_Charging>  (174) 
0.342104

>  <r_epik_Ionization_Penalty_Neutral>  (174) 
0.256652

>  <r_epik_State_Penalty>  (174) 
0.676904

>  <r_epik_Charging_Adjusted_Penalty>  (174) 
1.01901

>  <i_epik_Tot_Q>  (174) 
-1

>  <i_epik_Tot_abs_Q>  (174) 
1

>  <s_lp_Force_Field>  (174) 
OPLS3e

>  <r_lp_Energy>  (174) 
22.3878

>  <b_lp_Chiralities_Consistent>  (174) 
1

>  <s_lp_Variant>  (174) 
55:0-2

>  <s_i_glide_gridfile>  (174) 
pfpi4k_grid

>  <i_i_glide_lignum>  (174) 
28

>  <i_i_glide_rotatable_bonds>  (174) 
0

>  <r_i_docking_score>  (174) 
-3.3549

>  <r_i_glide_ligand_efficiency>  (174) 
-0.304991

>  <r_i_glide_ligand_efficiency_sa>  (174) 
-0.678294

>  <r_i_glide_ligand_efficiency_ln>  (174) 
-0.987346

>  <r_i_glide_gscore>  (174) 
-3.3549

>  <r_i_glide_lipo>  (174) 
-0.0692726

>  <r_i_glide_hbond>  (174) 
-0.1779

>  <r_i_glide_metal>  (174) 
-0

>  <r_i_glide_rewards>  (174) 
-2.25

>  <r_i_glide_evdw>  (174) 
-11.3811

>  <r_i_glide_ecoul>  (174) 
-1.02538

>  <r_i_glide_erotb>  (174) 
0

>  <r_i_glide_esite>  (174) 
-0.134866

>  <r_i_glide_emodel>  (174) 
-17.5502

>  <r_i_glide_energy>  (174) 
-12.4065

>  <r_i_glide_einternal>  (174) 
0

>  <r_i_glide_intrahb_reward>  (174) 
-0

>  <i_i_glide_confnum>  (174) 
1

>  <i_i_glide_posenum>  (174) 
34

>  <r_i_glide_eff_state_penalty>  (174) 
0

>  <ligand_id>  (174) 
55

>  <original_smiles>  (174) 
Cn1c(=O)cnc2[nH]cnc21

>  <smiles>  (174) 
[H]c1nc2nc([H])c([O-])n(C([H])([H])[H])c-2n1

$$$$
55:1:1
     RDKit          3D

 16 17  0  0  1  0  0  0  0  0999 V2000
   -2.4559    2.7591    6.5415 C   0  0  0  0  0  0  0  0  0  0  0  0
   -1.8661    2.2217    5.3125 N   0  0  0  0  0  0  0  0  0  0  0  0
   -1.7426    2.9076    4.1372 C   0  0  0  0  0  0  0  0  0  0  0  0
   -2.1797    4.1956    4.0811 O   0  0  0  0  0  0  0  0  0  0  0  0
   -1.1705    2.3321    2.9769 C   0  0  0  0  0  0  0  0  0  0  0  0
   -0.7156    1.0598    2.9869 N   0  0  0  0  0  0  0  0  0  0  0  0
   -0.8158    0.3470    4.1384 C   0  0  0  0  0  0  0  0  0  0  0  0
   -0.4565   -0.9002    4.4126 N   0  0  0  0  0  0  0  0  0  0  0  0
   -0.7994   -1.0635    5.7029 C   0  0  0  0  0  0  0  0  0  0  0  0
   -1.3843    0.0158    6.2667 N   0  0  0  0  0  0  0  0  0  0  0  0
   -1.3929    0.9271    5.2992 C   0  0  0  0  0  0  0  0  0  0  0  0
   -2.8010    3.7851    6.4344 H   0  0  0  0  0  0  0  0  0  0  0  0
   -1.7206    2.7356    7.3449 H   0  0  0  0  0  0  0  0  0  0  0  0
   -3.3103    2.1547    6.8450 H   0  0  0  0  0  0  0  0  0  0  0  0
   -1.0705    2.9039    2.0651 H   0  0  0  0  0  0  0  0  0  0  0  0
   -0.6302   -1.9915    6.2386 H   0  0  0  0  0  0  0  0  0  0  0  0
  1  2  1  0
  1 12  1  0
  1 13  1  0
  1 14  1  0
  2 11  1  0
  2  3  1  0
  3  4  1  0
  3  5  2  0
  5  6  1  0
  5 15  1  0
  6  7  2  0
  7 11  1  0
  7  8  1  0
  8  9  2  0
  9 10  1  0
  9 16  1  0
 10 11  2  0
M  CHG  1   4  -1
M  END
>  <i_m_ct_stereo_status>  (175) 
1

>  <s_m_source_file>  (175) 
/var/tmp/pbs.5076255.sched01/tmpkddd28mm/459jwin2qj.sdf

>  <i_m_source_file_index>  (175) 
28

>  <i_lp_mmshare_version>  (175) 
48012

>  <i_f3d_flags>  (175) 
0

>  <s_epik_input>  (175) 
bjFbY0hdYyg9TyluKFtDSDNdKWMoYzEyKW5bY0hdW25IXTI=

>  <s_epik_cmdline>  (175) 
J2VwaWtfcHl0aG9uJywgJy1waHQnLCAnMi4wJywgJy1waCcsICc3LjAnLCAnLXRuJywgJzgnLCAnLW1hJywgJzIwMCcsICctaW1hZScsICc8aW5maWxlLm1hZT4nLCAnLW9tYWUnLCAnPG91dGZpbGUubWFlPic=

>  <r_epik_Ionization_Penalty>  (175) 
0.598756

>  <r_epik_Ionization_Penalty_Charging>  (175) 
0.342104

>  <r_epik_Ionization_Penalty_Neutral>  (175) 
0.256652

>  <r_epik_State_Penalty>  (175) 
0.676904

>  <r_epik_Charging_Adjusted_Penalty>  (175) 
1.01901

>  <i_epik_Tot_Q>  (175) 
-1

>  <i_epik_Tot_abs_Q>  (175) 
1

>  <s_lp_Force_Field>  (175) 
OPLS3e

>  <r_lp_Energy>  (175) 
22.3878

>  <b_lp_Chiralities_Consistent>  (175) 
1

>  <s_lp_Variant>  (175) 
55:0-2

>  <s_i_glide_gridfile>  (175) 
pfpi4k_grid

>  <i_i_glide_lignum>  (175) 
28

>  <i_i_glide_rotatable_bonds>  (175) 
0

>  <r_i_docking_score>  (175) 
-3.29781

>  <r_i_glide_ligand_efficiency>  (175) 
-0.299801

>  <r_i_glide_ligand_efficiency_sa>  (175) 
-0.666752

>  <r_i_glide_ligand_efficiency_ln>  (175) 
-0.970546

>  <r_i_glide_gscore>  (175) 
-3.29781

>  <r_i_glide_lipo>  (175) 
-0.144114

>  <r_i_glide_hbond>  (175) 
-0.254744

>  <r_i_glide_metal>  (175) 
-0

>  <r_i_glide_rewards>  (175) 
-2.25

>  <r_i_glide_evdw>  (175) 
-12.4881

>  <r_i_glide_ecoul>  (175) 
0.482569

>  <r_i_glide_erotb>  (175) 
0

>  <r_i_glide_esite>  (175) 
-0.0969339

>  <r_i_glide_emodel>  (175) 
-17.0626

>  <r_i_glide_energy>  (175) 
-12.0055

>  <r_i_glide_einternal>  (175) 
0

>  <r_i_glide_intrahb_reward>  (175) 
-0

>  <i_i_glide_confnum>  (175) 
2

>  <i_i_glide_posenum>  (175) 
29

>  <r_i_glide_eff_state_penalty>  (175) 
0

>  <ligand_id>  (175) 
55

>  <original_smiles>  (175) 
Cn1c(=O)cnc2[nH]cnc21

>  <smiles>  (175) 
[H]c1nc2nc([H])c([O-])n(C([H])([H])[H])c-2n1

$$$$
55:1:2
     RDKit          3D

 16 17  0  0  1  0  0  0  0  0999 V2000
   -2.5226   -0.9764    5.3478 C   0  0  0  0  0  0  0  0  0  0  0  0
   -1.1269   -1.2651    5.0548 N   0  0  0  0  0  0  0  0  0  0  0  0
   -0.4098   -2.2804    5.6269 C   0  0  0  0  0  0  0  0  0  0  0  0
   -1.0314   -3.0841    6.5408 O   0  0  0  0  0  0  0  0  0  0  0  0
    0.9487   -2.5139    5.2967 C   0  0  0  0  0  0  0  0  0  0  0  0
    1.5856   -1.7329    4.3983 N   0  0  0  0  0  0  0  0  0  0  0  0
    0.9011   -0.7122    3.8145 C   0  0  0  0  0  0  0  0  0  0  0  0
    1.2916    0.1820    2.9143 N   0  0  0  0  0  0  0  0  0  0  0  0
    0.1919    0.9359    2.7047 C   0  0  0  0  0  0  0  0  0  0  0  0
   -0.8798    0.5674    3.4369 N   0  0  0  0  0  0  0  0  0  0  0  0
   -0.4549   -0.4760    4.1455 C   0  0  0  0  0  0  0  0  0  0  0  0
   -2.9557   -1.6658    6.0707 H   0  0  0  0  0  0  0  0  0  0  0  0
   -3.1105   -1.0551    4.4377 H   0  0  0  0  0  0  0  0  0  0  0  0
   -2.5935    0.0425    5.7301 H   0  0  0  0  0  0  0  0  0  0  0  0
    1.5141   -3.3152    5.7505 H   0  0  0  0  0  0  0  0  0  0  0  0
    0.1764    1.7710    2.0102 H   0  0  0  0  0  0  0  0  0  0  0  0
  1  2  1  0
  1 12  1  0
  1 13  1  0
  1 14  1  0
  2 11  1  0
  2  3  1  0
  3  4  1  0
  3  5  2  0
  5  6  1  0
  5 15  1  0
  6  7  2  0
  7 11  1  0
  7  8  1  0
  8  9  2  0
  9 10  1  0
  9 16  1  0
 10 11  2  0
M  CHG  1   4  -1
M  END
>  <i_m_ct_stereo_status>  (176) 
1

>  <s_m_source_file>  (176) 
/var/tmp/pbs.5076255.sched01/tmpkddd28mm/459jwin2qj.sdf

>  <i_m_source_file_index>  (176) 
28

>  <i_lp_mmshare_version>  (176) 
48012

>  <i_f3d_flags>  (176) 
0

>  <s_epik_input>  (176) 
bjFbY0hdYyg9TyluKFtDSDNdKWMoYzEyKW5bY0hdW25IXTI=

>  <s_epik_cmdline>  (176) 
J2VwaWtfcHl0aG9uJywgJy1waHQnLCAnMi4wJywgJy1waCcsICc3LjAnLCAnLXRuJywgJzgnLCAnLW1hJywgJzIwMCcsICctaW1hZScsICc8aW5maWxlLm1hZT4nLCAnLW9tYWUnLCAnPG91dGZpbGUubWFlPic=

>  <r_epik_Ionization_Penalty>  (176) 
0.598756

>  <r_epik_Ionization_Penalty_Charging>  (176) 
0.342104

>  <r_epik_Ionization_Penalty_Neutral>  (176) 
0.256652

>  <r_epik_State_Penalty>  (176) 
0.676904

>  <r_epik_Charging_Adjusted_Penalty>  (176) 
1.01901

>  <i_epik_Tot_Q>  (176) 
-1

>  <i_epik_Tot_abs_Q>  (176) 
1

>  <s_lp_Force_Field>  (176) 
OPLS3e

>  <r_lp_Energy>  (176) 
22.3878

>  <b_lp_Chiralities_Consistent>  (176) 
1

>  <s_lp_Variant>  (176) 
55:0-2

>  <s_i_glide_gridfile>  (176) 
pfpi4k_grid

>  <i_i_glide_lignum>  (176) 
28

>  <i_i_glide_rotatable_bonds>  (176) 
0

>  <r_i_docking_score>  (176) 
-2.74176

>  <r_i_glide_ligand_efficiency>  (176) 
-0.249251

>  <r_i_glide_ligand_efficiency_sa>  (176) 
-0.554329

>  <r_i_glide_ligand_efficiency_ln>  (176) 
-0.8069

>  <r_i_glide_gscore>  (176) 
-2.74176

>  <r_i_glide_lipo>  (176) 
0

>  <r_i_glide_hbond>  (176) 
0

>  <r_i_glide_metal>  (176) 
-0

>  <r_i_glide_rewards>  (176) 
-2.25

>  <r_i_glide_evdw>  (176) 
-11.4099

>  <r_i_glide_ecoul>  (176) 
1.26736

>  <r_i_glide_erotb>  (176) 
0

>  <r_i_glide_esite>  (176) 
-0.111369

>  <r_i_glide_emodel>  (176) 
-14.3469

>  <r_i_glide_energy>  (176) 
-10.1426

>  <r_i_glide_einternal>  (176) 
0

>  <r_i_glide_intrahb_reward>  (176) 
-0

>  <i_i_glide_confnum>  (176) 
1

>  <i_i_glide_posenum>  (176) 
1

>  <r_i_glide_eff_state_penalty>  (176) 
0

>  <ligand_id>  (176) 
55

>  <original_smiles>  (176) 
Cn1c(=O)cnc2[nH]cnc21

>  <smiles>  (176) 
[H]c1nc2nc([H])c([O-])n(C([H])([H])[H])c-2n1

$$$$
55:2:0
     RDKit          3D

 17 18  0  0  1  0  0  0  0  0999 V2000
   -1.6258    3.1462    7.5759 C   0  0  0  0  0  0  0  0  0  0  0  0
   -1.4124    2.7114    6.1918 N   0  0  0  0  0  0  0  0  0  0  0  0
   -1.6809    1.4280    5.7883 C   0  0  0  0  0  0  0  0  0  0  0  0
   -2.1361    0.5464    6.5148 O   0  0  0  0  0  0  0  0  0  0  0  0
   -1.3941    1.1332    4.3044 C   0  0  0  0  0  0  0  0  0  0  0  0
   -0.9495    1.9805    3.4492 N   0  0  0  0  0  0  0  0  0  0  0  0
   -0.7200    3.2318    3.9622 C   0  0  0  0  0  0  0  0  0  0  0  0
   -0.2406    4.3357    3.2802 N   0  0  0  0  0  0  0  0  0  0  0  0
   -0.1464    5.3329    4.1780 C   0  0  0  0  0  0  0  0  0  0  0  0
   -0.5663    4.9972    5.4013 N   0  0  0  0  0  0  0  0  0  0  0  0
   -0.9114    3.6535    5.2474 C   0  0  0  0  0  0  0  0  0  0  0  0
   -0.0055    4.3757    2.2771 H   0  0  0  0  0  0  0  0  0  0  0  0
   -2.0132    2.3617    8.2309 H   0  0  0  0  0  0  0  0  0  0  0  0
   -2.3356    3.9767    7.6030 H   0  0  0  0  0  0  0  0  0  0  0  0
   -0.6817    3.4924    8.0043 H   0  0  0  0  0  0  0  0  0  0  0  0
   -1.6148    0.1169    3.9577 H   0  0  0  0  0  0  0  0  0  0  0  0
    0.2078    6.3244    3.9301 H   0  0  0  0  0  0  0  0  0  0  0  0
  1  2  1  0
  1 13  1  0
  1 14  1  0
  1 15  1  0
  2 11  1  0
  2  3  1  0
  3  4  2  0
  3  5  1  0
  5  6  2  0
  5 16  1  0
  6  7  1  0
  7 11  2  0
  7  8  1  0
  8 12  1  0
  8  9  1  0
  9 10  2  0
  9 17  1  0
 10 11  1  0
M  END
>  <i_m_ct_stereo_status>  (177) 
1

>  <s_m_source_file>  (177) 
/var/tmp/pbs.5076255.sched01/tmpkddd28mm/459jwin2qj.sdf

>  <i_m_source_file_index>  (177) 
29

>  <i_lp_mmshare_version>  (177) 
48012

>  <i_f3d_flags>  (177) 
0

>  <s_epik_input>  (177) 
bjFbY0hdYyg9TyluKFtDSDNdKWMoYzEyKW5bY0hdW25IXTI=

>  <s_epik_cmdline>  (177) 
J2VwaWtfcHl0aG9uJywgJy1waHQnLCAnMi4wJywgJy1waCcsICc3LjAnLCAnLXRuJywgJzgnLCAnLW1hJywgJzIwMCcsICctaW1hZScsICc8aW5maWxlLm1hZT4nLCAnLW9tYWUnLCAnPG91dGZpbGUubWFlPic=

>  <r_epik_Ionization_Penalty>  (177) 
0.567964

>  <r_epik_Ionization_Penalty_Charging>  (177) 
1.19292e-08

>  <r_epik_Ionization_Penalty_Neutral>  (177) 
0.567964

>  <r_epik_State_Penalty>  (177) 
1.87977

>  <r_epik_Charging_Adjusted_Penalty>  (177) 
1.87977

>  <i_epik_Tot_Q>  (177) 
0

>  <i_epik_Tot_abs_Q>  (177) 
0

>  <s_lp_Force_Field>  (177) 
OPLS3e

>  <r_lp_Energy>  (177) 
30.2345

>  <b_lp_Chiralities_Consistent>  (177) 
1

>  <s_lp_Variant>  (177) 
55:0-3

>  <s_i_glide_gridfile>  (177) 
pfpi4k_grid

>  <i_i_glide_lignum>  (177) 
29

>  <i_i_glide_rotatable_bonds>  (177) 
0

>  <r_i_docking_score>  (177) 
-4.85406

>  <r_i_glide_ligand_efficiency>  (177) 
-0.441278

>  <r_i_glide_ligand_efficiency_sa>  (177) 
-0.981394

>  <r_i_glide_ligand_efficiency_ln>  (177) 
-1.42855

>  <r_i_glide_gscore>  (177) 
-4.85406

>  <r_i_glide_lipo>  (177) 
-0.0218245

>  <r_i_glide_hbond>  (177) 
-0.314438

>  <r_i_glide_metal>  (177) 
-0

>  <r_i_glide_rewards>  (177) 
-2.29633

>  <r_i_glide_evdw>  (177) 
-9.35186

>  <r_i_glide_ecoul>  (177) 
-9.9608

>  <r_i_glide_erotb>  (177) 
0

>  <r_i_glide_esite>  (177) 
-0.259761

>  <r_i_glide_emodel>  (177) 
-26.7589

>  <r_i_glide_energy>  (177) 
-19.3127

>  <r_i_glide_einternal>  (177) 
0

>  <r_i_glide_intrahb_reward>  (177) 
-0

>  <i_i_glide_confnum>  (177) 
1

>  <i_i_glide_posenum>  (177) 
2

>  <r_i_glide_eff_state_penalty>  (177) 
0

>  <ligand_id>  (177) 
55

>  <original_smiles>  (177) 
Cn1c(=O)cnc2[nH]cnc21

>  <smiles>  (177) 
[H]c1nc2c(nc([H])n2[H])n(C([H])([H])[H])c1=O

$$$$
55:2:1
     RDKit          3D

 17 18  0  0  1  0  0  0  0  0999 V2000
   -2.4701    2.3008    7.0314 C   0  0  0  0  0  0  0  0  0  0  0  0
   -1.7845    1.8940    5.7989 N   0  0  0  0  0  0  0  0  0  0  0  0
   -1.6980    0.5808    5.4184 C   0  0  0  0  0  0  0  0  0  0  0  0
   -2.1641   -0.3556    6.0670 O   0  0  0  0  0  0  0  0  0  0  0  0
   -0.9615    0.3258    4.0882 C   0  0  0  0  0  0  0  0  0  0  0  0
   -0.4197    1.2247    3.3510 N   0  0  0  0  0  0  0  0  0  0  0  0
   -0.5336    2.5012    3.8463 C   0  0  0  0  0  0  0  0  0  0  0  0
   -0.0444    3.6629    3.2782 N   0  0  0  0  0  0  0  0  0  0  0  0
   -0.3885    4.6668    4.1008 C   0  0  0  0  0  0  0  0  0  0  0  0
   -1.1004    4.2832    5.1685 N   0  0  0  0  0  0  0  0  0  0  0  0
   -1.1727    2.8988    4.9926 C   0  0  0  0  0  0  0  0  0  0  0  0
    0.3738    3.7647    2.3490 H   0  0  0  0  0  0  0  0  0  0  0  0
   -2.9087    1.4744    7.5868 H   0  0  0  0  0  0  0  0  0  0  0  0
   -3.2767    2.9968    6.8006 H   0  0  0  0  0  0  0  0  0  0  0  0
   -1.7715    2.8032    7.7019 H   0  0  0  0  0  0  0  0  0  0  0  0
   -0.9027   -0.7135    3.7516 H   0  0  0  0  0  0  0  0  0  0  0  0
   -0.1572    5.7030    3.8972 H   0  0  0  0  0  0  0  0  0  0  0  0
  1  2  1  0
  1 13  1  0
  1 14  1  0
  1 15  1  0
  2 11  1  0
  2  3  1  0
  3  4  2  0
  3  5  1  0
  5  6  2  0
  5 16  1  0
  6  7  1  0
  7 11  2  0
  7  8  1  0
  8 12  1  0
  8  9  1  0
  9 10  2  0
  9 17  1  0
 10 11  1  0
M  END
>  <i_m_ct_stereo_status>  (178) 
1

>  <s_m_source_file>  (178) 
/var/tmp/pbs.5076255.sched01/tmpkddd28mm/459jwin2qj.sdf

>  <i_m_source_file_index>  (178) 
29

>  <i_lp_mmshare_version>  (178) 
48012

>  <i_f3d_flags>  (178) 
0

>  <s_epik_input>  (178) 
bjFbY0hdYyg9TyluKFtDSDNdKWMoYzEyKW5bY0hdW25IXTI=

>  <s_epik_cmdline>  (178) 
J2VwaWtfcHl0aG9uJywgJy1waHQnLCAnMi4wJywgJy1waCcsICc3LjAnLCAnLXRuJywgJzgnLCAnLW1hJywgJzIwMCcsICctaW1hZScsICc8aW5maWxlLm1hZT4nLCAnLW9tYWUnLCAnPG91dGZpbGUubWFlPic=

>  <r_epik_Ionization_Penalty>  (178) 
0.567964

>  <r_epik_Ionization_Penalty_Charging>  (178) 
1.19292e-08

>  <r_epik_Ionization_Penalty_Neutral>  (178) 
0.567964

>  <r_epik_State_Penalty>  (178) 
1.87977

>  <r_epik_Charging_Adjusted_Penalty>  (178) 
1.87977

>  <i_epik_Tot_Q>  (178) 
0

>  <i_epik_Tot_abs_Q>  (178) 
0

>  <s_lp_Force_Field>  (178) 
OPLS3e

>  <r_lp_Energy>  (178) 
30.2345

>  <b_lp_Chiralities_Consistent>  (178) 
1

>  <s_lp_Variant>  (178) 
55:0-3

>  <s_i_glide_gridfile>  (178) 
pfpi4k_grid

>  <i_i_glide_lignum>  (178) 
29

>  <i_i_glide_rotatable_bonds>  (178) 
0

>  <r_i_docking_score>  (178) 
-4.63579

>  <r_i_glide_ligand_efficiency>  (178) 
-0.421435

>  <r_i_glide_ligand_efficiency_sa>  (178) 
-0.937264

>  <r_i_glide_ligand_efficiency_ln>  (178) 
-1.36431

>  <r_i_glide_gscore>  (178) 
-4.63579

>  <r_i_glide_lipo>  (178) 
-0.0505356

>  <r_i_glide_hbond>  (178) 
-0.278031

>  <r_i_glide_metal>  (178) 
-0

>  <r_i_glide_rewards>  (178) 
-2.25

>  <r_i_glide_evdw>  (178) 
-10.8724

>  <r_i_glide_ecoul>  (178) 
-8.40284

>  <r_i_glide_erotb>  (178) 
0

>  <r_i_glide_esite>  (178) 
-0.253177

>  <r_i_glide_emodel>  (178) 
-26.369

>  <r_i_glide_energy>  (178) 
-19.2753

>  <r_i_glide_einternal>  (178) 
0

>  <r_i_glide_intrahb_reward>  (178) 
-0

>  <i_i_glide_confnum>  (178) 
2

>  <i_i_glide_posenum>  (178) 
31

>  <r_i_glide_eff_state_penalty>  (178) 
0

>  <ligand_id>  (178) 
55

>  <original_smiles>  (178) 
Cn1c(=O)cnc2[nH]cnc21

>  <smiles>  (178) 
[H]c1nc2c(nc([H])n2[H])n(C([H])([H])[H])c1=O

$$$$
55:2:2
     RDKit          3D

 17 18  0  0  1  0  0  0  0  0999 V2000
   -2.5012    2.7163    6.5123 C   0  0  0  0  0  0  0  0  0  0  0  0
   -1.8831    2.2100    5.2843 N   0  0  0  0  0  0  0  0  0  0  0  0
   -1.7806    2.9809    4.1569 C   0  0  0  0  0  0  0  0  0  0  0  0
   -2.1809    4.1448    4.0673 O   0  0  0  0  0  0  0  0  0  0  0  0
   -1.1070    2.2923    2.9563 C   0  0  0  0  0  0  0  0  0  0  0  0
   -0.6600    1.0865    2.9326 N   0  0  0  0  0  0  0  0  0  0  0  0
   -0.8191    0.4138    4.1168 C   0  0  0  0  0  0  0  0  0  0  0  0
   -0.4324   -0.8833    4.3943 N   0  0  0  0  0  0  0  0  0  0  0  0
   -0.7861   -1.1274    5.6652 C   0  0  0  0  0  0  0  0  0  0  0  0
   -1.3842   -0.0971    6.2730 N   0  0  0  0  0  0  0  0  0  0  0  0
   -1.3869    0.8745    5.2723 C   0  0  0  0  0  0  0  0  0  0  0  0
    0.0293   -1.5140    3.7557 H   0  0  0  0  0  0  0  0  0  0  0  0
   -2.8551    3.7431    6.4307 H   0  0  0  0  0  0  0  0  0  0  0  0
   -1.7815    2.6793    7.3298 H   0  0  0  0  0  0  0  0  0  0  0  0
   -3.3572    2.1032    6.7922 H   0  0  0  0  0  0  0  0  0  0  0  0
   -1.0065    2.9031    2.0612 H   0  0  0  0  0  0  0  0  0  0  0  0
   -0.6050   -2.0747    6.1529 H   0  0  0  0  0  0  0  0  0  0  0  0
  1  2  1  0
  1 13  1  0
  1 14  1  0
  1 15  1  0
  2 11  1  0
  2  3  1  0
  3  4  2  0
  3  5  1  0
  5  6  2  0
  5 16  1  0
  6  7  1  0
  7 11  2  0
  7  8  1  0
  8 12  1  0
  8  9  1  0
  9 10  2  0
  9 17  1  0
 10 11  1  0
M  END
>  <i_m_ct_stereo_status>  (179) 
1

>  <s_m_source_file>  (179) 
/var/tmp/pbs.5076255.sched01/tmpkddd28mm/459jwin2qj.sdf

>  <i_m_source_file_index>  (179) 
29

>  <i_lp_mmshare_version>  (179) 
48012

>  <i_f3d_flags>  (179) 
0

>  <s_epik_input>  (179) 
bjFbY0hdYyg9TyluKFtDSDNdKWMoYzEyKW5bY0hdW25IXTI=

>  <s_epik_cmdline>  (179) 
J2VwaWtfcHl0aG9uJywgJy1waHQnLCAnMi4wJywgJy1waCcsICc3LjAnLCAnLXRuJywgJzgnLCAnLW1hJywgJzIwMCcsICctaW1hZScsICc8aW5maWxlLm1hZT4nLCAnLW9tYWUnLCAnPG91dGZpbGUubWFlPic=

>  <r_epik_Ionization_Penalty>  (179) 
0.567964

>  <r_epik_Ionization_Penalty_Charging>  (179) 
1.19292e-08

>  <r_epik_Ionization_Penalty_Neutral>  (179) 
0.567964

>  <r_epik_State_Penalty>  (179) 
1.87977

>  <r_epik_Charging_Adjusted_Penalty>  (179) 
1.87977

>  <i_epik_Tot_Q>  (179) 
0

>  <i_epik_Tot_abs_Q>  (179) 
0

>  <s_lp_Force_Field>  (179) 
OPLS3e

>  <r_lp_Energy>  (179) 
30.2345

>  <b_lp_Chiralities_Consistent>  (179) 
1

>  <s_lp_Variant>  (179) 
55:0-3

>  <s_i_glide_gridfile>  (179) 
pfpi4k_grid

>  <i_i_glide_lignum>  (179) 
29

>  <i_i_glide_rotatable_bonds>  (179) 
0

>  <r_i_docking_score>  (179) 
-4.39286

>  <r_i_glide_ligand_efficiency>  (179) 
-0.399351

>  <r_i_glide_ligand_efficiency_sa>  (179) 
-0.888149

>  <r_i_glide_ligand_efficiency_ln>  (179) 
-1.29282

>  <r_i_glide_gscore>  (179) 
-4.39286

>  <r_i_glide_lipo>  (179) 
-0.153536

>  <r_i_glide_hbond>  (179) 
-0.219078

>  <r_i_glide_metal>  (179) 
-0

>  <r_i_glide_rewards>  (179) 
-2.25

>  <r_i_glide_evdw>  (179) 
-14.1477

>  <r_i_glide_ecoul>  (179) 
-6.30231

>  <r_i_glide_erotb>  (179) 
0

>  <r_i_glide_esite>  (179) 
-0.117518

>  <r_i_glide_emodel>  (179) 
-27.1947

>  <r_i_glide_energy>  (179) 
-20.45

>  <r_i_glide_einternal>  (179) 
0

>  <r_i_glide_intrahb_reward>  (179) 
-0

>  <i_i_glide_confnum>  (179) 
1

>  <i_i_glide_posenum>  (179) 
9

>  <r_i_glide_eff_state_penalty>  (179) 
0

>  <ligand_id>  (179) 
55

>  <original_smiles>  (179) 
Cn1c(=O)cnc2[nH]cnc21

>  <smiles>  (179) 
[H]c1nc2c(nc([H])n2[H])n(C([H])([H])[H])c1=O

$$$$
56:0:0
     RDKit          3D

 84 91  0  0  1  0  0  0  0  0999 V2000
   -1.1331    0.9633    3.4086 C   0  0  0  0  0  0  0  0  0  0  0  0
   -0.3144    0.1119    4.1901 O   0  0  0  0  0  0  0  0  0  0  0  0
   -0.8647   -0.6961    5.0982 C   0  0  0  0  0  0  0  0  0  0  0  0
   -2.0565   -0.7766    5.3925 O   0  0  0  0  0  0  0  0  0  0  0  0
    0.1777   -1.5437    5.8153 C   0  0  0  0  0  0  0  0  0  0  0  0
    0.2828   -3.0055    5.2947 C   0  0  0  0  0  0  0  0  0  0  0  0
    1.4982   -3.9381    5.7878 C   0  0  2  0  0  0  0  0  0  0  0  0
    2.8144   -3.6477    4.8758 C   0  0  2  0  0  0  0  0  0  0  0  0
    2.7043   -3.4122    3.3175 C   0  0  0  0  0  0  0  0  0  0  0  0
    3.9513   -3.8007    2.4306 C   0  0  1  0  0  0  0  0  0  0  0  0
    4.0645   -2.8420    1.2254 C   0  0  0  0  0  0  0  0  0  0  0  0
    5.2540   -3.6620    3.2416 C   0  0  0  0  0  0  0  0  0  0  0  0
    5.2983   -4.6385    4.4136 C   0  0  0  0  0  0  0  0  0  0  0  0
    4.0038   -4.5813    5.2652 C   0  0  2  0  0  0  0  0  0  0  0  0
    3.5400   -5.8611    6.0290 C   0  0  1  0  0  0  0  0  0  0  0  0
    2.9763   -5.0305    7.3274 C   0  0  2  0  0  0  0  0  0  0  0  0
    3.9729   -4.9191    8.5099 C   0  0  0  0  0  0  0  0  0  0  0  0
    2.0034   -5.9881    7.4593 C   0  0  0  0  0  0  0  0  0  0  0  0
    1.2231   -5.5289    5.8150 C   0  0  2  0  0  0  0  0  0  0  0  0
    0.2308   -5.9032    4.5645 C   0  0  0  0  0  0  0  0  0  0  0  0
    0.9638   -6.5567    3.4269 C   0  0  0  0  0  0  0  0  0  0  0  0
    2.0422   -7.4862    3.9650 C   0  0  1  0  0  0  0  0  0  0  0  0
    1.4084   -8.9239    3.8579 C   0  0  0  0  0  0  0  0  0  0  0  0
    3.2710   -7.4253    2.9997 C   0  0  1  0  0  0  0  0  0  0  0  0
    3.0295   -7.9990    1.6054 C   0  0  2  0  0  0  0  0  0  0  0  0
    3.3697   -9.4268    1.2630 C   0  0  0  0  0  0  0  0  0  0  0  0
    4.2133   -8.3353    0.8711 O   0  0  0  0  0  0  0  0  0  0  0  0
    3.5624   -6.0516    2.9982 O   0  0  0  0  0  0  0  0  0  0  0  0
    3.8374   -5.2499    1.8700 C   0  0  0  0  0  0  0  0  0  0  0  0
    2.3661   -7.0685    5.5168 C   0  0  1  0  0  0  0  0  0  0  0  0
    2.9969   -8.4247    6.0514 C   0  0  0  0  0  0  0  0  0  0  0  0
    0.8576   -6.7658    6.4702 C   0  0  1  0  0  0  0  0  0  0  0  0
   -0.2793   -5.6686    7.1865 C   0  0  0  0  0  0  0  0  0  0  0  0
    0.3049   -4.2740    7.8511 C   0  0  0  0  0  0  0  0  0  0  0  0
    1.7965   -3.8936    7.2628 C   0  0  2  0  0  0  0  0  0  0  0  0
    2.3416   -2.5708    7.8755 C   0  0  0  0  0  0  0  0  0  0  0  0
   -0.5044    1.5832    2.7678 H   0  0  0  0  0  0  0  0  0  0  0  0
   -1.7589    1.6205    4.0144 H   0  0  0  0  0  0  0  0  0  0  0  0
   -1.7605    0.3552    2.7646 H   0  0  0  0  0  0  0  0  0  0  0  0
    1.1454   -1.0379    5.7679 H   0  0  0  0  0  0  0  0  0  0  0  0
   -0.1486   -1.5178    6.8575 H   0  0  0  0  0  0  0  0  0  0  0  0
   -0.6782   -3.4658    5.5207 H   0  0  0  0  0  0  0  0  0  0  0  0
    0.2707   -2.9581    4.2105 H   0  0  0  0  0  0  0  0  0  0  0  0
    3.1377   -2.6611    5.2055 H   0  0  0  0  0  0  0  0  0  0  0  0
    1.7806   -3.8151    2.9156 H   0  0  0  0  0  0  0  0  0  0  0  0
    2.5341   -2.3396    3.2033 H   0  0  0  0  0  0  0  0  0  0  0  0
    4.9177   -3.0970    0.5899 H   0  0  0  0  0  0  0  0  0  0  0  0
    4.2120   -1.8104    1.5515 H   0  0  0  0  0  0  0  0  0  0  0  0
    3.1703   -2.8740    0.6052 H   0  0  0  0  0  0  0  0  0  0  0  0
    6.1319   -3.7916    2.6119 H   0  0  0  0  0  0  0  0  0  0  0  0
    5.3381   -2.6505    3.6388 H   0  0  0  0  0  0  0  0  0  0  0  0
    5.5324   -5.6533    4.0966 H   0  0  0  0  0  0  0  0  0  0  0  0
    6.1579   -4.3788    5.0434 H   0  0  0  0  0  0  0  0  0  0  0  0
    4.4555   -3.9735    6.0436 H   0  0  0  0  0  0  0  0  0  0  0  0
    4.4685   -6.3952    6.3122 H   0  0  0  0  0  0  0  0  0  0  0  0
    3.4615   -4.7103    9.4525 H   0  0  0  0  0  0  0  0  0  0  0  0
    4.6835   -4.1095    8.3351 H   0  0  0  0  0  0  0  0  0  0  0  0
    4.5502   -5.8365    8.6402 H   0  0  0  0  0  0  0  0  0  0  0  0
    2.5563   -6.8925    7.8068 H   0  0  0  0  0  0  0  0  0  0  0  0
    1.6284   -5.9691    8.5037 H   0  0  0  0  0  0  0  0  0  0  0  0
   -0.6958   -6.4416    4.7562 H   0  0  0  0  0  0  0  0  0  0  0  0
   -0.1874   -5.0205    4.0933 H   0  0  0  0  0  0  0  0  0  0  0  0
    0.2216   -7.0838    2.8172 H   0  0  0  0  0  0  0  0  0  0  0  0
    1.3157   -5.8083    2.7426 H   0  0  0  0  0  0  0  0  0  0  0  0
    2.1291   -9.7236    4.0077 H   0  0  0  0  0  0  0  0  0  0  0  0
    0.9771   -9.1202    2.8758 H   0  0  0  0  0  0  0  0  0  0  0  0
    0.5991   -9.0847    4.5711 H   0  0  0  0  0  0  0  0  0  0  0  0
    4.1166   -7.9508    3.4322 H   0  0  0  0  0  0  0  0  0  0  0  0
    2.2377   -7.5292    1.0206 H   0  0  0  0  0  0  0  0  0  0  0  0
    3.7859  -10.0828    2.0254 H   0  0  0  0  0  0  0  0  0  0  0  0
    2.8085   -9.8920    0.4590 H   0  0  0  0  0  0  0  0  0  0  0  0
    3.0357   -5.3048    1.1354 H   0  0  0  0  0  0  0  0  0  0  0  0
    4.7630   -5.5781    1.3871 H   0  0  0  0  0  0  0  0  0  0  0  0
    2.2217   -9.1535    6.3153 H   0  0  0  0  0  0  0  0  0  0  0  0
    3.6129   -8.3318    6.9423 H   0  0  0  0  0  0  0  0  0  0  0  0
    3.6772   -8.8924    5.3354 H   0  0  0  0  0  0  0  0  0  0  0  0
    0.2109   -7.5863    6.1223 H   0  0  0  0  0  0  0  0  0  0  0  0
   -1.1571   -5.4254    6.5656 H   0  0  0  0  0  0  0  0  0  0  0  0
   -0.7518   -6.2265    8.0103 H   0  0  0  0  0  0  0  0  0  0  0  0
   -0.4341   -3.4619    7.7438 H   0  0  0  0  0  0  0  0  0  0  0  0
    0.3745   -4.3906    8.9467 H   0  0  0  0  0  0  0  0  0  0  0  0
    2.5639   -2.7142    8.9373 H   0  0  0  0  0  0  0  0  0  0  0  0
    1.6665   -1.7279    7.8596 H   0  0  0  0  0  0  0  0  0  0  0  0
    3.2769   -2.2680    7.3996 H   0  0  0  0  0  0  0  0  0  0  0  0
  1  2  1  0
  1 37  1  0
  1 38  1  0
  1 39  1  0
  2  3  1  0
  3  4  2  0
  3  5  1  0
  5  6  1  0
  5 40  1  0
  5 41  1  0
  7  6  1  1
  6 42  1  0
  6 43  1  0
  7 19  1  0
  7 35  1  0
  7  8  1  0
  8 14  1  0
  8  9  1  0
  8 44  1  1
  9 10  1  0
  9 45  1  0
  9 46  1  0
 10 29  1  0
 10 11  1  6
 10 12  1  0
 11 47  1  0
 11 48  1  0
 11 49  1  0
 12 13  1  0
 12 50  1  0
 12 51  1  0
 13 14  1  0
 13 52  1  0
 13 53  1  0
 14 15  1  0
 14 54  1  1
 15 30  1  0
 15 16  1  0
 15 55  1  1
 16 35  1  0
 16 17  1  1
 16 18  1  0
 17 56  1  0
 17 57  1  0
 17 58  1  0
 19 18  1  6
 18 59  1  0
 18 60  1  0
 19 32  1  0
 19 20  1  0
 20 21  1  0
 20 61  1  0
 20 62  1  0
 21 22  1  0
 21 63  1  0
 21 64  1  0
 22 23  1  1
 22 24  1  0
 22 30  1  0
 23 65  1  0
 23 66  1  0
 23 67  1  0
 24 25  1  0
 24 28  1  0
 24 68  1  1
 25 27  1  0
 25 26  1  0
 25 69  1  6
 26 27  1  0
 26 70  1  0
 26 71  1  0
 28 29  1  0
 29 72  1  0
 29 73  1  0
 30 31  1  1
 30 32  1  0
 31 74  1  0
 31 75  1  0
 31 76  1  0
 32 33  1  0
 32 77  1  6
 33 34  1  0
 33 78  1  0
 33 79  1  0
 34 35  1  0
 34 80  1  0
 34 81  1  0
 35 36  1  1
 36 82  1  0
 36 83  1  0
 36 84  1  0
M  END
>  <i_m_ct_stereo_status>  (180) 
1

>  <s_m_source_file>  (180) 
/var/tmp/pbs.5076255.sched01/tmpkddd28mm/459jwin2qj.sdf

>  <i_m_source_file_index>  (180) 
30

>  <i_lp_mmshare_version>  (180) 
48012

>  <i_f3d_flags>  (180) 
0

>  <s_epik_input>  (180) 
W0NIM11PQyg9TylbQ0gyXVtDSDJdW0NAQF0xKEMyMzQpW0NASF01W0NASF02W0NASF03W0NAXShbQ0gzXSkoW0NIMl0yKVtDQF0xKFtDSDNdKVtDSDJdW0NIMl1bQ0BASF00W0NAQF03KFtDSDNdKVtDQEBdKFtDSDNdKShbQ0gyXVtDSDJdMylbQ0BASF0oW0NAQEhdOFtDSDJdTzgpT1tDSDJdW0NAXShbQ0gyXTUpKFtDSDNdKVtDSDJdW0NIMl02

>  <s_epik_cmdline>  (180) 
J2VwaWtfcHl0aG9uJywgJy1waHQnLCAnMi4wJywgJy1waCcsICc3LjAnLCAnLXRuJywgJzgnLCAnLW1hJywgJzIwMCcsICctaW1hZScsICc8aW5maWxlLm1hZT4nLCAnLW9tYWUnLCAnPG91dGZpbGUubWFlPic=

>  <r_lp_tautomer_probability>  (180) 
1

>  <r_epik_Ionization_Penalty>  (180) 
2.66171e-11

>  <r_epik_Ionization_Penalty_Charging>  (180) 
0

>  <r_epik_Ionization_Penalty_Neutral>  (180) 
2.66171e-11

>  <r_epik_State_Penalty>  (180) 
-0

>  <r_epik_Charging_Adjusted_Penalty>  (180) 
0

>  <i_epik_Tot_Q>  (180) 
0

>  <i_epik_Tot_abs_Q>  (180) 
0

>  <s_epik_Chemistry_Notes>  (180) 
This compound has an ester and may undergo hydrolysis at high or low pH.

>  <s_lp_Force_Field>  (180) 
OPLS3e

>  <r_lp_Energy>  (180) 
667.314

>  <b_lp_Chiralities_Consistent>  (180) 
1

>  <s_lp_Variant>  (180) 
56:0-1

>  <s_i_glide_gridfile>  (180) 
pfpi4k_grid

>  <i_i_glide_lignum>  (180) 
30

>  <i_i_glide_rotatable_bonds>  (180) 
5

>  <r_i_docking_score>  (180) 
-1.25891

>  <r_i_glide_ligand_efficiency>  (180) 
-0.0349698

>  <r_i_glide_ligand_efficiency_sa>  (180) 
-0.115468

>  <r_i_glide_ligand_efficiency_ln>  (180) 
-0.274661

>  <r_i_glide_gscore>  (180) 
-1.25891

>  <r_i_glide_lipo>  (180) 
-0.0736733

>  <r_i_glide_hbond>  (180) 
0

>  <r_i_glide_metal>  (180) 
-0

>  <r_i_glide_rewards>  (180) 
-0.022356

>  <r_i_glide_evdw>  (180) 
-21.3571

>  <r_i_glide_ecoul>  (180) 
-2.62933

>  <r_i_glide_erotb>  (180) 
0.33063

>  <r_i_glide_esite>  (180) 
-0.0312577

>  <r_i_glide_emodel>  (180) 
-23.782

>  <r_i_glide_energy>  (180) 
-23.9865

>  <r_i_glide_einternal>  (180) 
3.124

>  <r_i_glide_intrahb_reward>  (180) 
-0

>  <i_i_glide_confnum>  (180) 
2

>  <i_i_glide_posenum>  (180) 
9

>  <r_i_glide_eff_state_penalty>  (180) 
0

>  <ligand_id>  (180) 
56

>  <original_smiles>  (180) 
COC(=O)CCC12C3CC4(C)CCC3C3C5(C)CC16CCC(C)(C(C1CO1)OC4)C3(C)C6CCC52C

>  <smiles>  (180) 
[H]C([H])([H])OC(=O)C([H])([H])C([H])([H])C12C3([H])C([H])([H])C4(C([H])([H])[H])C([H])([H])OC([H])(C5([H])OC5([H])[H])C5(C([H])([H])[H])C([H])([H])C([H])([H])C16C([H])([H])C1(C([H])([H])[H])C([H])(C3([H])C([H])([H])C4([H])[H])C5(C([H])([H])[H])C6([H])C([H])([H])C([H])([H])C12C([H])([H])[H]

$$$$
56:0:1
     RDKit          3D

 84 91  0  0  1  0  0  0  0  0999 V2000
   -1.6890    1.1469    4.8008 C   0  0  0  0  0  0  0  0  0  0  0  0
   -0.6078    0.2279    4.7730 O   0  0  0  0  0  0  0  0  0  0  0  0
   -0.7852   -1.0362    5.1930 C   0  0  0  0  0  0  0  0  0  0  0  0
   -1.8347   -1.5044    5.6371 O   0  0  0  0  0  0  0  0  0  0  0  0
    0.5180   -1.8531    5.1051 C   0  0  0  0  0  0  0  0  0  0  0  0
    0.4042   -3.3641    5.4590 C   0  0  0  0  0  0  0  0  0  0  0  0
    1.7104   -4.2883    5.6087 C   0  0  2  0  0  0  0  0  0  0  0  0
    2.2581   -4.7721    4.1646 C   0  0  2  0  0  0  0  0  0  0  0  0
    1.2694   -5.2136    3.0230 C   0  0  0  0  0  0  0  0  0  0  0  0
    1.7915   -6.2505    1.9424 C   0  0  1  0  0  0  0  0  0  0  0  0
    1.1359   -5.9588    0.5727 C   0  0  0  0  0  0  0  0  0  0  0  0
    3.3222   -6.0919    1.7604 C   0  0  0  0  0  0  0  0  0  0  0  0
    4.0812   -6.4492    3.0424 C   0  0  0  0  0  0  0  0  0  0  0  0
    3.4971   -5.7104    4.2790 C   0  0  2  0  0  0  0  0  0  0  0  0
    3.6338   -6.3643    5.6820 C   0  0  1  0  0  0  0  0  0  0  0  0
    3.8707   -4.9378    6.4727 C   0  0  2  0  0  0  0  0  0  0  0  0
    5.3523   -4.5793    6.7198 C   0  0  0  0  0  0  0  0  0  0  0  0
    3.2274   -5.4487    7.5349 C   0  0  0  0  0  0  0  0  0  0  0  0
    1.5641   -5.5696    6.5801 C   0  0  2  0  0  0  0  0  0  0  0  0
    0.0689   -6.1977    6.3981 C   0  0  0  0  0  0  0  0  0  0  0  0
    0.0473   -7.4464    5.5562 C   0  0  0  0  0  0  0  0  0  0  0  0
    1.2894   -8.2932    5.8328 C   0  0  1  0  0  0  0  0  0  0  0  0
    0.7752   -9.4151    6.8104 C   0  0  0  0  0  0  0  0  0  0  0  0
    1.7265   -8.9628    4.4971 C   0  0  1  0  0  0  0  0  0  0  0  0
    0.7485  -10.0012    3.9470 C   0  0  2  0  0  0  0  0  0  0  0  0
    0.9834  -11.4754    4.1677 C   0  0  0  0  0  0  0  0  0  0  0  0
    1.2766  -10.8451    2.9138 O   0  0  0  0  0  0  0  0  0  0  0  0
    1.9095   -7.8459    3.6627 O   0  0  0  0  0  0  0  0  0  0  0  0
    1.4541   -7.7181    2.3339 C   0  0  0  0  0  0  0  0  0  0  0  0
    2.4261   -7.3589    6.5386 C   0  0  1  0  0  0  0  0  0  0  0  0
    3.3127   -8.4380    7.2753 C   0  0  0  0  0  0  0  0  0  0  0  0
    1.7102   -6.2741    7.8318 C   0  0  1  0  0  0  0  0  0  0  0  0
    1.1426   -4.7158    8.3853 C   0  0  0  0  0  0  0  0  0  0  0  0
    1.9419   -3.3647    7.8443 C   0  0  0  0  0  0  0  0  0  0  0  0
    2.8029   -3.6871    6.4688 C   0  0  2  0  0  0  0  0  0  0  0  0
    3.5215   -2.4169    5.9393 C   0  0  0  0  0  0  0  0  0  0  0  0
   -1.3560    2.1296    4.4627 H   0  0  0  0  0  0  0  0  0  0  0  0
   -2.1126    1.2598    5.8028 H   0  0  0  0  0  0  0  0  0  0  0  0
   -2.4729    0.8105    4.1242 H   0  0  0  0  0  0  0  0  0  0  0  0
    0.9873   -1.7080    4.1304 H   0  0  0  0  0  0  0  0  0  0  0  0
    1.1563   -1.3478    5.8232 H   0  0  0  0  0  0  0  0  0  0  0  0
   -0.1980   -3.4222    6.3629 H   0  0  0  0  0  0  0  0  0  0  0  0
   -0.2532   -3.8034    4.7106 H   0  0  0  0  0  0  0  0  0  0  0  0
    2.6626   -3.8584    3.7292 H   0  0  0  0  0  0  0  0  0  0  0  0
    0.3015   -5.5164    3.4030 H   0  0  0  0  0  0  0  0  0  0  0  0
    1.0228   -4.2848    2.5125 H   0  0  0  0  0  0  0  0  0  0  0  0
    1.4547   -6.6536   -0.1957 H   0  0  0  0  0  0  0  0  0  0  0  0
    1.4168   -4.9775    0.1890 H   0  0  0  0  0  0  0  0  0  0  0  0
    0.0509   -6.0612    0.6208 H   0  0  0  0  0  0  0  0  0  0  0  0
    3.6948   -6.6995    0.9317 H   0  0  0  0  0  0  0  0  0  0  0  0
    3.5638   -5.0652    1.4889 H   0  0  0  0  0  0  0  0  0  0  0  0
    4.1193   -7.5310    3.1889 H   0  0  0  0  0  0  0  0  0  0  0  0
    5.1278   -6.1865    2.9080 H   0  0  0  0  0  0  0  0  0  0  0  0
    4.2879   -4.9573    4.2797 H   0  0  0  0  0  0  0  0  0  0  0  0
    4.5633   -6.9368    5.6745 H   0  0  0  0  0  0  0  0  0  0  0  0
    5.4664   -3.8614    7.5327 H   0  0  0  0  0  0  0  0  0  0  0  0
    5.7947   -4.1348    5.8250 H   0  0  0  0  0  0  0  0  0  0  0  0
    5.9490   -5.4613    6.9689 H   0  0  0  0  0  0  0  0  0  0  0  0
    3.8750   -6.2350    7.9537 H   0  0  0  0  0  0  0  0  0  0  0  0
    3.4730   -4.8977    8.4514 H   0  0  0  0  0  0  0  0  0  0  0  0
   -0.5527   -6.3428    7.2920 H   0  0  0  0  0  0  0  0  0  0  0  0
   -0.5819   -5.5325    5.8574 H   0  0  0  0  0  0  0  0  0  0  0  0
   -0.8704   -8.0019    5.6801 H   0  0  0  0  0  0  0  0  0  0  0  0
   -0.0548   -7.1544    4.5190 H   0  0  0  0  0  0  0  0  0  0  0  0
    1.4896  -10.2283    6.9331 H   0  0  0  0  0  0  0  0  0  0  0  0
   -0.1293   -9.9054    6.4505 H   0  0  0  0  0  0  0  0  0  0  0  0
    0.5335   -9.0447    7.8065 H   0  0  0  0  0  0  0  0  0  0  0  0
    2.6920   -9.4441    4.6206 H   0  0  0  0  0  0  0  0  0  0  0  0
   -0.2729   -9.6692    3.7748 H   0  0  0  0  0  0  0  0  0  0  0  0
    1.8560  -11.7998    4.7313 H   0  0  0  0  0  0  0  0  0  0  0  0
    0.1368  -12.1613    4.1444 H   0  0  0  0  0  0  0  0  0  0  0  0
    0.3799   -7.8832    2.2715 H   0  0  0  0  0  0  0  0  0  0  0  0
    1.9453   -8.4438    1.6837 H   0  0  0  0  0  0  0  0  0  0  0  0
    2.8677   -8.7557    8.2192 H   0  0  0  0  0  0  0  0  0  0  0  0
    4.3232   -8.1252    7.5268 H   0  0  0  0  0  0  0  0  0  0  0  0
    3.4784   -9.3209    6.6630 H   0  0  0  0  0  0  0  0  0  0  0  0
    1.0250   -6.9694    8.3352 H   0  0  0  0  0  0  0  0  0  0  0  0
    0.0668   -4.5666    8.2779 H   0  0  0  0  0  0  0  0  0  0  0  0
    1.2588   -4.7331    9.4680 H   0  0  0  0  0  0  0  0  0  0  0  0
    1.2505   -2.5308    7.7393 H   0  0  0  0  0  0  0  0  0  0  0  0
    2.6275   -3.0194    8.6196 H   0  0  0  0  0  0  0  0  0  0  0  0
    4.3173   -2.1190    6.6273 H   0  0  0  0  0  0  0  0  0  0  0  0
    2.8838   -1.5351    5.8206 H   0  0  0  0  0  0  0  0  0  0  0  0
    4.0259   -2.6008    4.9890 H   0  0  0  0  0  0  0  0  0  0  0  0
  1  2  1  0
  1 37  1  0
  1 38  1  0
  1 39  1  0
  2  3  1  0
  3  4  2  0
  3  5  1  0
  5  6  1  0
  5 40  1  0
  5 41  1  0
  7  6  1  6
  6 42  1  0
  6 43  1  0
  7 19  1  0
  7 35  1  0
  7  8  1  0
  8 14  1  0
  8  9  1  0
  8 44  1  6
  9 10  1  0
  9 45  1  0
  9 46  1  0
 10 29  1  0
 10 11  1  6
 10 12  1  0
 11 47  1  0
 11 48  1  0
 11 49  1  0
 12 13  1  0
 12 50  1  0
 12 51  1  0
 13 14  1  0
 13 52  1  0
 13 53  1  0
 14 15  1  0
 14 54  1  1
 15 30  1  0
 15 16  1  0
 15 55  1  6
 16 35  1  0
 16 17  1  1
 16 18  1  0
 17 56  1  0
 17 57  1  0
 17 58  1  0
 19 18  1  6
 18 59  1  0
 18 60  1  0
 19 32  1  0
 19 20  1  0
 20 21  1  0
 20 61  1  0
 20 62  1  0
 21 22  1  0
 21 63  1  0
 21 64  1  0
 22 23  1  1
 22 24  1  0
 22 30  1  0
 23 65  1  0
 23 66  1  0
 23 67  1  0
 24 25  1  0
 24 28  1  0
 24 68  1  1
 25 27  1  0
 25 26  1  0
 25 69  1  6
 26 27  1  0
 26 70  1  0
 26 71  1  0
 28 29  1  0
 29 72  1  0
 29 73  1  0
 30 31  1  1
 30 32  1  0
 31 74  1  0
 31 75  1  0
 31 76  1  0
 32 33  1  0
 32 77  1  6
 33 34  1  0
 33 78  1  0
 33 79  1  0
 34 35  1  0
 34 80  1  0
 34 81  1  0
 35 36  1  6
 36 82  1  0
 36 83  1  0
 36 84  1  0
M  END
>  <i_m_ct_stereo_status>  (181) 
1

>  <s_m_source_file>  (181) 
/var/tmp/pbs.5076255.sched01/tmpkddd28mm/459jwin2qj.sdf

>  <i_m_source_file_index>  (181) 
30

>  <i_lp_mmshare_version>  (181) 
48012

>  <i_f3d_flags>  (181) 
0

>  <s_epik_input>  (181) 
W0NIM11PQyg9TylbQ0gyXVtDSDJdW0NAQF0xKEMyMzQpW0NASF01W0NASF02W0NASF03W0NAXShbQ0gzXSkoW0NIMl0yKVtDQF0xKFtDSDNdKVtDSDJdW0NIMl1bQ0BASF00W0NAQF03KFtDSDNdKVtDQEBdKFtDSDNdKShbQ0gyXVtDSDJdMylbQ0BASF0oW0NAQEhdOFtDSDJdTzgpT1tDSDJdW0NAXShbQ0gyXTUpKFtDSDNdKVtDSDJdW0NIMl02

>  <s_epik_cmdline>  (181) 
J2VwaWtfcHl0aG9uJywgJy1waHQnLCAnMi4wJywgJy1waCcsICc3LjAnLCAnLXRuJywgJzgnLCAnLW1hJywgJzIwMCcsICctaW1hZScsICc8aW5maWxlLm1hZT4nLCAnLW9tYWUnLCAnPG91dGZpbGUubWFlPic=

>  <r_lp_tautomer_probability>  (181) 
1

>  <r_epik_Ionization_Penalty>  (181) 
2.66171e-11

>  <r_epik_Ionization_Penalty_Charging>  (181) 
0

>  <r_epik_Ionization_Penalty_Neutral>  (181) 
2.66171e-11

>  <r_epik_State_Penalty>  (181) 
-0

>  <r_epik_Charging_Adjusted_Penalty>  (181) 
0

>  <i_epik_Tot_Q>  (181) 
0

>  <i_epik_Tot_abs_Q>  (181) 
0

>  <s_epik_Chemistry_Notes>  (181) 
This compound has an ester and may undergo hydrolysis at high or low pH.

>  <s_lp_Force_Field>  (181) 
OPLS3e

>  <r_lp_Energy>  (181) 
667.314

>  <b_lp_Chiralities_Consistent>  (181) 
1

>  <s_lp_Variant>  (181) 
56:0-1

>  <s_i_glide_gridfile>  (181) 
pfpi4k_grid

>  <i_i_glide_lignum>  (181) 
30

>  <i_i_glide_rotatable_bonds>  (181) 
5

>  <r_i_docking_score>  (181) 
-1.21093

>  <r_i_glide_ligand_efficiency>  (181) 
-0.0336369

>  <r_i_glide_ligand_efficiency_sa>  (181) 
-0.111067

>  <r_i_glide_ligand_efficiency_ln>  (181) 
-0.264192

>  <r_i_glide_gscore>  (181) 
-1.21093

>  <r_i_glide_lipo>  (181) 
-0.12744

>  <r_i_glide_hbond>  (181) 
0

>  <r_i_glide_metal>  (181) 
-0

>  <r_i_glide_rewards>  (181) 
-0.022356

>  <r_i_glide_evdw>  (181) 
-21.0474

>  <r_i_glide_ecoul>  (181) 
-2.05587

>  <r_i_glide_erotb>  (181) 
0.33063

>  <r_i_glide_esite>  (181) 
-0.0310137

>  <r_i_glide_emodel>  (181) 
-22.636

>  <r_i_glide_energy>  (181) 
-23.1033

>  <r_i_glide_einternal>  (181) 
2.0436

>  <r_i_glide_intrahb_reward>  (181) 
-0

>  <i_i_glide_confnum>  (181) 
3

>  <i_i_glide_posenum>  (181) 
17

>  <r_i_glide_eff_state_penalty>  (181) 
0

>  <ligand_id>  (181) 
56

>  <original_smiles>  (181) 
COC(=O)CCC12C3CC4(C)CCC3C3C5(C)CC16CCC(C)(C(C1CO1)OC4)C3(C)C6CCC52C

>  <smiles>  (181) 
[H]C([H])([H])OC(=O)C([H])([H])C([H])([H])C12C3([H])C([H])([H])C4(C([H])([H])[H])C([H])([H])OC([H])(C5([H])OC5([H])[H])C5(C([H])([H])[H])C([H])([H])C([H])([H])C16C([H])([H])C1(C([H])([H])[H])C([H])(C3([H])C([H])([H])C4([H])[H])C5(C([H])([H])[H])C6([H])C([H])([H])C([H])([H])C12C([H])([H])[H]

$$$$
56:0:2
     RDKit          3D

 84 91  0  0  1  0  0  0  0  0999 V2000
   -1.7842    1.6858    4.5173 C   0  0  0  0  0  0  0  0  0  0  0  0
   -0.7549    0.7123    4.5034 O   0  0  0  0  0  0  0  0  0  0  0  0
   -1.0019   -0.5432    4.9067 C   0  0  0  0  0  0  0  0  0  0  0  0
   -2.0661   -0.9493    5.3671 O   0  0  0  0  0  0  0  0  0  0  0  0
    0.2786   -1.3800    4.8779 C   0  0  0  0  0  0  0  0  0  0  0  0
    0.1379   -2.9004    5.2686 C   0  0  0  0  0  0  0  0  0  0  0  0
    1.4074   -3.7707    5.7519 C   0  0  2  0  0  0  0  0  0  0  0  0
    2.2813   -4.2913    4.4831 C   0  0  2  0  0  0  0  0  0  0  0  0
    1.6083   -4.7792    3.1436 C   0  0  0  0  0  0  0  0  0  0  0  0
    2.3892   -5.8306    2.2524 C   0  0  1  0  0  0  0  0  0  0  0  0
    2.0850   -5.5834    0.7585 C   0  0  0  0  0  0  0  0  0  0  0  0
    3.9108   -5.6546    2.4345 C   0  0  0  0  0  0  0  0  0  0  0  0
    4.3310   -5.9724    3.8715 C   0  0  0  0  0  0  0  0  0  0  0  0
    3.4685   -5.2099    4.9205 C   0  0  2  0  0  0  0  0  0  0  0  0
    3.2716   -5.8348    6.3281 C   0  0  1  0  0  0  0  0  0  0  0  0
    3.3013   -4.3823    7.1050 C   0  0  2  0  0  0  0  0  0  0  0  0
    4.6836   -4.0023    7.7000 C   0  0  0  0  0  0  0  0  0  0  0  0
    2.4205   -4.8798    8.0076 C   0  0  0  0  0  0  0  0  0  0  0  0
    1.0426   -5.0550    6.6852 C   0  0  2  0  0  0  0  0  0  0  0  0
   -0.3512   -5.7208    6.1914 C   0  0  0  0  0  0  0  0  0  0  0  0
   -0.1554   -6.9702    5.3712 C   0  0  0  0  0  0  0  0  0  0  0  0
    0.9865   -7.7942    5.9741 C   0  0  1  0  0  0  0  0  0  0  0  0
    0.2665   -8.9067    6.8290 C   0  0  0  0  0  0  0  0  0  0  0  0
    1.7315   -8.4898    4.7887 C   0  0  1  0  0  0  0  0  0  0  0  0
    0.9329   -9.5581    4.0591 C   0  0  2  0  0  0  0  0  0  0  0  0
    1.0372  -11.0191    4.4193 C   0  0  0  0  0  0  0  0  0  0  0  0
    1.7031  -10.4710    3.2715 O   0  0  0  0  0  0  0  0  0  0  0  0
    2.0966   -7.3820    4.0004 O   0  0  0  0  0  0  0  0  0  0  0  0
    1.9754   -7.2954    2.5946 C   0  0  0  0  0  0  0  0  0  0  0  0
    1.8982   -6.8286    6.8924 C   0  0  1  0  0  0  0  0  0  0  0  0
    2.6094   -7.8702    7.8521 C   0  0  0  0  0  0  0  0  0  0  0  0
    0.8979   -5.7270    7.9619 C   0  0  1  0  0  0  0  0  0  0  0  0
    0.2080   -4.1736    8.3166 C   0  0  0  0  0  0  0  0  0  0  0  0
    1.1020   -2.8228    7.9433 C   0  0  0  0  0  0  0  0  0  0  0  0
    2.2747   -3.1471    6.8193 C   0  0  2  0  0  0  0  0  0  0  0  0
    3.1462   -1.8848    6.4773 C   0  0  0  0  0  0  0  0  0  0  0  0
   -1.4104    2.6382    4.1368 H   0  0  0  0  0  0  0  0  0  0  0  0
   -2.1810    1.8459    5.5203 H   0  0  0  0  0  0  0  0  0  0  0  0
   -2.5863    1.3530    3.8673 H   0  0  0  0  0  0  0  0  0  0  0  0
    0.8621   -1.2450    3.9512 H   0  0  0  0  0  0  0  0  0  0  0  0
    0.7405   -0.7817    5.6649 H   0  0  0  0  0  0  0  0  0  0  0  0
   -0.6406   -2.9782    6.0199 H   0  0  0  0  0  0  0  0  0  0  0  0
   -0.3111   -3.3774    4.4122 H   0  0  0  0  0  0  0  0  0  0  0  0
    2.7741   -3.3848    4.1339 H   0  0  0  0  0  0  0  0  0  0  0  0
    0.5804   -5.0784    3.2900 H   0  0  0  0  0  0  0  0  0  0  0  0
    1.4741   -3.8807    2.5435 H   0  0  0  0  0  0  0  0  0  0  0  0
    2.6230   -6.2722    0.1094 H   0  0  0  0  0  0  0  0  0  0  0  0
    2.3973   -4.5861    0.4411 H   0  0  0  0  0  0  0  0  0  0  0  0
    1.0266   -5.7040    0.5402 H   0  0  0  0  0  0  0  0  0  0  0  0
    4.4799   -6.2705    1.7318 H   0  0  0  0  0  0  0  0  0  0  0  0
    4.1966   -4.6251    2.2082 H   0  0  0  0  0  0  0  0  0  0  0  0
    4.3632   -7.0501    4.0505 H   0  0  0  0  0  0  0  0  0  0  0  0
    5.3746   -5.6941    3.9828 H   0  0  0  0  0  0  0  0  0  0  0  0
    4.2276   -4.4422    5.0973 H   0  0  0  0  0  0  0  0  0  0  0  0
    4.1791   -6.3895    6.5589 H   0  0  0  0  0  0  0  0  0  0  0  0
    4.5929   -3.2609    8.4953 H   0  0  0  0  0  0  0  0  0  0  0  0
    5.3133   -3.5685    6.9240 H   0  0  0  0  0  0  0  0  0  0  0  0
    5.2160   -4.8638    8.1043 H   0  0  0  0  0  0  0  0  0  0  0  0
    2.9646   -5.6587    8.5873 H   0  0  0  0  0  0  0  0  0  0  0  0
    2.4447   -4.3121    8.9373 H   0  0  0  0  0  0  0  0  0  0  0  0
   -1.1703   -5.8435    6.9150 H   0  0  0  0  0  0  0  0  0  0  0  0
   -0.8422   -5.0776    5.4869 H   0  0  0  0  0  0  0  0  0  0  0  0
   -1.0807   -7.5230    5.2842 H   0  0  0  0  0  0  0  0  0  0  0  0
   -0.0087   -6.7084    4.3336 H   0  0  0  0  0  0  0  0  0  0  0  0
    0.9345   -9.7092    7.1464 H   0  0  0  0  0  0  0  0  0  0  0  0
   -0.5251   -9.4141    6.2797 H   0  0  0  0  0  0  0  0  0  0  0  0
   -0.2051   -8.5171    7.7327 H   0  0  0  0  0  0  0  0  0  0  0  0
    2.6417   -8.9552    5.1585 H   0  0  0  0  0  0  0  0  0  0  0  0
    0.0146   -9.2349    3.5766 H   0  0  0  0  0  0  0  0  0  0  0  0
    1.6949  -11.3054    5.2403 H   0  0  0  0  0  0  0  0  0  0  0  0
    0.2054  -11.6825    4.2009 H   0  0  0  0  0  0  0  0  0  0  0  0
    0.9497   -7.4741    2.2822 H   0  0  0  0  0  0  0  0  0  0  0  0
    2.6106   -8.0303    2.0980 H   0  0  0  0  0  0  0  0  0  0  0  0
    1.9608   -8.1793    8.6743 H   0  0  0  0  0  0  0  0  0  0  0  0
    3.5286   -7.5371    8.3314 H   0  0  0  0  0  0  0  0  0  0  0  0
    2.9225   -8.7669    7.3228 H   0  0  0  0  0  0  0  0  0  0  0  0
    0.1193   -6.4187    8.2992 H   0  0  0  0  0  0  0  0  0  0  0  0
   -0.8228   -4.0473    7.9570 H   0  0  0  0  0  0  0  0  0  0  0  0
    0.0549   -4.1591    9.4023 H   0  0  0  0  0  0  0  0  0  0  0  0
    0.4411   -1.9985    7.6670 H   0  0  0  0  0  0  0  0  0  0  0  0
    1.5621   -2.4434    8.8588 H   0  0  0  0  0  0  0  0  0  0  0  0
    3.7480   -1.6169    7.3520 H   0  0  0  0  0  0  0  0  0  0  0  0
    2.6198   -0.9613    6.2265 H   0  0  0  0  0  0  0  0  0  0  0  0
    3.8287   -2.1191    5.6502 H   0  0  0  0  0  0  0  0  0  0  0  0
  1  2  1  0
  1 37  1  0
  1 38  1  0
  1 39  1  0
  2  3  1  0
  3  4  2  0
  3  5  1  0
  5  6  1  0
  5 40  1  0
  5 41  1  0
  7  6  1  6
  6 42  1  0
  6 43  1  0
  7 19  1  0
  7 35  1  0
  7  8  1  0
  8 14  1  0
  8  9  1  0
  8 44  1  6
  9 10  1  0
  9 45  1  0
  9 46  1  0
 10 29  1  0
 10 11  1  6
 10 12  1  0
 11 47  1  0
 11 48  1  0
 11 49  1  0
 12 13  1  0
 12 50  1  0
 12 51  1  0
 13 14  1  0
 13 52  1  0
 13 53  1  0
 14 15  1  0
 14 54  1  1
 15 30  1  0
 15 16  1  0
 15 55  1  1
 16 35  1  0
 16 17  1  1
 16 18  1  0
 17 56  1  0
 17 57  1  0
 17 58  1  0
 19 18  1  6
 18 59  1  0
 18 60  1  0
 19 32  1  0
 19 20  1  0
 20 21  1  0
 20 61  1  0
 20 62  1  0
 21 22  1  0
 21 63  1  0
 21 64  1  0
 22 23  1  1
 22 24  1  0
 22 30  1  0
 23 65  1  0
 23 66  1  0
 23 67  1  0
 24 25  1  0
 24 28  1  0
 24 68  1  1
 25 27  1  0
 25 26  1  0
 25 69  1  6
 26 27  1  0
 26 70  1  0
 26 71  1  0
 28 29  1  0
 29 72  1  0
 29 73  1  0
 30 31  1  1
 30 32  1  0
 31 74  1  0
 31 75  1  0
 31 76  1  0
 32 33  1  0
 32 77  1  6
 33 34  1  0
 33 78  1  0
 33 79  1  0
 34 35  1  0
 34 80  1  0
 34 81  1  0
 35 36  1  6
 36 82  1  0
 36 83  1  0
 36 84  1  0
M  END
>  <i_m_ct_stereo_status>  (182) 
1

>  <s_m_source_file>  (182) 
/var/tmp/pbs.5076255.sched01/tmpkddd28mm/459jwin2qj.sdf

>  <i_m_source_file_index>  (182) 
30

>  <i_lp_mmshare_version>  (182) 
48012

>  <i_f3d_flags>  (182) 
0

>  <s_epik_input>  (182) 
W0NIM11PQyg9TylbQ0gyXVtDSDJdW0NAQF0xKEMyMzQpW0NASF01W0NASF02W0NASF03W0NAXShbQ0gzXSkoW0NIMl0yKVtDQF0xKFtDSDNdKVtDSDJdW0NIMl1bQ0BASF00W0NAQF03KFtDSDNdKVtDQEBdKFtDSDNdKShbQ0gyXVtDSDJdMylbQ0BASF0oW0NAQEhdOFtDSDJdTzgpT1tDSDJdW0NAXShbQ0gyXTUpKFtDSDNdKVtDSDJdW0NIMl02

>  <s_epik_cmdline>  (182) 
J2VwaWtfcHl0aG9uJywgJy1waHQnLCAnMi4wJywgJy1waCcsICc3LjAnLCAnLXRuJywgJzgnLCAnLW1hJywgJzIwMCcsICctaW1hZScsICc8aW5maWxlLm1hZT4nLCAnLW9tYWUnLCAnPG91dGZpbGUubWFlPic=

>  <r_lp_tautomer_probability>  (182) 
1

>  <r_epik_Ionization_Penalty>  (182) 
2.66171e-11

>  <r_epik_Ionization_Penalty_Charging>  (182) 
0

>  <r_epik_Ionization_Penalty_Neutral>  (182) 
2.66171e-11

>  <r_epik_State_Penalty>  (182) 
-0

>  <r_epik_Charging_Adjusted_Penalty>  (182) 
0

>  <i_epik_Tot_Q>  (182) 
0

>  <i_epik_Tot_abs_Q>  (182) 
0

>  <s_epik_Chemistry_Notes>  (182) 
This compound has an ester and may undergo hydrolysis at high or low pH.

>  <s_lp_Force_Field>  (182) 
OPLS3e

>  <r_lp_Energy>  (182) 
667.314

>  <b_lp_Chiralities_Consistent>  (182) 
1

>  <s_lp_Variant>  (182) 
56:0-1

>  <s_i_glide_gridfile>  (182) 
pfpi4k_grid

>  <i_i_glide_lignum>  (182) 
30

>  <i_i_glide_rotatable_bonds>  (182) 
5

>  <r_i_docking_score>  (182) 
-1.13463

>  <r_i_glide_ligand_efficiency>  (182) 
-0.0315176

>  <r_i_glide_ligand_efficiency_sa>  (182) 
-0.104069

>  <r_i_glide_ligand_efficiency_ln>  (182) 
-0.247546

>  <r_i_glide_gscore>  (182) 
-1.13463

>  <r_i_glide_lipo>  (182) 
-0.0441287

>  <r_i_glide_hbond>  (182) 
0

>  <r_i_glide_metal>  (182) 
-0

>  <r_i_glide_rewards>  (182) 
-0.022356

>  <r_i_glide_evdw>  (182) 
-21.9525

>  <r_i_glide_ecoul>  (182) 
-1.78662

>  <r_i_glide_erotb>  (182) 
0.33063

>  <r_i_glide_esite>  (182) 
-0.0331612

>  <r_i_glide_emodel>  (182) 
-22.8613

>  <r_i_glide_energy>  (182) 
-23.7391

>  <r_i_glide_einternal>  (182) 
2.34767

>  <r_i_glide_intrahb_reward>  (182) 
-0

>  <i_i_glide_confnum>  (182) 
4

>  <i_i_glide_posenum>  (182) 
14

>  <r_i_glide_eff_state_penalty>  (182) 
0

>  <ligand_id>  (182) 
56

>  <original_smiles>  (182) 
COC(=O)CCC12C3CC4(C)CCC3C3C5(C)CC16CCC(C)(C(C1CO1)OC4)C3(C)C6CCC52C

>  <smiles>  (182) 
[H]C([H])([H])OC(=O)C([H])([H])C([H])([H])C12C3([H])C([H])([H])C4(C([H])([H])[H])C([H])([H])OC([H])(C5([H])OC5([H])[H])C5(C([H])([H])[H])C([H])([H])C([H])([H])C16C([H])([H])C1(C([H])([H])[H])C([H])(C3([H])C([H])([H])C4([H])[H])C5(C([H])([H])[H])C6([H])C([H])([H])C([H])([H])C12C([H])([H])[H]

$$$$
57:0:0
     RDKit          3D

 94101  0  0  1  0  0  0  0  0999 V2000
   -0.3434   -9.6042    3.0804 C   0  0  0  0  0  0  0  0  0  0  0  0
    0.4512   -9.8557    4.3809 C   0  0  2  0  0  0  0  0  0  0  0  0
   -0.0373   -8.9685    5.5460 C   0  0  0  0  0  0  0  0  0  0  0  0
    1.0820   -8.7769    6.5863 C   0  0  2  0  0  0  0  0  0  0  0  0
    0.6022   -7.8325    7.5488 O   0  0  0  0  0  0  0  0  0  0  0  0
    1.5073   -6.7896    7.6509 C   0  0  2  0  0  0  0  0  0  0  0  0
    0.9080   -5.5622    7.9212 O   0  0  0  0  0  0  0  0  0  0  0  0
    1.8317   -4.4894    8.1571 C   0  0  2  0  0  0  0  0  0  0  0  0
    2.4208   -4.6134    9.5797 C   0  0  0  0  0  0  0  0  0  0  0  0
    1.0110   -3.1840    8.0083 C   0  0  0  0  0  0  0  0  0  0  0  0
    1.9011   -2.2659    7.1598 C   0  0  2  0  0  0  0  0  0  0  0  0
    1.3275   -0.9959    6.5302 C   0  0  0  0  0  0  0  0  0  0  0  0
    0.0814   -0.5607    6.7585 C   0  0  0  0  0  0  0  0  0  0  0  0
   -0.4727    0.7528    6.2506 C   0  0  0  0  0  0  0  0  0  0  0  0
    0.6161    1.7290    5.7381 C   0  0  2  0  0  0  0  0  0  0  0  0
   -0.0389    2.9238    4.9912 C   0  0  0  0  0  0  0  0  0  0  0  0
   -0.6313    2.5259    3.6233 C   0  0  1  0  0  0  0  0  0  0  0  0
   -1.1890    3.6445    2.9552 O   0  0  0  0  0  0  0  0  0  0  0  0
    0.3557    1.7239    2.7376 C   0  0  1  0  0  0  0  0  0  0  0  0
    1.3439    2.5320    2.1091 O   0  0  0  0  0  0  0  0  0  0  0  0
    1.0756    0.5992    3.5284 C   0  0  0  0  0  0  0  0  0  0  0  0
    1.7220    1.0216    4.8908 C   0  0  1  0  0  0  0  0  0  0  0  0
    2.9000    2.0058    4.6523 C   0  0  0  0  0  0  0  0  0  0  0  0
    2.3322   -0.1993    5.6926 C   0  0  2  0  0  0  0  0  0  0  0  0
    3.2666   -1.1180    4.8407 C   0  0  0  0  0  0  0  0  0  0  0  0
    3.7419   -2.4108    5.5485 C   0  0  0  0  0  0  0  0  0  0  0  0
    2.5540   -3.2000    6.1400 C   0  0  2  0  0  0  0  0  0  0  0  0
    1.5659   -3.6395    5.0318 C   0  0  0  0  0  0  0  0  0  0  0  0
    2.9517   -4.3823    7.0680 C   0  0  2  0  0  0  0  0  0  0  0  0
    3.3635   -5.7326    6.4161 C   0  0  0  0  0  0  0  0  0  0  0  0
    2.1744   -6.6993    6.2914 C   0  0  1  0  0  0  0  0  0  0  0  0
    2.3813   -8.1901    5.9733 C   0  0  1  0  0  0  0  0  0  0  0  0
    3.6445   -8.8272    6.6115 C   0  0  0  0  0  0  0  0  0  0  0  0
    2.3764   -8.4311    4.4310 C   0  0  1  0  0  0  0  0  0  0  0  0
    3.6635   -8.2995    3.9187 O   0  0  0  0  0  0  0  0  0  0  0  0
    3.7826   -8.4989    2.5149 C   0  0  0  0  0  0  0  0  0  0  0  0
    3.4105   -7.2621    1.7166 C   0  0  0  0  0  0  0  0  0  0  0  0
    4.4001   -6.4152    1.1786 C   0  0  0  0  0  0  0  0  0  0  0  0
    3.9900   -5.2605    0.4689 C   0  0  0  0  0  0  0  0  0  0  0  0
    2.6079   -5.0243    0.3230 C   0  0  0  0  0  0  0  0  0  0  0  0
    1.6554   -5.8489    0.7964 N   0  0  0  0  0  0  0  0  0  0  0  0
    2.0617   -6.9471    1.4721 C   0  0  0  0  0  0  0  0  0  0  0  0
    1.8541   -9.7026    4.1684 O   0  0  0  0  0  0  0  0  0  0  0  0
   -1.4038   -9.7916    3.2428 H   0  0  0  0  0  0  0  0  0  0  0  0
   -0.0179  -10.2652    2.2769 H   0  0  0  0  0  0  0  0  0  0  0  0
   -0.2689   -8.5803    2.7340 H   0  0  0  0  0  0  0  0  0  0  0  0
    0.3180  -10.9036    4.6539 H   0  0  0  0  0  0  0  0  0  0  0  0
   -0.3481   -7.9903    5.1709 H   0  0  0  0  0  0  0  0  0  0  0  0
   -0.9110   -9.4160    6.0281 H   0  0  0  0  0  0  0  0  0  0  0  0
    1.2909   -9.7360    7.0702 H   0  0  0  0  0  0  0  0  0  0  0  0
    2.2246   -7.0666    8.4273 H   0  0  0  0  0  0  0  0  0  0  0  0
    2.9626   -3.7183    9.8802 H   0  0  0  0  0  0  0  0  0  0  0  0
    3.1168   -5.4437    9.6687 H   0  0  0  0  0  0  0  0  0  0  0  0
    1.6319   -4.7729   10.3105 H   0  0  0  0  0  0  0  0  0  0  0  0
    0.0781   -3.4002    7.4887 H   0  0  0  0  0  0  0  0  0  0  0  0
    0.7521   -2.7410    8.9696 H   0  0  0  0  0  0  0  0  0  0  0  0
    2.6746   -1.9029    7.8358 H   0  0  0  0  0  0  0  0  0  0  0  0
   -0.5843   -1.1533    7.3622 H   0  0  0  0  0  0  0  0  0  0  0  0
   -1.1977    0.5032    5.4761 H   0  0  0  0  0  0  0  0  0  0  0  0
   -1.0244    1.2290    7.0650 H   0  0  0  0  0  0  0  0  0  0  0  0
    1.1018    2.1276    6.6328 H   0  0  0  0  0  0  0  0  0  0  0  0
   -0.8258    3.3520    5.6143 H   0  0  0  0  0  0  0  0  0  0  0  0
    0.6827    3.7286    4.8680 H   0  0  0  0  0  0  0  0  0  0  0  0
   -1.4860    1.8836    3.8166 H   0  0  0  0  0  0  0  0  0  0  0  0
   -0.6079    3.9256    2.2473 H   0  0  0  0  0  0  0  0  0  0  0  0
   -0.2179    1.2615    1.9320 H   0  0  0  0  0  0  0  0  0  0  0  0
    0.9213    3.1642    1.5253 H   0  0  0  0  0  0  0  0  0  0  0  0
    0.3500   -0.1854    3.7351 H   0  0  0  0  0  0  0  0  0  0  0  0
    1.8151    0.1533    2.8644 H   0  0  0  0  0  0  0  0  0  0  0  0
    3.6351    1.5842    3.9653 H   0  0  0  0  0  0  0  0  0  0  0  0
    3.4130    2.2597    5.5817 H   0  0  0  0  0  0  0  0  0  0  0  0
    2.5907    2.9533    4.2152 H   0  0  0  0  0  0  0  0  0  0  0  0
    2.9675    0.2268    6.4717 H   0  0  0  0  0  0  0  0  0  0  0  0
    2.7710   -1.4285    3.9257 H   0  0  0  0  0  0  0  0  0  0  0  0
    4.1430   -0.5542    4.5251 H   0  0  0  0  0  0  0  0  0  0  0  0
    4.3017   -3.0347    4.8508 H   0  0  0  0  0  0  0  0  0  0  0  0
    4.4406   -2.1375    6.3389 H   0  0  0  0  0  0  0  0  0  0  0  0
    2.0683   -4.2700    4.2938 H   0  0  0  0  0  0  0  0  0  0  0  0
    1.1319   -2.7903    4.4962 H   0  0  0  0  0  0  0  0  0  0  0  0
    0.7252   -4.2008    5.4407 H   0  0  0  0  0  0  0  0  0  0  0  0
    3.8543   -4.0304    7.5708 H   0  0  0  0  0  0  0  0  0  0  0  0
    3.7857   -5.5590    5.4280 H   0  0  0  0  0  0  0  0  0  0  0  0
    4.1562   -6.1841    7.0107 H   0  0  0  0  0  0  0  0  0  0  0  0
    1.4320   -6.2950    5.6073 H   0  0  0  0  0  0  0  0  0  0  0  0
    4.5643   -8.3616    6.2651 H   0  0  0  0  0  0  0  0  0  0  0  0
    3.7002   -9.8868    6.3632 H   0  0  0  0  0  0  0  0  0  0  0  0
    3.6250   -8.7528    7.6977 H   0  0  0  0  0  0  0  0  0  0  0  0
    1.7577   -7.6719    3.9560 H   0  0  0  0  0  0  0  0  0  0  0  0
    4.8247   -8.7408    2.3072 H   0  0  0  0  0  0  0  0  0  0  0  0
    3.2073   -9.3592    2.1641 H   0  0  0  0  0  0  0  0  0  0  0  0
    5.4544   -6.6330    1.2925 H   0  0  0  0  0  0  0  0  0  0  0  0
    4.7018   -4.5776    0.0254 H   0  0  0  0  0  0  0  0  0  0  0  0
    2.2334   -4.1469   -0.1957 H   0  0  0  0  0  0  0  0  0  0  0  0
    1.2695   -7.5851    1.8242 H   0  0  0  0  0  0  0  0  0  0  0  0
  1  2  1  0
  1 44  1  0
  1 45  1  0
  1 46  1  0
  2 43  1  0
  2  3  1  0
  2 47  1  1
  3  4  1  0
  3 48  1  0
  3 49  1  0
  4 32  1  0
  4  5  1  0
  4 50  1  1
  5  6  1  0
  6 31  1  0
  6  7  1  0
  6 51  1  1
  7  8  1  0
  8 29  1  0
  8  9  1  1
  8 10  1  0
  9 52  1  0
  9 53  1  0
  9 54  1  0
 10 11  1  0
 10 55  1  0
 10 56  1  0
 11 27  1  0
 11 12  1  0
 11 57  1  1
 12 24  1  0
 12 13  2  0
 13 14  1  0
 13 58  1  0
 14 15  1  0
 14 59  1  0
 14 60  1  0
 15 22  1  0
 15 16  1  0
 15 61  1  1
 16 17  1  0
 16 62  1  0
 16 63  1  0
 17 18  1  0
 17 19  1  0
 17 64  1  1
 18 65  1  0
 19 20  1  0
 19 21  1  0
 19 66  1  6
 20 67  1  0
 21 22  1  0
 21 68  1  0
 21 69  1  0
 22 23  1  6
 22 24  1  0
 23 70  1  0
 23 71  1  0
 23 72  1  0
 24 25  1  0
 24 73  1  1
 25 26  1  0
 25 74  1  0
 25 75  1  0
 26 27  1  0
 26 76  1  0
 26 77  1  0
 27 28  1  6
 27 29  1  0
 28 78  1  0
 28 79  1  0
 28 80  1  0
 29 30  1  0
 29 81  1  1
 30 31  1  0
 30 82  1  0
 30 83  1  0
 31 32  1  0
 31 84  1  6
 32 33  1  1
 32 34  1  0
 33 85  1  0
 33 86  1  0
 33 87  1  0
 34 35  1  0
 34 43  1  0
 34 88  1  6
 35 36  1  0
 36 37  1  0
 36 89  1  0
 36 90  1  0
 37 42  1  0
 37 38  2  0
 38 39  1  0
 38 91  1  0
 39 40  2  0
 39 92  1  0
 40 41  1  0
 40 93  1  0
 41 42  2  0
 42 94  1  0
M  END
>  <i_m_ct_stereo_status>  (183) 
1

>  <s_m_source_file>  (183) 
/var/tmp/pbs.5076255.sched01/tmpkddd28mm/459jwin2qj.sdf

>  <i_m_source_file_index>  (183) 
31

>  <i_lp_mmshare_version>  (183) 
48012

>  <i_f3d_flags>  (183) 
0

>  <s_epik_input>  (183) 
W2NIXTFuW2NIXVtjSF1bY0hdYzFbQ0gyXU9bQ0BASF0oT1tDQEhdKFtDSDNdKVtDSDJdMilbQ0BdMyhbQ0gzXSlbQ0BIXTJPW0NASF0oTzQpW0NASF0zW0NIMl1bQ0BIXShbQ0BdNDVbQ0gzXSlbQ0BAXTYoW0NIM10pW0NASF0oW0NIMl01KUM9N1tDQEBIXShbQ0gyXVtDSDJdNilbQ0BdOChbQ0gzXSlbQ0BIXShbQ0gyXVtDSF03KVtDSDJdW0NAQEhdKFtPSF0pW0NAQEhdKFtPSF0pW0NIMl04

>  <s_epik_cmdline>  (183) 
J2VwaWtfcHl0aG9uJywgJy1waHQnLCAnMi4wJywgJy1waCcsICc3LjAnLCAnLXRuJywgJzgnLCAnLW1hJywgJzIwMCcsICctaW1hZScsICc8aW5maWxlLm1hZT4nLCAnLW9tYWUnLCAnPG91dGZpbGUubWFlPic=

>  <r_epik_Ionization_Penalty>  (183) 
0.00584204

>  <r_epik_Ionization_Penalty_Charging>  (183) 
0

>  <r_epik_Ionization_Penalty_Neutral>  (183) 
0.00584204

>  <r_epik_State_Penalty>  (183) 
0.00429148

>  <r_epik_Charging_Adjusted_Penalty>  (183) 
0.00429148

>  <i_epik_Tot_Q>  (183) 
0

>  <i_epik_Tot_abs_Q>  (183) 
0

>  <s_epik_Chemistry_Notes>  (183) 
This compound contains an acetal/aminal-like group ( X-CH(R)-Y where X, Y are N, S, or O) that may be acid/base labile, releasing an aldehyde.

>  <s_lp_Force_Field>  (183) 
OPLS3e

>  <r_lp_Energy>  (183) 
66.209

>  <b_lp_Chiralities_Consistent>  (183) 
1

>  <s_lp_Variant>  (183) 
57:0-1

>  <s_i_glide_gridfile>  (183) 
pfpi4k_grid

>  <i_i_glide_lignum>  (183) 
31

>  <i_i_glide_rotatable_bonds>  (183) 
5

>  <r_i_docking_score>  (183) 
-3.49988

>  <r_i_glide_ligand_efficiency>  (183) 
-0.0813926

>  <r_i_glide_ligand_efficiency_sa>  (183) 
-0.285151

>  <r_i_glide_ligand_efficiency_ln>  (183) 
-0.735084

>  <r_i_glide_gscore>  (183) 
-3.49988

>  <r_i_glide_lipo>  (183) 
-0.168809

>  <r_i_glide_hbond>  (183) 
-0.111588

>  <r_i_glide_metal>  (183) 
-0

>  <r_i_glide_rewards>  (183) 
0

>  <r_i_glide_evdw>  (183) 
-28.1149

>  <r_i_glide_ecoul>  (183) 
-12.4961

>  <r_i_glide_erotb>  (183) 
0.0668528

>  <r_i_glide_esite>  (183) 
-0.00618251

>  <r_i_glide_emodel>  (183) 
-48.717

>  <r_i_glide_energy>  (183) 
-40.6109

>  <r_i_glide_einternal>  (183) 
2.98839

>  <r_i_glide_intrahb_reward>  (183) 
-0

>  <i_i_glide_confnum>  (183) 
3

>  <i_i_glide_posenum>  (183) 
13

>  <r_i_glide_eff_state_penalty>  (183) 
0

>  <ligand_id>  (183) 
57

>  <original_smiles>  (183) 
CC1CC2OC3OC4(C)CC5C6=CCC7CC(O)C(O)CC7(C)C6CCC5(C)C4CC3C2(C)C(OCc2cccnc2)O1

>  <smiles>  (183) 
[H]OC1([H])C([H])([H])C2([H])C([H])([H])C([H])=C3C([H])(C([H])([H])C([H])([H])C4(C([H])([H])[H])C3([H])C([H])([H])C3(C([H])([H])[H])OC5([H])OC6([H])C([H])([H])C([H])(C([H])([H])[H])OC([H])(OC([H])([H])c7c([H])nc([H])c([H])c7[H])C6(C([H])([H])[H])C5([H])C([H])([H])C34[H])C2(C([H])([H])[H])C([H])([H])C1([H])O[H]

$$$$
57:0:1
     RDKit          3D

 94101  0  0  1  0  0  0  0  0999 V2000
   -0.7102   -9.0905    2.8740 C   0  0  0  0  0  0  0  0  0  0  0  0
    0.0407   -9.4550    4.1621 C   0  0  2  0  0  0  0  0  0  0  0  0
   -0.4308   -8.6113    5.3570 C   0  0  0  0  0  0  0  0  0  0  0  0
    0.6642   -8.5151    6.4272 C   0  0  2  0  0  0  0  0  0  0  0  0
    0.2273   -7.5924    7.4337 O   0  0  0  0  0  0  0  0  0  0  0  0
    1.1879   -6.6051    7.5923 C   0  0  2  0  0  0  0  0  0  0  0  0
    0.6576   -5.3574    7.9093 O   0  0  0  0  0  0  0  0  0  0  0  0
    1.6301   -4.3434    8.2020 C   0  0  2  0  0  0  0  0  0  0  0  0
    2.1806   -4.5597    9.6263 C   0  0  0  0  0  0  0  0  0  0  0  0
    0.8829   -2.9889    8.0897 C   0  0  0  0  0  0  0  0  0  0  0  0
    1.8386   -2.0877    7.2950 C   0  0  2  0  0  0  0  0  0  0  0  0
    1.3481   -0.7655    6.7094 C   0  0  0  0  0  0  0  0  0  0  0  0
    0.1236   -0.2678    6.9337 C   0  0  0  0  0  0  0  0  0  0  0  0
   -0.3474    1.0904    6.4702 C   0  0  0  0  0  0  0  0  0  0  0  0
    0.8023    2.0240    6.0161 C   0  0  2  0  0  0  0  0  0  0  0  0
    0.2253    3.2827    5.3120 C   0  0  0  0  0  0  0  0  0  0  0  0
   -0.3620    2.9813    3.9163 C   0  0  1  0  0  0  0  0  0  0  0  0
   -0.7527    4.1913    3.2841 O   0  0  0  0  0  0  0  0  0  0  0  0
    0.5852    2.1437    3.0329 C   0  0  1  0  0  0  0  0  0  0  0  0
    1.6018    2.9560    2.4844 O   0  0  0  0  0  0  0  0  0  0  0  0
    1.2381    0.9546    3.7784 C   0  0  0  0  0  0  0  0  0  0  0  0
    1.8838    1.2894    5.1612 C   0  0  1  0  0  0  0  0  0  0  0  0
    3.1195    2.2146    4.9730 C   0  0  0  0  0  0  0  0  0  0  0  0
    2.4107    0.0051    5.9179 C   0  0  2  0  0  0  0  0  0  0  0  0
    3.3077   -0.9319    5.0441 C   0  0  0  0  0  0  0  0  0  0  0  0
    3.6962   -2.2752    5.7061 C   0  0  0  0  0  0  0  0  0  0  0  0
    2.4573   -3.0183    6.2518 C   0  0  2  0  0  0  0  0  0  0  0  0
    1.4628   -3.3576    5.1088 C   0  0  0  0  0  0  0  0  0  0  0  0
    2.7686   -4.2589    7.1297 C   0  0  2  0  0  0  0  0  0  0  0  0
    3.1173   -5.6018    6.4270 C   0  0  0  0  0  0  0  0  0  0  0  0
    1.8723   -6.4885    6.2403 C   0  0  1  0  0  0  0  0  0  0  0  0
    2.0013   -7.9682    5.8564 C   0  0  1  0  0  0  0  0  0  0  0  0
    3.2081   -8.7062    6.4899 C   0  0  0  0  0  0  0  0  0  0  0  0
    2.0147   -8.1259    4.2943 C   0  0  1  0  0  0  0  0  0  0  0  0
    3.3230   -8.0185    3.8390 O   0  0  0  0  0  0  0  0  0  0  0  0
    3.4661   -8.1471    2.4325 C   0  0  0  0  0  0  0  0  0  0  0  0
    4.9117   -7.9733    2.0164 C   0  0  0  0  0  0  0  0  0  0  0  0
    5.5036   -6.6952    2.0214 C   0  0  0  0  0  0  0  0  0  0  0  0
    6.8574   -6.5748    1.6570 C   0  0  0  0  0  0  0  0  0  0  0  0
    7.5637   -7.7408    1.3090 C   0  0  0  0  0  0  0  0  0  0  0  0
    6.9983   -8.9669    1.2861 N   0  0  0  0  0  0  0  0  0  0  0  0
    5.7015   -9.0786    1.6436 C   0  0  0  0  0  0  0  0  0  0  0  0
    1.4515   -9.3557    3.9611 O   0  0  0  0  0  0  0  0  0  0  0  0
   -1.7888   -9.1583    3.0131 H   0  0  0  0  0  0  0  0  0  0  0  0
   -0.4440   -9.7881    2.0817 H   0  0  0  0  0  0  0  0  0  0  0  0
   -0.4790   -8.0857    2.5272 H   0  0  0  0  0  0  0  0  0  0  0  0
   -0.1641  -10.5039    4.3734 H   0  0  0  0  0  0  0  0  0  0  0  0
   -0.7055   -7.6060    5.0367 H   0  0  0  0  0  0  0  0  0  0  0  0
   -1.3296   -9.0564    5.7803 H   0  0  0  0  0  0  0  0  0  0  0  0
    0.8128   -9.5005    6.8780 H   0  0  0  0  0  0  0  0  0  0  0  0
    1.8749   -6.9524    8.3673 H   0  0  0  0  0  0  0  0  0  0  0  0
    2.7654   -3.7074    9.9688 H   0  0  0  0  0  0  0  0  0  0  0  0
    2.8285   -5.4318    9.6918 H   0  0  0  0  0  0  0  0  0  0  0  0
    1.3686   -4.7044   10.3360 H   0  0  0  0  0  0  0  0  0  0  0  0
   -0.0521   -3.1314    7.5463 H   0  0  0  0  0  0  0  0  0  0  0  0
    0.6300   -2.5739    9.0654 H   0  0  0  0  0  0  0  0  0  0  0  0
    2.6169   -1.7971    8.0013 H   0  0  0  0  0  0  0  0  0  0  0  0
   -0.5847   -0.8406    7.5042 H   0  0  0  0  0  0  0  0  0  0  0  0
   -1.0757    0.9218    5.6778 H   0  0  0  0  0  0  0  0  0  0  0  0
   -0.8854    1.5628    7.2942 H   0  0  0  0  0  0  0  0  0  0  0  0
    1.2921    2.3602    6.9320 H   0  0  0  0  0  0  0  0  0  0  0  0
   -0.5463    3.7327    5.9386 H   0  0  0  0  0  0  0  0  0  0  0  0
    0.9967    4.0468    5.2305 H   0  0  0  0  0  0  0  0  0  0  0  0
   -1.2728    2.3987    4.0449 H   0  0  0  0  0  0  0  0  0  0  0  0
   -0.5026    4.1630    2.3495 H   0  0  0  0  0  0  0  0  0  0  0  0
    0.0174    1.7528    2.1861 H   0  0  0  0  0  0  0  0  0  0  0  0
    1.2044    3.5057    1.8192 H   0  0  0  0  0  0  0  0  0  0  0  0
    0.4627    0.2077    3.9390 H   0  0  0  0  0  0  0  0  0  0  0  0
    1.9599    0.4976    3.1018 H   0  0  0  0  0  0  0  0  0  0  0  0
    3.8398    1.7803    4.2791 H   0  0  0  0  0  0  0  0  0  0  0  0
    3.6332    2.4045    5.9162 H   0  0  0  0  0  0  0  0  0  0  0  0
    2.8734    3.1944    4.5703 H   0  0  0  0  0  0  0  0  0  0  0  0
    3.0601    0.3610    6.7180 H   0  0  0  0  0  0  0  0  0  0  0  0
    2.8121   -1.1795    4.1086 H   0  0  0  0  0  0  0  0  0  0  0  0
    4.2216   -0.4100    4.7601 H   0  0  0  0  0  0  0  0  0  0  0  0
    4.2339   -2.9044    4.9964 H   0  0  0  0  0  0  0  0  0  0  0  0
    4.3951   -2.0721    6.5184 H   0  0  0  0  0  0  0  0  0  0  0  0
    1.9393   -3.9852    4.3549 H   0  0  0  0  0  0  0  0  0  0  0  0
    1.0864   -2.4689    4.6009 H   0  0  0  0  0  0  0  0  0  0  0  0
    0.5855   -3.8859    5.4791 H   0  0  0  0  0  0  0  0  0  0  0  0
    3.6789   -3.9845    7.6611 H   0  0  0  0  0  0  0  0  0  0  0  0
    3.5656   -5.4085    5.4514 H   0  0  0  0  0  0  0  0  0  0  0  0
    3.8761   -6.1223    7.0113 H   0  0  0  0  0  0  0  0  0  0  0  0
    1.1569   -6.0160    5.5706 H   0  0  0  0  0  0  0  0  0  0  0  0
    4.1636   -8.2836    6.1901 H   0  0  0  0  0  0  0  0  0  0  0  0
    3.2122   -9.7603    6.2150 H   0  0  0  0  0  0  0  0  0  0  0  0
    3.1701   -8.6725    7.5788 H   0  0  0  0  0  0  0  0  0  0  0  0
    1.4416   -7.3406    3.7947 H   0  0  0  0  0  0  0  0  0  0  0  0
    3.1075   -9.1151    2.0831 H   0  0  0  0  0  0  0  0  0  0  0  0
    2.8675   -7.3861    1.9341 H   0  0  0  0  0  0  0  0  0  0  0  0
    4.9282   -5.8244    2.3017 H   0  0  0  0  0  0  0  0  0  0  0  0
    7.3517   -5.6119    1.6511 H   0  0  0  0  0  0  0  0  0  0  0  0
    8.6033   -7.6907    1.0206 H   0  0  0  0  0  0  0  0  0  0  0  0
    5.2993  -10.0800    1.6294 H   0  0  0  0  0  0  0  0  0  0  0  0
  1  2  1  0
  1 44  1  0
  1 45  1  0
  1 46  1  0
  2 43  1  0
  2  3  1  0
  2 47  1  1
  3  4  1  0
  3 48  1  0
  3 49  1  0
  4 32  1  0
  4  5  1  0
  4 50  1  1
  5  6  1  0
  6 31  1  0
  6  7  1  0
  6 51  1  1
  7  8  1  0
  8 29  1  0
  8  9  1  1
  8 10  1  0
  9 52  1  0
  9 53  1  0
  9 54  1  0
 10 11  1  0
 10 55  1  0
 10 56  1  0
 11 27  1  0
 11 12  1  0
 11 57  1  1
 12 24  1  0
 12 13  2  0
 13 14  1  0
 13 58  1  0
 14 15  1  0
 14 59  1  0
 14 60  1  0
 15 22  1  0
 15 16  1  0
 15 61  1  1
 16 17  1  0
 16 62  1  0
 16 63  1  0
 17 18  1  0
 17 19  1  0
 17 64  1  1
 18 65  1  0
 19 20  1  0
 19 21  1  0
 19 66  1  6
 20 67  1  0
 21 22  1  0
 21 68  1  0
 21 69  1  0
 22 23  1  6
 22 24  1  0
 23 70  1  0
 23 71  1  0
 23 72  1  0
 24 25  1  0
 24 73  1  1
 25 26  1  0
 25 74  1  0
 25 75  1  0
 26 27  1  0
 26 76  1  0
 26 77  1  0
 27 28  1  6
 27 29  1  0
 28 78  1  0
 28 79  1  0
 28 80  1  0
 29 30  1  0
 29 81  1  1
 30 31  1  0
 30 82  1  0
 30 83  1  0
 31 32  1  0
 31 84  1  6
 32 33  1  1
 32 34  1  0
 33 85  1  0
 33 86  1  0
 33 87  1  0
 34 35  1  0
 34 43  1  0
 34 88  1  6
 35 36  1  0
 36 37  1  0
 36 89  1  0
 36 90  1  0
 37 42  1  0
 37 38  2  0
 38 39  1  0
 38 91  1  0
 39 40  2  0
 39 92  1  0
 40 41  1  0
 40 93  1  0
 41 42  2  0
 42 94  1  0
M  END
>  <i_m_ct_stereo_status>  (184) 
1

>  <s_m_source_file>  (184) 
/var/tmp/pbs.5076255.sched01/tmpkddd28mm/459jwin2qj.sdf

>  <i_m_source_file_index>  (184) 
31

>  <i_lp_mmshare_version>  (184) 
48012

>  <i_f3d_flags>  (184) 
0

>  <s_epik_input>  (184) 
W2NIXTFuW2NIXVtjSF1bY0hdYzFbQ0gyXU9bQ0BASF0oT1tDQEhdKFtDSDNdKVtDSDJdMilbQ0BdMyhbQ0gzXSlbQ0BIXTJPW0NASF0oTzQpW0NASF0zW0NIMl1bQ0BIXShbQ0BdNDVbQ0gzXSlbQ0BAXTYoW0NIM10pW0NASF0oW0NIMl01KUM9N1tDQEBIXShbQ0gyXVtDSDJdNilbQ0BdOChbQ0gzXSlbQ0BIXShbQ0gyXVtDSF03KVtDSDJdW0NAQEhdKFtPSF0pW0NAQEhdKFtPSF0pW0NIMl04

>  <s_epik_cmdline>  (184) 
J2VwaWtfcHl0aG9uJywgJy1waHQnLCAnMi4wJywgJy1waCcsICc3LjAnLCAnLXRuJywgJzgnLCAnLW1hJywgJzIwMCcsICctaW1hZScsICc8aW5maWxlLm1hZT4nLCAnLW9tYWUnLCAnPG91dGZpbGUubWFlPic=

>  <r_epik_Ionization_Penalty>  (184) 
0.00584204

>  <r_epik_Ionization_Penalty_Charging>  (184) 
0

>  <r_epik_Ionization_Penalty_Neutral>  (184) 
0.00584204

>  <r_epik_State_Penalty>  (184) 
0.00429148

>  <r_epik_Charging_Adjusted_Penalty>  (184) 
0.00429148

>  <i_epik_Tot_Q>  (184) 
0

>  <i_epik_Tot_abs_Q>  (184) 
0

>  <s_epik_Chemistry_Notes>  (184) 
This compound contains an acetal/aminal-like group ( X-CH(R)-Y where X, Y are N, S, or O) that may be acid/base labile, releasing an aldehyde.

>  <s_lp_Force_Field>  (184) 
OPLS3e

>  <r_lp_Energy>  (184) 
66.209

>  <b_lp_Chiralities_Consistent>  (184) 
1

>  <s_lp_Variant>  (184) 
57:0-1

>  <s_i_glide_gridfile>  (184) 
pfpi4k_grid

>  <i_i_glide_lignum>  (184) 
31

>  <i_i_glide_rotatable_bonds>  (184) 
5

>  <r_i_docking_score>  (184) 
-3.13754

>  <r_i_glide_ligand_efficiency>  (184) 
-0.072966

>  <r_i_glide_ligand_efficiency_sa>  (184) 
-0.255629

>  <r_i_glide_ligand_efficiency_ln>  (184) 
-0.658981

>  <r_i_glide_gscore>  (184) 
-3.13754

>  <r_i_glide_lipo>  (184) 
-0.146591

>  <r_i_glide_hbond>  (184) 
0

>  <r_i_glide_metal>  (184) 
-0

>  <r_i_glide_rewards>  (184) 
0

>  <r_i_glide_evdw>  (184) 
-28.2487

>  <r_i_glide_ecoul>  (184) 
-10.9257

>  <r_i_glide_erotb>  (184) 
0.0668528

>  <r_i_glide_esite>  (184) 
-0.00651375

>  <r_i_glide_emodel>  (184) 
-47.3618

>  <r_i_glide_energy>  (184) 
-39.1744

>  <r_i_glide_einternal>  (184) 
1.84554

>  <r_i_glide_intrahb_reward>  (184) 
-0

>  <i_i_glide_confnum>  (184) 
3

>  <i_i_glide_posenum>  (184) 
10

>  <r_i_glide_eff_state_penalty>  (184) 
0

>  <ligand_id>  (184) 
57

>  <original_smiles>  (184) 
CC1CC2OC3OC4(C)CC5C6=CCC7CC(O)C(O)CC7(C)C6CCC5(C)C4CC3C2(C)C(OCc2cccnc2)O1

>  <smiles>  (184) 
[H]OC1([H])C([H])([H])C2([H])C([H])([H])C([H])=C3C([H])(C([H])([H])C([H])([H])C4(C([H])([H])[H])C3([H])C([H])([H])C3(C([H])([H])[H])OC5([H])OC6([H])C([H])([H])C([H])(C([H])([H])[H])OC([H])(OC([H])([H])c7c([H])nc([H])c([H])c7[H])C6(C([H])([H])[H])C5([H])C([H])([H])C34[H])C2(C([H])([H])[H])C([H])([H])C1([H])O[H]

$$$$
57:0:2
     RDKit          3D

 94101  0  0  1  0  0  0  0  0999 V2000
    0.9302   -7.2809    1.5066 C   0  0  0  0  0  0  0  0  0  0  0  0
    2.4492   -7.2910    1.7529 C   0  0  2  0  0  0  0  0  0  0  0  0
    2.8036   -7.0469    3.2364 C   0  0  0  0  0  0  0  0  0  0  0  0
    4.2075   -6.4341    3.3634 C   0  0  2  0  0  0  0  0  0  0  0  0
    4.4071   -6.0738    4.7326 O   0  0  0  0  0  0  0  0  0  0  0  0
    4.7747   -4.7385    4.8079 C   0  0  2  0  0  0  0  0  0  0  0  0
    4.2988   -4.0982    5.9494 O   0  0  0  0  0  0  0  0  0  0  0  0
    4.7573   -2.7476    6.1184 C   0  0  2  0  0  0  0  0  0  0  0  0
    6.2100   -2.7655    6.6399 C   0  0  0  0  0  0  0  0  0  0  0  0
    3.8086   -2.0996    7.1575 C   0  0  0  0  0  0  0  0  0  0  0  0
    3.4804   -0.7229    6.5693 C   0  0  2  0  0  0  0  0  0  0  0  0
    2.3306    0.1067    7.1413 C   0  0  0  0  0  0  0  0  0  0  0  0
    1.6247   -0.2525    8.2280 C   0  0  0  0  0  0  0  0  0  0  0  0
    0.5725    0.6146    8.8803 C   0  0  0  0  0  0  0  0  0  0  0  0
    0.6091    2.0936    8.4196 C   0  0  2  0  0  0  0  0  0  0  0  0
   -0.6498    2.8441    8.9274 C   0  0  0  0  0  0  0  0  0  0  0  0
   -1.9298    2.4227    8.1841 C   0  0  1  0  0  0  0  0  0  0  0  0
   -3.0243    3.2155    8.5967 O   0  0  0  0  0  0  0  0  0  0  0  0
   -1.7891    2.4315    6.6438 C   0  0  1  0  0  0  0  0  0  0  0  0
   -1.9007    3.7282    6.0897 O   0  0  0  0  0  0  0  0  0  0  0  0
   -0.4732    1.7729    6.1630 C   0  0  0  0  0  0  0  0  0  0  0  0
    0.8302    2.2536    6.8810 C   0  0  1  0  0  0  0  0  0  0  0  0
    1.1100    3.7453    6.5452 C   0  0  0  0  0  0  0  0  0  0  0  0
    2.1127    1.4478    6.4241 C   0  0  2  0  0  0  0  0  0  0  0  0
    2.2811    1.3390    4.8719 C   0  0  0  0  0  0  0  0  0  0  0  0
    3.4340    0.4230    4.3984 C   0  0  0  0  0  0  0  0  0  0  0  0
    3.3570   -0.9690    5.0632 C   0  0  2  0  0  0  0  0  0  0  0  0
    2.0344   -1.6920    4.6966 C   0  0  0  0  0  0  0  0  0  0  0  0
    4.5978   -1.8734    4.8267 C   0  0  2  0  0  0  0  0  0  0  0  0
    4.6983   -2.6550    3.4852 C   0  0  0  0  0  0  0  0  0  0  0  0
    4.1264   -4.0794    3.6063 C   0  0  1  0  0  0  0  0  0  0  0  0
    4.3795   -5.1391    2.5266 C   0  0  1  0  0  0  0  0  0  0  0  0
    5.7925   -5.0848    1.8841 C   0  0  0  0  0  0  0  0  0  0  0  0
    3.2663   -5.0657    1.4310 C   0  0  1  0  0  0  0  0  0  0  0  0
    3.6627   -4.1522    0.4673 O   0  0  0  0  0  0  0  0  0  0  0  0
    2.6571   -3.7761   -0.4565 C   0  0  0  0  0  0  0  0  0  0  0  0
    3.1943   -2.8325   -1.5103 C   0  0  0  0  0  0  0  0  0  0  0  0
    2.6181   -2.7756   -2.7946 C   0  0  0  0  0  0  0  0  0  0  0  0
    3.1326   -1.8503   -3.7265 C   0  0  0  0  0  0  0  0  0  0  0  0
    4.1868   -1.0144   -3.3191 C   0  0  0  0  0  0  0  0  0  0  0  0
    4.7444   -1.0552   -2.0933 N   0  0  0  0  0  0  0  0  0  0  0  0
    4.2395   -1.9386   -1.2063 C   0  0  0  0  0  0  0  0  0  0  0  0
    3.0755   -6.3371    0.8837 O   0  0  0  0  0  0  0  0  0  0  0  0
    0.4229   -7.9905    2.1599 H   0  0  0  0  0  0  0  0  0  0  0  0
    0.7003   -7.5600    0.4805 H   0  0  0  0  0  0  0  0  0  0  0  0
    0.4986   -6.2988    1.6851 H   0  0  0  0  0  0  0  0  0  0  0  0
    2.8281   -8.2739    1.4637 H   0  0  0  0  0  0  0  0  0  0  0  0
    2.0815   -6.3701    3.6936 H   0  0  0  0  0  0  0  0  0  0  0  0
    2.7448   -7.9788    3.8009 H   0  0  0  0  0  0  0  0  0  0  0  0
    4.9514   -7.1804    3.0710 H   0  0  0  0  0  0  0  0  0  0  0  0
    5.8654   -4.6980    4.7545 H   0  0  0  0  0  0  0  0  0  0  0  0
    6.5368   -1.7805    6.9682 H   0  0  0  0  0  0  0  0  0  0  0  0
    6.9132   -3.0967    5.8824 H   0  0  0  0  0  0  0  0  0  0  0  0
    6.3098   -3.4428    7.4848 H   0  0  0  0  0  0  0  0  0  0  0  0
    2.9032   -2.6995    7.2532 H   0  0  0  0  0  0  0  0  0  0  0  0
    4.2544   -2.0334    8.1493 H   0  0  0  0  0  0  0  0  0  0  0  0
    4.3663   -0.1108    6.7435 H   0  0  0  0  0  0  0  0  0  0  0  0
    1.8090   -1.1985    8.7149 H   0  0  0  0  0  0  0  0  0  0  0  0
   -0.3871    0.1420    8.6806 H   0  0  0  0  0  0  0  0  0  0  0  0
    0.7262    0.5731    9.9605 H   0  0  0  0  0  0  0  0  0  0  0  0
    1.4713    2.5427    8.9161 H   0  0  0  0  0  0  0  0  0  0  0  0
   -0.7776    2.6644    9.9970 H   0  0  0  0  0  0  0  0  0  0  0  0
   -0.5115    3.9203    8.8439 H   0  0  0  0  0  0  0  0  0  0  0  0
   -2.1743    1.4057    8.4818 H   0  0  0  0  0  0  0  0  0  0  0  0
   -3.0978    3.1755    9.5395 H   0  0  0  0  0  0  0  0  0  0  0  0
   -2.6212    1.8650    6.2288 H   0  0  0  0  0  0  0  0  0  0  0  0
   -1.1529    4.2254    6.3822 H   0  0  0  0  0  0  0  0  0  0  0  0
   -0.5661    0.6992    6.3196 H   0  0  0  0  0  0  0  0  0  0  0  0
   -0.4103    1.9117    5.0840 H   0  0  0  0  0  0  0  0  0  0  0  0
    1.1539    3.9074    5.4675 H   0  0  0  0  0  0  0  0  0  0  0  0
    2.0581    4.0790    6.9695 H   0  0  0  0  0  0  0  0  0  0  0  0
    0.3608    4.4323    6.9313 H   0  0  0  0  0  0  0  0  0  0  0  0
    2.9745    2.0202    6.7686 H   0  0  0  0  0  0  0  0  0  0  0  0
    1.3738    0.9620    4.4083 H   0  0  0  0  0  0  0  0  0  0  0  0
    2.4345    2.3296    4.4455 H   0  0  0  0  0  0  0  0  0  0  0  0
    3.4149    0.3268    3.3120 H   0  0  0  0  0  0  0  0  0  0  0  0
    4.3830    0.9025    4.6406 H   0  0  0  0  0  0  0  0  0  0  0  0
    1.9483   -1.8193    3.6162 H   0  0  0  0  0  0  0  0  0  0  0  0
    1.1509   -1.1457    5.0320 H   0  0  0  0  0  0  0  0  0  0  0  0
    1.9715   -2.6766    5.1584 H   0  0  0  0  0  0  0  0  0  0  0  0
    5.4360   -1.1772    4.8085 H   0  0  0  0  0  0  0  0  0  0  0  0
    4.1728   -2.1191    2.6945 H   0  0  0  0  0  0  0  0  0  0  0  0
    5.7440   -2.6909    3.1786 H   0  0  0  0  0  0  0  0  0  0  0  0
    3.0584   -4.0418    3.8084 H   0  0  0  0  0  0  0  0  0  0  0  0
    5.9877   -4.1450    1.3738 H   0  0  0  0  0  0  0  0  0  0  0  0
    5.9285   -5.8842    1.1570 H   0  0  0  0  0  0  0  0  0  0  0  0
    6.5756   -5.2070    2.6304 H   0  0  0  0  0  0  0  0  0  0  0  0
    2.3145   -4.7226    1.8471 H   0  0  0  0  0  0  0  0  0  0  0  0
    2.2257   -4.6547   -0.9389 H   0  0  0  0  0  0  0  0  0  0  0  0
    1.8559   -3.2643    0.0778 H   0  0  0  0  0  0  0  0  0  0  0  0
    1.7957   -3.4187   -3.0664 H   0  0  0  0  0  0  0  0  0  0  0  0
    2.7123   -1.7645   -4.7149 H   0  0  0  0  0  0  0  0  0  0  0  0
    4.6070   -0.2937   -4.0042 H   0  0  0  0  0  0  0  0  0  0  0  0
    4.6887   -1.9219   -0.2214 H   0  0  0  0  0  0  0  0  0  0  0  0
  1  2  1  0
  1 44  1  0
  1 45  1  0
  1 46  1  0
  2 43  1  0
  2  3  1  0
  2 47  1  6
  3  4  1  0
  3 48  1  0
  3 49  1  0
  4 32  1  0
  4  5  1  0
  4 50  1  6
  5  6  1  0
  6 31  1  0
  6  7  1  0
  6 51  1  6
  7  8  1  0
  8 29  1  0
  8  9  1  1
  8 10  1  0
  9 52  1  0
  9 53  1  0
  9 54  1  0
 10 11  1  0
 10 55  1  0
 10 56  1  0
 11 27  1  0
 11 12  1  0
 11 57  1  6
 12 24  1  0
 12 13  2  0
 13 14  1  0
 13 58  1  0
 14 15  1  0
 14 59  1  0
 14 60  1  0
 15 22  1  0
 15 16  1  0
 15 61  1  1
 16 17  1  0
 16 62  1  0
 16 63  1  0
 17 18  1  0
 17 19  1  0
 17 64  1  1
 18 65  1  0
 19 20  1  0
 19 21  1  0
 19 66  1  6
 20 67  1  0
 21 22  1  0
 21 68  1  0
 21 69  1  0
 22 23  1  1
 22 24  1  0
 23 70  1  0
 23 71  1  0
 23 72  1  0
 24 25  1  0
 24 73  1  1
 25 26  1  0
 25 74  1  0
 25 75  1  0
 26 27  1  0
 26 76  1  0
 26 77  1  0
 27 28  1  1
 27 29  1  0
 28 78  1  0
 28 79  1  0
 28 80  1  0
 29 30  1  0
 29 81  1  6
 30 31  1  0
 30 82  1  0
 30 83  1  0
 31 32  1  0
 31 84  1  1
 32 33  1  6
 32 34  1  0
 33 85  1  0
 33 86  1  0
 33 87  1  0
 34 35  1  0
 34 43  1  0
 34 88  1  1
 35 36  1  0
 36 37  1  0
 36 89  1  0
 36 90  1  0
 37 42  1  0
 37 38  2  0
 38 39  1  0
 38 91  1  0
 39 40  2  0
 39 92  1  0
 40 41  1  0
 40 93  1  0
 41 42  2  0
 42 94  1  0
M  END
>  <i_m_ct_stereo_status>  (185) 
1

>  <s_m_source_file>  (185) 
/var/tmp/pbs.5076255.sched01/tmpkddd28mm/459jwin2qj.sdf

>  <i_m_source_file_index>  (185) 
31

>  <i_lp_mmshare_version>  (185) 
48012

>  <i_f3d_flags>  (185) 
0

>  <s_epik_input>  (185) 
W2NIXTFuW2NIXVtjSF1bY0hdYzFbQ0gyXU9bQ0BASF0oT1tDQEhdKFtDSDNdKVtDSDJdMilbQ0BdMyhbQ0gzXSlbQ0BIXTJPW0NASF0oTzQpW0NASF0zW0NIMl1bQ0BIXShbQ0BdNDVbQ0gzXSlbQ0BAXTYoW0NIM10pW0NASF0oW0NIMl01KUM9N1tDQEBIXShbQ0gyXVtDSDJdNilbQ0BdOChbQ0gzXSlbQ0BIXShbQ0gyXVtDSF03KVtDSDJdW0NAQEhdKFtPSF0pW0NAQEhdKFtPSF0pW0NIMl04

>  <s_epik_cmdline>  (185) 
J2VwaWtfcHl0aG9uJywgJy1waHQnLCAnMi4wJywgJy1waCcsICc3LjAnLCAnLXRuJywgJzgnLCAnLW1hJywgJzIwMCcsICctaW1hZScsICc8aW5maWxlLm1hZT4nLCAnLW9tYWUnLCAnPG91dGZpbGUubWFlPic=

>  <r_epik_Ionization_Penalty>  (185) 
0.00584204

>  <r_epik_Ionization_Penalty_Charging>  (185) 
0

>  <r_epik_Ionization_Penalty_Neutral>  (185) 
0.00584204

>  <r_epik_State_Penalty>  (185) 
0.00429148

>  <r_epik_Charging_Adjusted_Penalty>  (185) 
0.00429148

>  <i_epik_Tot_Q>  (185) 
0

>  <i_epik_Tot_abs_Q>  (185) 
0

>  <s_epik_Chemistry_Notes>  (185) 
This compound contains an acetal/aminal-like group ( X-CH(R)-Y where X, Y are N, S, or O) that may be acid/base labile, releasing an aldehyde.

>  <s_lp_Force_Field>  (185) 
OPLS3e

>  <r_lp_Energy>  (185) 
66.209

>  <b_lp_Chiralities_Consistent>  (185) 
1

>  <s_lp_Variant>  (185) 
57:0-1

>  <s_i_glide_gridfile>  (185) 
pfpi4k_grid

>  <i_i_glide_lignum>  (185) 
31

>  <i_i_glide_rotatable_bonds>  (185) 
5

>  <r_i_docking_score>  (185) 
-2.51357

>  <r_i_glide_ligand_efficiency>  (185) 
-0.0584552

>  <r_i_glide_ligand_efficiency_sa>  (185) 
-0.204792

>  <r_i_glide_ligand_efficiency_ln>  (185) 
-0.527929

>  <r_i_glide_gscore>  (185) 
-2.51357

>  <r_i_glide_lipo>  (185) 
-0.506353

>  <r_i_glide_hbond>  (185) 
0

>  <r_i_glide_metal>  (185) 
-0

>  <r_i_glide_rewards>  (185) 
-0.00720315

>  <r_i_glide_evdw>  (185) 
-36.9818

>  <r_i_glide_ecoul>  (185) 
-1.45187

>  <r_i_glide_erotb>  (185) 
0.0668528

>  <r_i_glide_esite>  (185) 
0

>  <r_i_glide_emodel>  (185) 
-45.4077

>  <r_i_glide_energy>  (185) 
-38.4337

>  <r_i_glide_einternal>  (185) 
0.660948

>  <r_i_glide_intrahb_reward>  (185) 
-0

>  <i_i_glide_confnum>  (185) 
3

>  <i_i_glide_posenum>  (185) 
5

>  <r_i_glide_eff_state_penalty>  (185) 
0

>  <ligand_id>  (185) 
57

>  <original_smiles>  (185) 
CC1CC2OC3OC4(C)CC5C6=CCC7CC(O)C(O)CC7(C)C6CCC5(C)C4CC3C2(C)C(OCc2cccnc2)O1

>  <smiles>  (185) 
[H]OC1([H])C([H])([H])C2([H])C([H])([H])C([H])=C3C([H])(C([H])([H])C([H])([H])C4(C([H])([H])[H])C3([H])C([H])([H])C3(C([H])([H])[H])OC5([H])OC6([H])C([H])([H])C([H])(C([H])([H])[H])OC([H])(OC([H])([H])c7c([H])nc([H])c([H])c7[H])C6(C([H])([H])[H])C5([H])C([H])([H])C34[H])C2(C([H])([H])[H])C([H])([H])C1([H])O[H]

$$$$
58:0:0
     RDKit          3D

 44 50  0  0  1  0  0  0  0  0999 V2000
    3.9277   -7.2345    0.9489 C   0  0  0  0  0  0  0  0  0  0  0  0
    4.7631   -6.1186    1.5914 C   0  0  0  0  0  0  0  0  0  0  0  0
    4.2219   -4.6970    1.3630 C   0  0  1  0  0  0  0  0  0  0  0  0
    4.5631   -3.7218    2.5209 C   0  0  0  0  0  0  0  0  0  0  0  0
    3.2140   -3.0371    2.3300 C   0  0  1  0  0  0  0  0  0  0  0  0
    3.0719   -1.7231    1.4876 C   0  0  0  0  0  0  0  0  0  0  0  0
    3.2145   -1.7683   -0.0058 N   0  0  1  0  0  0  0  0  0  0  0  0
    4.1503   -0.8028   -0.7258 C   0  0  2  0  0  0  0  0  0  0  0  0
    3.7926   -0.7668   -2.2519 C   0  0  0  0  0  0  0  0  0  0  0  0
    4.2791   -2.1400   -2.7562 C   0  0  0  0  0  0  0  0  0  0  0  0
    4.6914   -2.7185   -1.4035 C   0  0  1  0  0  0  0  0  0  0  0  0
    5.4870   -3.9482   -1.1417 C   0  0  1  0  0  0  0  0  0  0  0  0
    6.8461   -3.2012   -0.9516 C   0  0  2  0  0  0  0  0  0  0  0  0
    7.0031   -2.7602    0.4667 C   0  0  0  0  0  0  0  0  0  0  0  0
    6.1392   -1.7616    0.6056 C   0  0  0  0  0  0  0  0  0  0  0  0
    5.4524   -1.5798   -0.7260 C   0  0  2  0  0  0  0  0  0  0  0  0
    6.5371   -1.9135   -1.5847 O   0  0  0  0  0  0  0  0  0  0  0  0
    4.3123   -4.2414   -0.1148 C   0  0  2  0  0  0  0  0  0  0  0  0
    3.4585   -3.0885   -0.6442 C   0  0  1  0  0  0  0  0  0  0  0  0
    2.7715   -4.4302    1.8475 C   0  0  0  0  0  0  0  0  0  0  0  0
    4.3635   -8.2090    1.1618 H   0  0  0  0  0  0  0  0  0  0  0  0
    3.8852   -7.1240   -0.1322 H   0  0  0  0  0  0  0  0  0  0  0  0
    2.9094   -7.2439    1.3326 H   0  0  0  0  0  0  0  0  0  0  0  0
    4.8238   -6.3284    2.6596 H   0  0  0  0  0  0  0  0  0  0  0  0
    5.7841   -6.1715    1.2238 H   0  0  0  0  0  0  0  0  0  0  0  0
    4.6169   -4.2318    3.4861 H   0  0  0  0  0  0  0  0  0  0  0  0
    5.4342   -3.0896    2.4596 H   0  0  0  0  0  0  0  0  0  0  0  0
    2.7970   -2.8636    3.3297 H   0  0  0  0  0  0  0  0  0  0  0  0
    2.0563   -1.3495    1.6528 H   0  0  0  0  0  0  0  0  0  0  0  0
    3.7036   -0.9404    1.9115 H   0  0  0  0  0  0  0  0  0  0  0  0
    4.2177    0.1739   -0.2486 H   0  0  0  0  0  0  0  0  0  0  0  0
    2.7189   -0.6465   -2.4189 H   0  0  0  0  0  0  0  0  0  0  0  0
    4.3289    0.0310   -2.7668 H   0  0  0  0  0  0  0  0  0  0  0  0
    3.4840   -2.7193   -3.2328 H   0  0  0  0  0  0  0  0  0  0  0  0
    5.1012   -2.0700   -3.4682 H   0  0  0  0  0  0  0  0  0  0  0  0
    5.4302   -4.5992   -2.0136 H   0  0  0  0  0  0  0  0  0  0  0  0
    7.7280   -3.6834   -1.3788 H   0  0  0  0  0  0  0  0  0  0  0  0
    7.6769   -3.1883    1.1921 H   0  0  0  0  0  0  0  0  0  0  0  0
    5.9756   -1.1505    1.4820 H   0  0  0  0  0  0  0  0  0  0  0  0
    3.8268   -5.0715   -0.6211 H   0  0  0  0  0  0  0  0  0  0  0  0
    2.6266   -3.4261   -1.2638 H   0  0  0  0  0  0  0  0  0  0  0  0
    1.9984   -4.4174    1.0765 H   0  0  0  0  0  0  0  0  0  0  0  0
    2.4702   -5.0816    2.6681 H   0  0  0  0  0  0  0  0  0  0  0  0
    2.2913   -1.4729   -0.3315 H   0  0  0  0  0  0  0  0  0  0  0  0
  1  2  1  0
  1 21  1  0
  1 22  1  0
  1 23  1  0
  3  2  1  6
  2 24  1  0
  2 25  1  0
  3 18  1  0
  3 20  1  0
  3  4  1  0
  4  5  1  0
  4 26  1  0
  4 27  1  0
  5  6  1  0
  5 20  1  0
  5 28  1  1
  6  7  1  0
  6 29  1  0
  6 30  1  0
  7 19  1  0
  7  8  1  0
  7 44  1  6
  8 16  1  0
  8  9  1  0
  8 31  1  1
  9 10  1  0
  9 32  1  0
  9 33  1  0
 11 10  1  6
 10 34  1  0
 10 35  1  0
 11 16  1  0
 11 19  1  0
 11 12  1  0
 12 13  1  0
 12 18  1  0
 12 36  1  6
 13 17  1  0
 13 14  1  0
 13 37  1  6
 14 15  2  0
 14 38  1  0
 16 15  1  1
 15 39  1  0
 16 17  1  0
 18 19  1  0
 18 40  1  6
 19 41  1  6
 20 42  1  0
 20 43  1  0
M  CHG  1   7   1
M  END
>  <i_m_ct_stereo_status>  (186) 
1

>  <s_m_source_file>  (186) 
/var/tmp/pbs.5076255.sched01/tmpkddd28mm/459jwin2qj.sdf

>  <i_m_source_file_index>  (186) 
32

>  <i_lp_mmshare_version>  (186) 
48012

>  <i_f3d_flags>  (186) 
0

>  <s_epik_input>  (186) 
W0NIMl0xW0NAQEhdKFtDSDJdMilbQ0gyXVtDQF0yKFtDSDJdW0NIM10pW0NAQEhdKFtDQEBIXTNbQ0BASF0oTzQpW0NIXT1bQ0hdNSlbQ0BIXTZOMVtDQEBIXShbQ0BAXTQ1W0NAQF0zNjcpW0NIMl1bQ0gyXTc=

>  <s_epik_cmdline>  (186) 
J2VwaWtfcHl0aG9uJywgJy1waHQnLCAnMi4wJywgJy1waCcsICc3LjAnLCAnLXRuJywgJzgnLCAnLW1hJywgJzIwMCcsICctaW1hZScsICc8aW5maWxlLm1hZT4nLCAnLW9tYWUnLCAnPG91dGZpbGUubWFlPic=

>  <r_epik_Ionization_Penalty>  (186) 
0.000741418

>  <r_epik_Ionization_Penalty_Charging>  (186) 
0.000741418

>  <r_epik_Ionization_Penalty_Neutral>  (186) 
2.63117e-15

>  <r_epik_State_Penalty>  (186) 
0.000473665

>  <r_epik_Charging_Adjusted_Penalty>  (186) 
0.00121508

>  <i_epik_Tot_Q>  (186) 
1

>  <i_epik_Tot_abs_Q>  (186) 
1

>  <s_lp_Force_Field>  (186) 
OPLS3e

>  <r_lp_Energy>  (186) 
152.575

>  <b_lp_Chiralities_Consistent>  (186) 
1

>  <s_lp_Variant>  (186) 
58:0-1

>  <s_i_glide_gridfile>  (186) 
pfpi4k_grid

>  <i_i_glide_lignum>  (186) 
32

>  <i_i_glide_rotatable_bonds>  (186) 
1

>  <r_i_docking_score>  (186) 
-4.66099

>  <r_i_glide_ligand_efficiency>  (186) 
-0.23305

>  <r_i_glide_ligand_efficiency_sa>  (186) 
-0.632594

>  <r_i_glide_ligand_efficiency_ln>  (186) 
-1.16649

>  <r_i_glide_gscore>  (186) 
-4.66099

>  <r_i_glide_lipo>  (186) 
-0.64021

>  <r_i_glide_hbond>  (186) 
-0.36

>  <r_i_glide_metal>  (186) 
-0

>  <r_i_glide_rewards>  (186) 
-1.56553

>  <r_i_glide_evdw>  (186) 
-16.5978

>  <r_i_glide_ecoul>  (186) 
-7.83316

>  <r_i_glide_erotb>  (186) 
0

>  <r_i_glide_esite>  (186) 
-0.0903874

>  <r_i_glide_emodel>  (186) 
-32.3728

>  <r_i_glide_energy>  (186) 
-24.431

>  <r_i_glide_einternal>  (186) 
1.51172

>  <r_i_glide_intrahb_reward>  (186) 
-0

>  <i_i_glide_confnum>  (186) 
2

>  <i_i_glide_posenum>  (186) 
37

>  <r_i_glide_eff_state_penalty>  (186) 
0

>  <ligand_id>  (186) 
58

>  <original_smiles>  (186) 
CCC12CC(CN3C4CCC56C(C7C=CC45O7)C1C36)C2

>  <smiles>  (186) 
[H]C1=C([H])C23OC1([H])C1([H])C4([H])C5(C([H])([H])C([H])([H])[H])C([H])([H])C([H])(C5([H])[H])C([H])([H])[N+]5([H])C2([H])C([H])([H])C([H])([H])C31C45[H]

$$$$
58:0:1
     RDKit          3D

 44 50  0  0  1  0  0  0  0  0999 V2000
    7.0156   -5.3860    1.1680 C   0  0  0  0  0  0  0  0  0  0  0  0
    5.6966   -5.1189    1.8959 C   0  0  0  0  0  0  0  0  0  0  0  0
    4.8947   -3.9445    1.3283 C   0  0  1  0  0  0  0  0  0  0  0  0
    5.4226   -2.5702    1.7792 C   0  0  0  0  0  0  0  0  0  0  0  0
    3.9889   -2.0454    1.8147 C   0  0  1  0  0  0  0  0  0  0  0  0
    3.3611   -1.2198    0.6467 C   0  0  0  0  0  0  0  0  0  0  0  0
    3.0163   -1.9273   -0.6352 N   0  0  1  0  0  0  0  0  0  0  0  0
    3.4837   -1.3397   -1.9577 C   0  0  2  0  0  0  0  0  0  0  0  0
    2.6713   -1.9829   -3.1202 C   0  0  0  0  0  0  0  0  0  0  0  0
    3.1714   -3.4219   -3.1954 C   0  0  0  0  0  0  0  0  0  0  0  0
    4.0688   -3.3727   -1.9660 C   0  0  1  0  0  0  0  0  0  0  0  0
    5.1363   -4.3225   -1.5395 C   0  0  1  0  0  0  0  0  0  0  0  0
    6.3081   -3.5282   -2.1913 C   0  0  2  0  0  0  0  0  0  0  0  0
    6.8225   -2.5467   -1.2140 C   0  0  0  0  0  0  0  0  0  0  0  0
    5.8858   -1.6320   -1.1654 C   0  0  0  0  0  0  0  0  0  0  0  0
    4.7929   -2.0374   -2.1239 C   0  0  2  0  0  0  0  0  0  0  0  0
    5.5715   -2.6766   -3.1203 O   0  0  0  0  0  0  0  0  0  0  0  0
    4.4134   -4.1706   -0.1321 C   0  0  2  0  0  0  0  0  0  0  0  0
    3.2469   -3.3825   -0.7231 C   0  0  1  0  0  0  0  0  0  0  0  0
    3.6581   -3.5119    2.1515 C   0  0  0  0  0  0  0  0  0  0  0  0
    7.5588   -6.1910    1.6595 H   0  0  0  0  0  0  0  0  0  0  0  0
    7.6589   -4.5071    1.1679 H   0  0  0  0  0  0  0  0  0  0  0  0
    6.8556   -5.6927    0.1350 H   0  0  0  0  0  0  0  0  0  0  0  0
    5.0918   -6.0208    1.8840 H   0  0  0  0  0  0  0  0  0  0  0  0
    5.9150   -4.9337    2.9484 H   0  0  0  0  0  0  0  0  0  0  0  0
    5.8680   -2.6175    2.7830 H   0  0  0  0  0  0  0  0  0  0  0  0
    6.0998   -2.0111    1.1580 H   0  0  0  0  0  0  0  0  0  0  0  0
    3.9102   -1.4717    2.7422 H   0  0  0  0  0  0  0  0  0  0  0  0
    2.4256   -0.8213    1.0208 H   0  0  0  0  0  0  0  0  0  0  0  0
    3.9523   -0.3298    0.4689 H   0  0  0  0  0  0  0  0  0  0  0  0
    3.5533   -0.2617   -2.0255 H   0  0  0  0  0  0  0  0  0  0  0  0
    1.6247   -2.0440   -2.8677 H   0  0  0  0  0  0  0  0  0  0  0  0
    2.8310   -1.4763   -4.0799 H   0  0  0  0  0  0  0  0  0  0  0  0
    2.3243   -4.1001   -3.0893 H   0  0  0  0  0  0  0  0  0  0  0  0
    3.6854   -3.6683   -4.1236 H   0  0  0  0  0  0  0  0  0  0  0  0
    4.9962   -5.3090   -1.9711 H   0  0  0  0  0  0  0  0  0  0  0  0
    7.0854   -4.0413   -2.7279 H   0  0  0  0  0  0  0  0  0  0  0  0
    7.7734   -2.6214   -0.7013 H   0  0  0  0  0  0  0  0  0  0  0  0
    5.9137   -0.6969   -0.6220 H   0  0  0  0  0  0  0  0  0  0  0  0
    3.9751   -5.1565   -0.0455 H   0  0  0  0  0  0  0  0  0  0  0  0
    2.3340   -3.9848   -0.8117 H   0  0  0  0  0  0  0  0  0  0  0  0
    2.6820   -3.8263    1.7776 H   0  0  0  0  0  0  0  0  0  0  0  0
    3.7640   -3.7412    3.2210 H   0  0  0  0  0  0  0  0  0  0  0  0
    2.0098   -1.7134   -0.7100 H   0  0  0  0  0  0  0  0  0  0  0  0
  1  2  1  0
  1 21  1  0
  1 22  1  0
  1 23  1  0
  3  2  1  1
  2 24  1  0
  2 25  1  0
  3 18  1  0
  3 20  1  0
  3  4  1  0
  4  5  1  0
  4 26  1  0
  4 27  1  0
  5  6  1  0
  5 20  1  0
  5 28  1  1
  6  7  1  0
  6 29  1  0
  6 30  1  0
  7 19  1  0
  7  8  1  0
  7 44  1  6
  8 16  1  0
  8  9  1  0
  8 31  1  1
  9 10  1  0
  9 32  1  0
  9 33  1  0
 11 10  1  6
 10 34  1  0
 10 35  1  0
 11 16  1  0
 11 19  1  0
 11 12  1  0
 12 13  1  0
 12 18  1  0
 12 36  1  6
 13 17  1  0
 13 14  1  0
 13 37  1  6
 14 15  2  0
 14 38  1  0
 16 15  1  1
 15 39  1  0
 16 17  1  0
 18 19  1  0
 18 40  1  1
 19 41  1  6
 20 42  1  0
 20 43  1  0
M  CHG  1   7   1
M  END
>  <i_m_ct_stereo_status>  (187) 
1

>  <s_m_source_file>  (187) 
/var/tmp/pbs.5076255.sched01/tmpkddd28mm/459jwin2qj.sdf

>  <i_m_source_file_index>  (187) 
32

>  <i_lp_mmshare_version>  (187) 
48012

>  <i_f3d_flags>  (187) 
0

>  <s_epik_input>  (187) 
W0NIMl0xW0NAQEhdKFtDSDJdMilbQ0gyXVtDQF0yKFtDSDJdW0NIM10pW0NAQEhdKFtDQEBIXTNbQ0BASF0oTzQpW0NIXT1bQ0hdNSlbQ0BIXTZOMVtDQEBIXShbQ0BAXTQ1W0NAQF0zNjcpW0NIMl1bQ0gyXTc=

>  <s_epik_cmdline>  (187) 
J2VwaWtfcHl0aG9uJywgJy1waHQnLCAnMi4wJywgJy1waCcsICc3LjAnLCAnLXRuJywgJzgnLCAnLW1hJywgJzIwMCcsICctaW1hZScsICc8aW5maWxlLm1hZT4nLCAnLW9tYWUnLCAnPG91dGZpbGUubWFlPic=

>  <r_epik_Ionization_Penalty>  (187) 
0.000741418

>  <r_epik_Ionization_Penalty_Charging>  (187) 
0.000741418

>  <r_epik_Ionization_Penalty_Neutral>  (187) 
2.63117e-15

>  <r_epik_State_Penalty>  (187) 
0.000473665

>  <r_epik_Charging_Adjusted_Penalty>  (187) 
0.00121508

>  <i_epik_Tot_Q>  (187) 
1

>  <i_epik_Tot_abs_Q>  (187) 
1

>  <s_lp_Force_Field>  (187) 
OPLS3e

>  <r_lp_Energy>  (187) 
152.575

>  <b_lp_Chiralities_Consistent>  (187) 
1

>  <s_lp_Variant>  (187) 
58:0-1

>  <s_i_glide_gridfile>  (187) 
pfpi4k_grid

>  <i_i_glide_lignum>  (187) 
32

>  <i_i_glide_rotatable_bonds>  (187) 
1

>  <r_i_docking_score>  (187) 
-4.31659

>  <r_i_glide_ligand_efficiency>  (187) 
-0.21583

>  <r_i_glide_ligand_efficiency_sa>  (187) 
-0.585852

>  <r_i_glide_ligand_efficiency_ln>  (187) 
-1.0803

>  <r_i_glide_gscore>  (187) 
-4.31659

>  <r_i_glide_lipo>  (187) 
-0.550703

>  <r_i_glide_hbond>  (187) 
-0.169666

>  <r_i_glide_metal>  (187) 
-0

>  <r_i_glide_rewards>  (187) 
-1.56553

>  <r_i_glide_evdw>  (187) 
-11.5744

>  <r_i_glide_ecoul>  (187) 
-9.01317

>  <r_i_glide_erotb>  (187) 
0

>  <r_i_glide_esite>  (187) 
-0.1

>  <r_i_glide_emodel>  (187) 
-28.5647

>  <r_i_glide_energy>  (187) 
-20.5876

>  <r_i_glide_einternal>  (187) 
0.00051116

>  <r_i_glide_intrahb_reward>  (187) 
-0

>  <i_i_glide_confnum>  (187) 
1

>  <i_i_glide_posenum>  (187) 
3

>  <r_i_glide_eff_state_penalty>  (187) 
0

>  <ligand_id>  (187) 
58

>  <original_smiles>  (187) 
CCC12CC(CN3C4CCC56C(C7C=CC45O7)C1C36)C2

>  <smiles>  (187) 
[H]C1=C([H])C23OC1([H])C1([H])C4([H])C5(C([H])([H])C([H])([H])[H])C([H])([H])C([H])(C5([H])[H])C([H])([H])[N+]5([H])C2([H])C([H])([H])C([H])([H])C31C45[H]

$$$$
58:0:2
     RDKit          3D

 44 50  0  0  1  0  0  0  0  0999 V2000
    4.7469    1.0324    5.0862 C   0  0  0  0  0  0  0  0  0  0  0  0
    3.4664    0.1849    5.1429 C   0  0  0  0  0  0  0  0  0  0  0  0
    2.3944    0.5872    4.1175 C   0  0  1  0  0  0  0  0  0  0  0  0
    1.6920   -0.6206    3.4465 C   0  0  0  0  0  0  0  0  0  0  0  0
    1.6117    0.1574    2.1395 C   0  0  1  0  0  0  0  0  0  0  0  0
    0.3197    0.9209    1.7196 C   0  0  0  0  0  0  0  0  0  0  0  0
   -0.0779    2.1604    2.4557 N   0  0  1  0  0  0  0  0  0  0  0  0
   -1.5045    2.3486    2.9768 C   0  0  2  0  0  0  0  0  0  0  0  0
   -1.7697    3.8593    3.2872 C   0  0  0  0  0  0  0  0  0  0  0  0
   -0.9072    4.1158    4.5382 C   0  0  0  0  0  0  0  0  0  0  0  0
   -0.2344    2.7473    4.6129 C   0  0  1  0  0  0  0  0  0  0  0  0
    0.5692    2.1772    5.7298 C   0  0  1  0  0  0  0  0  0  0  0  0
   -0.6017    1.3535    6.3413 C   0  0  2  0  0  0  0  0  0  0  0  0
   -0.6965    0.0166    5.6805 C   0  0  0  0  0  0  0  0  0  0  0  0
   -1.1679    0.2711    4.4709 C   0  0  0  0  0  0  0  0  0  0  0  0
   -1.3816    1.7611    4.3756 C   0  0  2  0  0  0  0  0  0  0  0  0
   -1.7503    2.0289    5.7291 O   0  0  0  0  0  0  0  0  0  0  0  0
    1.5864    1.8320    4.5584 C   0  0  2  0  0  0  0  0  0  0  0  0
    0.7997    2.6638    3.5405 C   0  0  1  0  0  0  0  0  0  0  0  0
    2.8863    0.8350    2.6635 C   0  0  0  0  0  0  0  0  0  0  0  0
    5.4538    0.7028    5.8456 H   0  0  0  0  0  0  0  0  0  0  0  0
    4.5478    2.0887    5.2566 H   0  0  0  0  0  0  0  0  0  0  0  0
    5.2455    0.9402    4.1229 H   0  0  0  0  0  0  0  0  0  0  0  0
    3.7498   -0.8604    5.0052 H   0  0  0  0  0  0  0  0  0  0  0  0
    3.0403    0.2381    6.1414 H   0  0  0  0  0  0  0  0  0  0  0  0
    2.3583   -1.4847    3.3516 H   0  0  0  0  0  0  0  0  0  0  0  0
    0.7578   -0.9912    3.8375 H   0  0  0  0  0  0  0  0  0  0  0  0
    1.8880   -0.5264    1.3385 H   0  0  0  0  0  0  0  0  0  0  0  0
    0.4677    1.2558    0.6983 H   0  0  0  0  0  0  0  0  0  0  0  0
   -0.5195    0.2335    1.6571 H   0  0  0  0  0  0  0  0  0  0  0  0
   -2.2632    1.8901    2.3449 H   0  0  0  0  0  0  0  0  0  0  0  0
   -1.4738    4.5127    2.4715 H   0  0  0  0  0  0  0  0  0  0  0  0
   -2.8196    4.0314    3.5168 H   0  0  0  0  0  0  0  0  0  0  0  0
   -0.1905    4.9298    4.3946 H   0  0  0  0  0  0  0  0  0  0  0  0
   -1.4999    4.3559    5.4227 H   0  0  0  0  0  0  0  0  0  0  0  0
    0.9345    2.9820    6.3670 H   0  0  0  0  0  0  0  0  0  0  0  0
   -0.6541    1.3311    7.4316 H   0  0  0  0  0  0  0  0  0  0  0  0
   -0.4135   -0.9299    6.1185 H   0  0  0  0  0  0  0  0  0  0  0  0
   -1.4020   -0.4356    3.6913 H   0  0  0  0  0  0  0  0  0  0  0  0
    2.3905    2.5217    4.8033 H   0  0  0  0  0  0  0  0  0  0  0  0
    1.2887    3.6104    3.2978 H   0  0  0  0  0  0  0  0  0  0  0  0
    3.0062    1.8780    2.3584 H   0  0  0  0  0  0  0  0  0  0  0  0
    3.7853    0.2655    2.4097 H   0  0  0  0  0  0  0  0  0  0  0  0
   -0.0061    2.8831    1.7362 H   0  0  0  0  0  0  0  0  0  0  0  0
  1  2  1  0
  1 21  1  0
  1 22  1  0
  1 23  1  0
  3  2  1  1
  2 24  1  0
  2 25  1  0
  3 18  1  0
  3 20  1  0
  3  4  1  0
  4  5  1  0
  4 26  1  0
  4 27  1  0
  5  6  1  0
  5 20  1  0
  5 28  1  6
  6  7  1  0
  6 29  1  0
  6 30  1  0
  7 19  1  0
  7  8  1  0
  7 44  1  6
  8 16  1  0
  8  9  1  0
  8 31  1  6
  9 10  1  0
  9 32  1  0
  9 33  1  0
 11 10  1  1
 10 34  1  0
 10 35  1  0
 11 16  1  0
 11 19  1  0
 11 12  1  0
 12 13  1  0
 12 18  1  0
 12 36  1  1
 13 17  1  0
 13 14  1  0
 13 37  1  1
 14 15  2  0
 14 38  1  0
 16 15  1  6
 15 39  1  0
 16 17  1  0
 18 19  1  0
 18 40  1  1
 19 41  1  6
 20 42  1  0
 20 43  1  0
M  CHG  1   7   1
M  END
>  <i_m_ct_stereo_status>  (188) 
1

>  <s_m_source_file>  (188) 
/var/tmp/pbs.5076255.sched01/tmpkddd28mm/459jwin2qj.sdf

>  <i_m_source_file_index>  (188) 
32

>  <i_lp_mmshare_version>  (188) 
48012

>  <i_f3d_flags>  (188) 
0

>  <s_epik_input>  (188) 
W0NIMl0xW0NAQEhdKFtDSDJdMilbQ0gyXVtDQF0yKFtDSDJdW0NIM10pW0NAQEhdKFtDQEBIXTNbQ0BASF0oTzQpW0NIXT1bQ0hdNSlbQ0BIXTZOMVtDQEBIXShbQ0BAXTQ1W0NAQF0zNjcpW0NIMl1bQ0gyXTc=

>  <s_epik_cmdline>  (188) 
J2VwaWtfcHl0aG9uJywgJy1waHQnLCAnMi4wJywgJy1waCcsICc3LjAnLCAnLXRuJywgJzgnLCAnLW1hJywgJzIwMCcsICctaW1hZScsICc8aW5maWxlLm1hZT4nLCAnLW9tYWUnLCAnPG91dGZpbGUubWFlPic=

>  <r_epik_Ionization_Penalty>  (188) 
0.000741418

>  <r_epik_Ionization_Penalty_Charging>  (188) 
0.000741418

>  <r_epik_Ionization_Penalty_Neutral>  (188) 
2.63117e-15

>  <r_epik_State_Penalty>  (188) 
0.000473665

>  <r_epik_Charging_Adjusted_Penalty>  (188) 
0.00121508

>  <i_epik_Tot_Q>  (188) 
1

>  <i_epik_Tot_abs_Q>  (188) 
1

>  <s_lp_Force_Field>  (188) 
OPLS3e

>  <r_lp_Energy>  (188) 
152.575

>  <b_lp_Chiralities_Consistent>  (188) 
1

>  <s_lp_Variant>  (188) 
58:0-1

>  <s_i_glide_gridfile>  (188) 
pfpi4k_grid

>  <i_i_glide_lignum>  (188) 
32

>  <i_i_glide_rotatable_bonds>  (188) 
1

>  <r_i_docking_score>  (188) 
-3.52206

>  <r_i_glide_ligand_efficiency>  (188) 
-0.176103

>  <r_i_glide_ligand_efficiency_sa>  (188) 
-0.478018

>  <r_i_glide_ligand_efficiency_ln>  (188) 
-0.881457

>  <r_i_glide_gscore>  (188) 
-3.52206

>  <r_i_glide_lipo>  (188) 
-0.0513671

>  <r_i_glide_hbond>  (188) 
-0.2

>  <r_i_glide_metal>  (188) 
-0

>  <r_i_glide_rewards>  (188) 
-1.56553

>  <r_i_glide_evdw>  (188) 
-15.2963

>  <r_i_glide_ecoul>  (188) 
-5.60238

>  <r_i_glide_erotb>  (188) 
0

>  <r_i_glide_esite>  (188) 
-0.1

>  <r_i_glide_emodel>  (188) 
-26.8133

>  <r_i_glide_energy>  (188) 
-20.8986

>  <r_i_glide_einternal>  (188) 
1.32821

>  <r_i_glide_intrahb_reward>  (188) 
-0

>  <i_i_glide_confnum>  (188) 
1

>  <i_i_glide_posenum>  (188) 
1

>  <r_i_glide_eff_state_penalty>  (188) 
0

>  <ligand_id>  (188) 
58

>  <original_smiles>  (188) 
CCC12CC(CN3C4CCC56C(C7C=CC45O7)C1C36)C2

>  <smiles>  (188) 
[H]C1=C([H])C23OC1([H])C1([H])C4([H])C5(C([H])([H])C([H])([H])[H])C([H])([H])C([H])(C5([H])[H])C([H])([H])[N+]5([H])C2([H])C([H])([H])C([H])([H])C31C45[H]

$$$$
59:0:0
     RDKit          3D

 13 14  0  0  1  0  0  0  0  0999 V2000
   -7.3781   -4.8425   -4.7200 C   0  0  0  0  0  0  0  0  0  0  0  0
   -8.1362   -4.8879   -5.9215 C   0  0  0  0  0  0  0  0  0  0  0  0
   -8.0507   -5.8602   -6.8690 N   0  0  0  0  0  0  0  0  0  0  0  0
   -7.1617   -6.8058   -6.5756 N   0  0  0  0  0  0  0  0  0  0  0  0
   -6.8684   -7.8969   -7.3496 N   0  0  0  0  0  0  0  0  0  0  0  0
   -5.9378   -8.5853   -6.7211 N   0  0  0  0  0  0  0  0  0  0  0  0
   -5.6034   -7.9660   -5.5132 C   0  0  0  0  0  0  0  0  0  0  0  0
   -6.3720   -6.8528   -5.4376 C   0  0  0  0  0  0  0  0  0  0  0  0
   -6.4430   -5.8617   -4.4345 C   0  0  0  0  0  0  0  0  0  0  0  0
   -7.5328   -4.0351   -4.0240 H   0  0  0  0  0  0  0  0  0  0  0  0
   -8.8537   -4.1099   -6.1276 H   0  0  0  0  0  0  0  0  0  0  0  0
   -4.8822   -8.3502   -4.8147 H   0  0  0  0  0  0  0  0  0  0  0  0
   -5.8412   -5.9114   -3.5320 H   0  0  0  0  0  0  0  0  0  0  0  0
  1  9  2  0
  1  2  1  0
  1 10  1  0
  2  3  2  0
  2 11  1  0
  3  4  1  0
  4  8  1  0
  4  5  1  0
  5  6  2  0
  6  7  1  0
  7  8  2  0
  7 12  1  0
  8  9  1  0
  9 13  1  0
M  END
>  <i_m_ct_stereo_status>  (189) 
1

>  <s_m_source_file>  (189) 
/var/tmp/pbs.5076255.sched01/tmpkddd28mm/459jwin2qj.sdf

>  <i_m_source_file_index>  (189) 
33

>  <i_lp_mmshare_version>  (189) 
48012

>  <i_f3d_flags>  (189) 
0

>  <s_epik_input>  (189) 
bjFbY0hdW2NIXVtjSF1jKG4xMilbY0hdbm4y

>  <s_epik_cmdline>  (189) 
J2VwaWtfcHl0aG9uJywgJy1waHQnLCAnMi4wJywgJy1waCcsICc3LjAnLCAnLXRuJywgJzgnLCAnLW1hJywgJzIwMCcsICctaW1hZScsICc8aW5maWxlLm1hZT4nLCAnLW9tYWUnLCAnPG91dGZpbGUubWFlPic=

>  <r_lp_tautomer_probability>  (189) 
1

>  <r_epik_Ionization_Penalty>  (189) 
2.57029e-08

>  <r_epik_Ionization_Penalty_Charging>  (189) 
0

>  <r_epik_Ionization_Penalty_Neutral>  (189) 
2.57029e-08

>  <r_epik_State_Penalty>  (189) 
-0

>  <r_epik_Charging_Adjusted_Penalty>  (189) 
0

>  <i_epik_Tot_Q>  (189) 
0

>  <i_epik_Tot_abs_Q>  (189) 
0

>  <s_lp_Force_Field>  (189) 
OPLS3e

>  <r_lp_Energy>  (189) 
12.8266

>  <b_lp_Chiralities_Consistent>  (189) 
1

>  <s_lp_Variant>  (189) 
59:0-1

>  <s_i_glide_gridfile>  (189) 
pfpi4k_grid

>  <i_i_glide_lignum>  (189) 
33

>  <i_i_glide_rotatable_bonds>  (189) 
0

>  <r_i_docking_score>  (189) 
-5.34942

>  <r_i_glide_ligand_efficiency>  (189) 
-0.59438

>  <r_i_glide_ligand_efficiency_sa>  (189) 
-1.23636

>  <r_i_glide_ligand_efficiency_ln>  (189) 
-1.67314

>  <r_i_glide_gscore>  (189) 
-5.34942

>  <r_i_glide_lipo>  (189) 
-1.56372

>  <r_i_glide_hbond>  (189) 
0

>  <r_i_glide_metal>  (189) 
-0

>  <r_i_glide_rewards>  (189) 
-2.82754

>  <r_i_glide_evdw>  (189) 
-17.7459

>  <r_i_glide_ecoul>  (189) 
-0.47243

>  <r_i_glide_erotb>  (189) 
0

>  <r_i_glide_esite>  (189) 
0

>  <r_i_glide_emodel>  (189) 
-25.6773

>  <r_i_glide_energy>  (189) 
-18.2183

>  <r_i_glide_einternal>  (189) 
0

>  <r_i_glide_intrahb_reward>  (189) 
-0

>  <i_i_glide_confnum>  (189) 
1

>  <i_i_glide_posenum>  (189) 
7

>  <r_i_glide_eff_state_penalty>  (189) 
0

>  <ligand_id>  (189) 
59

>  <original_smiles>  (189) 
c1cnn2nncc2c1

>  <smiles>  (189) 
[H]c1nn2nnc([H])c2c([H])c1[H]

$$$$
59:0:1
     RDKit          3D

 13 14  0  0  1  0  0  0  0  0999 V2000
    3.0200   -1.7981   -3.7748 C   0  0  0  0  0  0  0  0  0  0  0  0
    3.6664   -0.6415   -3.2700 C   0  0  0  0  0  0  0  0  0  0  0  0
    4.6244   -0.6474   -2.3126 N   0  0  0  0  0  0  0  0  0  0  0  0
    4.9353   -1.8517   -1.8604 N   0  0  0  0  0  0  0  0  0  0  0  0
    5.8695   -2.1200   -0.8970 N   0  0  0  0  0  0  0  0  0  0  0  0
    5.8931   -3.4202   -0.7300 N   0  0  0  0  0  0  0  0  0  0  0  0
    4.9629   -4.0347   -1.5720 C   0  0  0  0  0  0  0  0  0  0  0  0
    4.3748   -3.0358   -2.2813 C   0  0  0  0  0  0  0  0  0  0  0  0
    3.3683   -3.0722   -3.2759 C   0  0  0  0  0  0  0  0  0  0  0  0
    2.2539   -1.6863   -4.5250 H   0  0  0  0  0  0  0  0  0  0  0  0
    3.3929    0.3336   -3.6447 H   0  0  0  0  0  0  0  0  0  0  0  0
    4.7959   -5.0996   -1.6004 H   0  0  0  0  0  0  0  0  0  0  0  0
    2.9017   -3.9881   -3.6106 H   0  0  0  0  0  0  0  0  0  0  0  0
  1  9  2  0
  1  2  1  0
  1 10  1  0
  2  3  2  0
  2 11  1  0
  3  4  1  0
  4  8  1  0
  4  5  1  0
  5  6  2  0
  6  7  1  0
  7  8  2  0
  7 12  1  0
  8  9  1  0
  9 13  1  0
M  END
>  <i_m_ct_stereo_status>  (190) 
1

>  <s_m_source_file>  (190) 
/var/tmp/pbs.5076255.sched01/tmpkddd28mm/459jwin2qj.sdf

>  <i_m_source_file_index>  (190) 
33

>  <i_lp_mmshare_version>  (190) 
48012

>  <i_f3d_flags>  (190) 
0

>  <s_epik_input>  (190) 
bjFbY0hdW2NIXVtjSF1jKG4xMilbY0hdbm4y

>  <s_epik_cmdline>  (190) 
J2VwaWtfcHl0aG9uJywgJy1waHQnLCAnMi4wJywgJy1waCcsICc3LjAnLCAnLXRuJywgJzgnLCAnLW1hJywgJzIwMCcsICctaW1hZScsICc8aW5maWxlLm1hZT4nLCAnLW9tYWUnLCAnPG91dGZpbGUubWFlPic=

>  <r_lp_tautomer_probability>  (190) 
1

>  <r_epik_Ionization_Penalty>  (190) 
2.57029e-08

>  <r_epik_Ionization_Penalty_Charging>  (190) 
0

>  <r_epik_Ionization_Penalty_Neutral>  (190) 
2.57029e-08

>  <r_epik_State_Penalty>  (190) 
-0

>  <r_epik_Charging_Adjusted_Penalty>  (190) 
0

>  <i_epik_Tot_Q>  (190) 
0

>  <i_epik_Tot_abs_Q>  (190) 
0

>  <s_lp_Force_Field>  (190) 
OPLS3e

>  <r_lp_Energy>  (190) 
12.8266

>  <b_lp_Chiralities_Consistent>  (190) 
1

>  <s_lp_Variant>  (190) 
59:0-1

>  <s_i_glide_gridfile>  (190) 
pfpi4k_grid

>  <i_i_glide_lignum>  (190) 
33

>  <i_i_glide_rotatable_bonds>  (190) 
0

>  <r_i_docking_score>  (190) 
-3.95771

>  <r_i_glide_ligand_efficiency>  (190) 
-0.439745

>  <r_i_glide_ligand_efficiency_sa>  (190) 
-0.914707

>  <r_i_glide_ligand_efficiency_ln>  (190) 
-1.23786

>  <r_i_glide_gscore>  (190) 
-3.95771

>  <r_i_glide_lipo>  (190) 
-0.437356

>  <r_i_glide_hbond>  (190) 
0

>  <r_i_glide_metal>  (190) 
-0

>  <r_i_glide_rewards>  (190) 
-2.25

>  <r_i_glide_evdw>  (190) 
-16.4975

>  <r_i_glide_ecoul>  (190) 
-2.54979

>  <r_i_glide_erotb>  (190) 
0

>  <r_i_glide_esite>  (190) 
-0.0630101

>  <r_i_glide_emodel>  (190) 
-24.5637

>  <r_i_glide_energy>  (190) 
-19.0473

>  <r_i_glide_einternal>  (190) 
0

>  <r_i_glide_intrahb_reward>  (190) 
-0

>  <i_i_glide_confnum>  (190) 
2

>  <i_i_glide_posenum>  (190) 
18

>  <r_i_glide_eff_state_penalty>  (190) 
0

>  <ligand_id>  (190) 
59

>  <original_smiles>  (190) 
c1cnn2nncc2c1

>  <smiles>  (190) 
[H]c1nn2nnc([H])c2c([H])c1[H]

$$$$
59:0:2
     RDKit          3D

 13 14  0  0  1  0  0  0  0  0999 V2000
    5.3586   -1.5217   -0.0008 C   0  0  0  0  0  0  0  0  0  0  0  0
    6.4174   -2.3389   -0.4834 C   0  0  0  0  0  0  0  0  0  0  0  0
    6.4015   -3.0262   -1.6527 N   0  0  0  0  0  0  0  0  0  0  0  0
    5.2716   -2.8837   -2.3372 N   0  0  0  0  0  0  0  0  0  0  0  0
    4.9883   -3.4810   -3.5300 N   0  0  0  0  0  0  0  0  0  0  0  0
    3.7998   -3.0634   -3.9072 N   0  0  0  0  0  0  0  0  0  0  0  0
    3.2438   -2.2305   -2.9326 C   0  0  0  0  0  0  0  0  0  0  0  0
    4.1866   -2.1146   -1.9621 C   0  0  0  0  0  0  0  0  0  0  0  0
    4.1699   -1.3847   -0.7548 C   0  0  0  0  0  0  0  0  0  0  0  0
    5.4670   -1.0155    0.9443 H   0  0  0  0  0  0  0  0  0  0  0  0
    7.3205   -2.4495    0.0982 H   0  0  0  0  0  0  0  0  0  0  0  0
    2.2616   -1.7942   -2.9937 H   0  0  0  0  0  0  0  0  0  0  0  0
    3.3158   -0.7893   -0.4489 H   0  0  0  0  0  0  0  0  0  0  0  0
  1  9  2  0
  1  2  1  0
  1 10  1  0
  2  3  2  0
  2 11  1  0
  3  4  1  0
  4  8  1  0
  4  5  1  0
  5  6  2  0
  6  7  1  0
  7  8  2  0
  7 12  1  0
  8  9  1  0
  9 13  1  0
M  END
>  <i_m_ct_stereo_status>  (191) 
1

>  <s_m_source_file>  (191) 
/var/tmp/pbs.5076255.sched01/tmpkddd28mm/459jwin2qj.sdf

>  <i_m_source_file_index>  (191) 
33

>  <i_lp_mmshare_version>  (191) 
48012

>  <i_f3d_flags>  (191) 
0

>  <s_epik_input>  (191) 
bjFbY0hdW2NIXVtjSF1jKG4xMilbY0hdbm4y

>  <s_epik_cmdline>  (191) 
J2VwaWtfcHl0aG9uJywgJy1waHQnLCAnMi4wJywgJy1waCcsICc3LjAnLCAnLXRuJywgJzgnLCAnLW1hJywgJzIwMCcsICctaW1hZScsICc8aW5maWxlLm1hZT4nLCAnLW9tYWUnLCAnPG91dGZpbGUubWFlPic=

>  <r_lp_tautomer_probability>  (191) 
1

>  <r_epik_Ionization_Penalty>  (191) 
2.57029e-08

>  <r_epik_Ionization_Penalty_Charging>  (191) 
0

>  <r_epik_Ionization_Penalty_Neutral>  (191) 
2.57029e-08

>  <r_epik_State_Penalty>  (191) 
-0

>  <r_epik_Charging_Adjusted_Penalty>  (191) 
0

>  <i_epik_Tot_Q>  (191) 
0

>  <i_epik_Tot_abs_Q>  (191) 
0

>  <s_lp_Force_Field>  (191) 
OPLS3e

>  <r_lp_Energy>  (191) 
12.8266

>  <b_lp_Chiralities_Consistent>  (191) 
1

>  <s_lp_Variant>  (191) 
59:0-1

>  <s_i_glide_gridfile>  (191) 
pfpi4k_grid

>  <i_i_glide_lignum>  (191) 
33

>  <i_i_glide_rotatable_bonds>  (191) 
0

>  <r_i_docking_score>  (191) 
-3.5758

>  <r_i_glide_ligand_efficiency>  (191) 
-0.397311

>  <r_i_glide_ligand_efficiency_sa>  (191) 
-0.82644

>  <r_i_glide_ligand_efficiency_ln>  (191) 
-1.11841

>  <r_i_glide_gscore>  (191) 
-3.5758

>  <r_i_glide_lipo>  (191) 
0

>  <r_i_glide_hbond>  (191) 
0

>  <r_i_glide_metal>  (191) 
-0

>  <r_i_glide_rewards>  (191) 
-2.44121

>  <r_i_glide_evdw>  (191) 
-18.6043

>  <r_i_glide_ecoul>  (191) 
-1.36249

>  <r_i_glide_erotb>  (191) 
0

>  <r_i_glide_esite>  (191) 
0

>  <r_i_glide_emodel>  (191) 
-24.9525

>  <r_i_glide_energy>  (191) 
-19.9668

>  <r_i_glide_einternal>  (191) 
0

>  <r_i_glide_intrahb_reward>  (191) 
-0

>  <i_i_glide_confnum>  (191) 
1

>  <i_i_glide_posenum>  (191) 
3

>  <r_i_glide_eff_state_penalty>  (191) 
0

>  <ligand_id>  (191) 
59

>  <original_smiles>  (191) 
c1cnn2nncc2c1

>  <smiles>  (191) 
[H]c1nn2nnc([H])c2c([H])c1[H]

$$$$
60:0:0
     RDKit          3D

 53 59  0  0  1  0  0  0  0  0999 V2000
    1.3402   -3.5692    3.3161 C   0  0  0  0  0  0  0  0  0  0  0  0
    1.8071   -2.7749    2.2317 O   0  0  0  0  0  0  0  0  0  0  0  0
    3.1879   -2.8227    1.9171 C   0  0  1  0  0  0  0  0  0  0  0  0
    4.0568   -2.5457    3.0336 C   0  0  2  0  0  0  0  0  0  0  0  0
    4.3289   -1.1216    3.4033 C   0  0  0  0  0  0  0  0  0  0  0  0
    4.6789   -1.0792    1.9251 C   0  0  1  0  0  0  0  0  0  0  0  0
    5.0999   -2.5306    1.9564 C   0  0  2  0  0  0  0  0  0  0  0  0
    4.6041   -3.6397    0.7361 C   0  0  1  0  0  0  0  0  0  0  0  0
    3.5814   -3.7090   -0.5355 C   0  0  0  0  0  0  0  0  0  0  0  0
    3.8721   -3.0106   -1.8454 C   0  0  0  0  0  0  0  0  0  0  0  0
    3.7778   -1.5720   -1.6075 N   0  0  2  0  0  0  0  0  0  0  0  0
    4.0640   -0.7384   -2.8069 C   0  0  0  0  0  0  0  0  0  0  0  0
    3.2866   -1.1617   -4.0631 C   0  0  0  0  0  0  0  0  0  0  0  0
    3.4985   -0.2098   -5.0848 O   0  0  0  0  0  0  0  0  0  0  0  0
    4.5758   -1.2506   -0.4040 C   0  0  2  0  0  0  0  0  0  0  0  0
    6.1390   -1.8314   -0.5382 C   0  0  0  0  0  0  0  0  0  0  0  0
    6.6503   -3.3140   -0.1662 C   0  0  0  0  0  0  0  0  0  0  0  0
    8.0212   -3.6614   -0.1800 C   0  0  0  0  0  0  0  0  0  0  0  0
    8.3429   -4.8573    0.5585 C   0  0  0  0  0  0  0  0  0  0  0  0
    7.3932   -5.5539    1.3785 C   0  0  0  0  0  0  0  0  0  0  0  0
    7.7988   -6.5663    2.2099 O   0  0  0  0  0  0  0  0  0  0  0  0
    6.0527   -5.1295    1.3216 C   0  0  0  0  0  0  0  0  0  0  0  0
    5.7446   -4.2559    0.3247 C   0  0  0  0  0  0  0  0  0  0  0  0
    4.9330   -5.1680    2.1883 O   0  0  0  0  0  0  0  0  0  0  0  0
    3.7753   -4.3653    1.6298 C   0  0  1  0  0  0  0  0  0  0  0  0
    3.6342   -1.4049    0.9814 C   0  0  1  0  0  0  0  0  0  0  0  0
    2.6345   -0.4070    0.9818 O   0  0  0  0  0  0  0  0  0  0  0  0
    0.2637   -3.4438    3.3815 H   0  0  0  0  0  0  0  0  0  0  0  0
    1.7506   -3.2445    4.2700 H   0  0  0  0  0  0  0  0  0  0  0  0
    1.5426   -4.6296    3.1767 H   0  0  0  0  0  0  0  0  0  0  0  0
    4.1800   -3.2857    3.8190 H   0  0  0  0  0  0  0  0  0  0  0  0
    3.4205   -0.5772    3.6707 H   0  0  0  0  0  0  0  0  0  0  0  0
    5.1422   -0.9763    4.1132 H   0  0  0  0  0  0  0  0  0  0  0  0
    5.4456   -0.3472    1.6880 H   0  0  0  0  0  0  0  0  0  0  0  0
    6.0743   -2.6795    2.4285 H   0  0  0  0  0  0  0  0  0  0  0  0
    3.5489   -4.7591   -0.8171 H   0  0  0  0  0  0  0  0  0  0  0  0
    2.5356   -3.4814   -0.2970 H   0  0  0  0  0  0  0  0  0  0  0  0
    4.8253   -3.3145   -2.2673 H   0  0  0  0  0  0  0  0  0  0  0  0
    3.1029   -3.3242   -2.5450 H   0  0  0  0  0  0  0  0  0  0  0  0
    3.8250    0.2976   -2.6055 H   0  0  0  0  0  0  0  0  0  0  0  0
    5.1151   -0.7555   -3.0525 H   0  0  0  0  0  0  0  0  0  0  0  0
    3.6355   -2.1281   -4.4412 H   0  0  0  0  0  0  0  0  0  0  0  0
    2.2140   -1.2635   -3.8618 H   0  0  0  0  0  0  0  0  0  0  0  0
    2.9762    0.5582   -4.8938 H   0  0  0  0  0  0  0  0  0  0  0  0
    4.7227   -0.1733   -0.4722 H   0  0  0  0  0  0  0  0  0  0  0  0
    6.4925   -1.6710   -1.5538 H   0  0  0  0  0  0  0  0  0  0  0  0
    6.7688   -1.1727    0.0629 H   0  0  0  0  0  0  0  0  0  0  0  0
    8.7837   -3.0589   -0.6727 H   0  0  0  0  0  0  0  0  0  0  0  0
    9.3603   -5.2015    0.5581 H   0  0  0  0  0  0  0  0  0  0  0  0
    8.6894   -6.8586    2.0765 H   0  0  0  0  0  0  0  0  0  0  0  0
    3.0327   -5.0619    1.2231 H   0  0  0  0  0  0  0  0  0  0  0  0
    1.9098   -0.6630    0.4089 H   0  0  0  0  0  0  0  0  0  0  0  0
    2.8150   -1.3746   -1.3598 H   0  0  0  0  0  0  0  0  0  0  0  0
  1  2  1  0
  1 28  1  0
  1 29  1  0
  1 30  1  0
  3  2  1  1
  3 25  1  0
  3 26  1  0
  3  4  1  0
  4  7  1  0
  4  5  1  0
  4 31  1  1
  5  6  1  0
  5 32  1  0
  5 33  1  0
  6 26  1  0
  6  7  1  0
  6 34  1  6
  7  8  1  0
  7 35  1  1
  8 23  1  0
  8 25  1  0
  8  9  1  6
  9 10  1  0
  9 36  1  0
  9 37  1  0
 10 11  1  0
 10 38  1  0
 10 39  1  0
 11 12  1  0
 11 15  1  0
 11 53  1  1
 12 13  1  0
 12 40  1  0
 12 41  1  0
 13 14  1  0
 13 42  1  0
 13 43  1  0
 14 44  1  0
 15 16  1  0
 15 26  1  0
 15 45  1  6
 16 17  1  0
 16 46  1  0
 16 47  1  0
 17 23  2  0
 17 18  1  0
 18 19  2  0
 18 48  1  0
 19 20  1  0
 19 49  1  0
 20 21  1  0
 20 22  2  0
 21 50  1  0
 22 23  1  0
 22 24  1  0
 24 25  1  0
 25 51  1  6
 26 27  1  6
 27 52  1  0
M  CHG  1  11   1
M  END
>  <i_m_ct_stereo_status>  (192) 
1

>  <s_m_source_file>  (192) 
/var/tmp/pbs.5076255.sched01/tmpkddd28mm/459jwin2qj.sdf

>  <i_m_source_file_index>  (192) 
34

>  <i_lp_mmshare_version>  (192) 
48012

>  <i_f3d_flags>  (192) 
0

>  <s_epik_input>  (192) 
W0NAXTEyM1tDQEBIXTRbQ0BASF01W0NAXTYoT1tDSDNdKVtDQEBIXTNPYzdjMmMoW2NIXVtjSF1jN1tPSF0pW0NIMl1bQ0BIXShbQ0BdNihbT0hdKVtDQEhdNFtDSDJdNSlOKFtDSDJdW0NIMl0xKVtDSDJdW0NIMl1bT0hd

>  <s_epik_cmdline>  (192) 
J2VwaWtfcHl0aG9uJywgJy1waHQnLCAnMi4wJywgJy1waCcsICc3LjAnLCAnLXRuJywgJzgnLCAnLW1hJywgJzIwMCcsICctaW1hZScsICc8aW5maWxlLm1hZT4nLCAnLW9tYWUnLCAnPG91dGZpbGUubWFlPic=

>  <r_lp_tautomer_probability>  (192) 
1

>  <r_epik_Ionization_Penalty>  (192) 
0.120972

>  <r_epik_Ionization_Penalty_Charging>  (192) 
0.114786

>  <r_epik_Ionization_Penalty_Neutral>  (192) 
0.00618621

>  <r_epik_State_Penalty>  (192) 
0.104436

>  <r_epik_Charging_Adjusted_Penalty>  (192) 
0.219222

>  <i_epik_Tot_Q>  (192) 
1

>  <i_epik_Tot_abs_Q>  (192) 
1

>  <s_lp_Force_Field>  (192) 
OPLS3e

>  <r_lp_Energy>  (192) 
336.107

>  <b_lp_Chiralities_Consistent>  (192) 
1

>  <s_lp_Variant>  (192) 
60:0-1

>  <s_i_glide_gridfile>  (192) 
pfpi4k_grid

>  <i_i_glide_lignum>  (192) 
34

>  <i_i_glide_rotatable_bonds>  (192) 
6

>  <r_i_docking_score>  (192) 
-4.44892

>  <r_i_glide_ligand_efficiency>  (192) 
-0.164775

>  <r_i_glide_ligand_efficiency_sa>  (192) 
-0.494324

>  <r_i_glide_ligand_efficiency_ln>  (192) 
-1.03563

>  <r_i_glide_gscore>  (192) 
-4.44892

>  <r_i_glide_lipo>  (192) 
-1.03884

>  <r_i_glide_hbond>  (192) 
-0.123219

>  <r_i_glide_metal>  (192) 
-0

>  <r_i_glide_rewards>  (192) 
-0.869762

>  <r_i_glide_evdw>  (192) 
-24.808

>  <r_i_glide_ecoul>  (192) 
-9.24544

>  <r_i_glide_erotb>  (192) 
0.278486

>  <r_i_glide_esite>  (192) 
-0.0683609

>  <r_i_glide_emodel>  (192) 
-44.5686

>  <r_i_glide_energy>  (192) 
-34.0535

>  <r_i_glide_einternal>  (192) 
1.77552

>  <r_i_glide_intrahb_reward>  (192) 
-0

>  <i_i_glide_confnum>  (192) 
3

>  <i_i_glide_posenum>  (192) 
12

>  <r_i_glide_eff_state_penalty>  (192) 
0

>  <ligand_id>  (192) 
60

>  <original_smiles>  (192) 
COC12C3CC4C3C35CCN(CCO)C(Cc6ccc(O)c(c63)OC51)C42O

>  <smiles>  (192) 
[H]Oc1c([H])c([H])c2c3c1OC1([H])C4(OC([H])([H])[H])C5([H])C([H])([H])C6([H])C5([H])C31C([H])([H])C([H])([H])[N+]([H])(C([H])([H])C([H])([H])O[H])C([H])(C2([H])[H])C64O[H]

$$$$
60:0:1
     RDKit          3D

 53 59  0  0  1  0  0  0  0  0999 V2000
    1.3097   -3.3107    3.3790 C   0  0  0  0  0  0  0  0  0  0  0  0
    1.8049   -2.6007    2.2510 O   0  0  0  0  0  0  0  0  0  0  0  0
    3.1929   -2.6892    1.9622 C   0  0  1  0  0  0  0  0  0  0  0  0
    4.0535   -2.3925    3.0794 C   0  0  2  0  0  0  0  0  0  0  0  0
    4.3564   -0.9606    3.4015 C   0  0  0  0  0  0  0  0  0  0  0  0
    4.7230   -0.9802    1.9277 C   0  0  1  0  0  0  0  0  0  0  0  0
    5.1052   -2.4430    2.0082 C   0  0  2  0  0  0  0  0  0  0  0  0
    4.5902   -3.5772    0.8164 C   0  0  1  0  0  0  0  0  0  0  0  0
    3.5794   -3.6658   -0.4692 C   0  0  0  0  0  0  0  0  0  0  0  0
    3.8936   -2.9967   -1.7973 C   0  0  0  0  0  0  0  0  0  0  0  0
    3.8434   -1.5511   -1.5927 N   0  0  2  0  0  0  0  0  0  0  0  0
    4.1874   -0.7807   -2.8146 C   0  0  0  0  0  0  0  0  0  0  0  0
    2.9831   -0.6156   -3.7586 C   0  0  0  0  0  0  0  0  0  0  0  0
    3.4482   -0.1537   -5.0139 O   0  0  0  0  0  0  0  0  0  0  0  0
    4.6396   -1.2296   -0.3907 C   0  0  2  0  0  0  0  0  0  0  0  0
    6.1887   -1.8541   -0.5017 C   0  0  0  0  0  0  0  0  0  0  0  0
    6.6554   -3.3327   -0.0705 C   0  0  0  0  0  0  0  0  0  0  0  0
    8.0234   -3.7165   -0.0517 C   0  0  0  0  0  0  0  0  0  0  0  0
    8.3038   -4.8911    0.7371 C   0  0  0  0  0  0  0  0  0  0  0  0
    7.3169   -5.5236    1.5622 C   0  0  0  0  0  0  0  0  0  0  0  0
    7.6631   -6.5045    2.4436 O   0  0  0  0  0  0  0  0  0  0  0  0
    5.9946   -5.0747    1.4685 C   0  0  0  0  0  0  0  0  0  0  0  0
    5.7238   -4.2354    0.4414 C   0  0  0  0  0  0  0  0  0  0  0  0
    4.8713   -5.0638    2.3286 O   0  0  0  0  0  0  0  0  0  0  0  0
    3.7421   -4.2534    1.7326 C   0  0  1  0  0  0  0  0  0  0  0  0
    3.6834   -1.3167    0.9855 C   0  0  1  0  0  0  0  0  0  0  0  0
    2.7082   -0.2926    0.9391 O   0  0  0  0  0  0  0  0  0  0  0  0
    0.2334   -3.1625    3.4252 H   0  0  0  0  0  0  0  0  0  0  0  0
    1.7186   -2.9340    4.3150 H   0  0  0  0  0  0  0  0  0  0  0  0
    1.4962   -4.3810    3.3105 H   0  0  0  0  0  0  0  0  0  0  0  0
    4.1500   -3.1063    3.8929 H   0  0  0  0  0  0  0  0  0  0  0  0
    3.4597   -0.3829    3.6372 H   0  0  0  0  0  0  0  0  0  0  0  0
    5.1649   -0.8070    4.1140 H   0  0  0  0  0  0  0  0  0  0  0  0
    5.5118   -0.2751    1.6718 H   0  0  0  0  0  0  0  0  0  0  0  0
    6.0740   -2.5971    2.4911 H   0  0  0  0  0  0  0  0  0  0  0  0
    3.5216   -4.7242   -0.7316 H   0  0  0  0  0  0  0  0  0  0  0  0
    2.5399   -3.4060   -0.2422 H   0  0  0  0  0  0  0  0  0  0  0  0
    4.8467   -3.3477   -2.1874 H   0  0  0  0  0  0  0  0  0  0  0  0
    3.1436   -3.2963   -2.5267 H   0  0  0  0  0  0  0  0  0  0  0  0
    4.5316    0.2231   -2.5889 H   0  0  0  0  0  0  0  0  0  0  0  0
    5.0001   -1.2647   -3.3474 H   0  0  0  0  0  0  0  0  0  0  0  0
    2.4505   -1.5600   -3.9265 H   0  0  0  0  0  0  0  0  0  0  0  0
    2.2602    0.1053   -3.3516 H   0  0  0  0  0  0  0  0  0  0  0  0
    3.4662    0.7925   -4.9917 H   0  0  0  0  0  0  0  0  0  0  0  0
    4.8220   -0.1600   -0.4643 H   0  0  0  0  0  0  0  0  0  0  0  0
    6.5418   -1.7279   -1.5233 H   0  0  0  0  0  0  0  0  0  0  0  0
    6.8304   -1.1922    0.0817 H   0  0  0  0  0  0  0  0  0  0  0  0
    8.8030   -3.1526   -0.5527 H   0  0  0  0  0  0  0  0  0  0  0  0
    9.3120   -5.2669    0.7708 H   0  0  0  0  0  0  0  0  0  0  0  0
    6.9085   -6.8518    2.8884 H   0  0  0  0  0  0  0  0  0  0  0  0
    2.9841   -4.9429    1.3431 H   0  0  0  0  0  0  0  0  0  0  0  0
    1.9612   -0.5751    0.4109 H   0  0  0  0  0  0  0  0  0  0  0  0
    2.8872   -1.3070   -1.3536 H   0  0  0  0  0  0  0  0  0  0  0  0
  1  2  1  0
  1 28  1  0
  1 29  1  0
  1 30  1  0
  3  2  1  1
  3 25  1  0
  3 26  1  0
  3  4  1  0
  4  7  1  0
  4  5  1  0
  4 31  1  1
  5  6  1  0
  5 32  1  0
  5 33  1  0
  6 26  1  0
  6  7  1  0
  6 34  1  6
  7  8  1  0
  7 35  1  1
  8 23  1  0
  8 25  1  0
  8  9  1  6
  9 10  1  0
  9 36  1  0
  9 37  1  0
 10 11  1  0
 10 38  1  0
 10 39  1  0
 11 12  1  0
 11 15  1  0
 11 53  1  1
 12 13  1  0
 12 40  1  0
 12 41  1  0
 13 14  1  0
 13 42  1  0
 13 43  1  0
 14 44  1  0
 15 16  1  0
 15 26  1  0
 15 45  1  6
 16 17  1  0
 16 46  1  0
 16 47  1  0
 17 23  2  0
 17 18  1  0
 18 19  2  0
 18 48  1  0
 19 20  1  0
 19 49  1  0
 20 21  1  0
 20 22  2  0
 21 50  1  0
 22 23  1  0
 22 24  1  0
 24 25  1  0
 25 51  1  6
 26 27  1  6
 27 52  1  0
M  CHG  1  11   1
M  END
>  <i_m_ct_stereo_status>  (193) 
1

>  <s_m_source_file>  (193) 
/var/tmp/pbs.5076255.sched01/tmpkddd28mm/459jwin2qj.sdf

>  <i_m_source_file_index>  (193) 
34

>  <i_lp_mmshare_version>  (193) 
48012

>  <i_f3d_flags>  (193) 
0

>  <s_epik_input>  (193) 
W0NAXTEyM1tDQEBIXTRbQ0BASF01W0NAXTYoT1tDSDNdKVtDQEBIXTNPYzdjMmMoW2NIXVtjSF1jN1tPSF0pW0NIMl1bQ0BIXShbQ0BdNihbT0hdKVtDQEhdNFtDSDJdNSlOKFtDSDJdW0NIMl0xKVtDSDJdW0NIMl1bT0hd

>  <s_epik_cmdline>  (193) 
J2VwaWtfcHl0aG9uJywgJy1waHQnLCAnMi4wJywgJy1waCcsICc3LjAnLCAnLXRuJywgJzgnLCAnLW1hJywgJzIwMCcsICctaW1hZScsICc8aW5maWxlLm1hZT4nLCAnLW9tYWUnLCAnPG91dGZpbGUubWFlPic=

>  <r_lp_tautomer_probability>  (193) 
1

>  <r_epik_Ionization_Penalty>  (193) 
0.120972

>  <r_epik_Ionization_Penalty_Charging>  (193) 
0.114786

>  <r_epik_Ionization_Penalty_Neutral>  (193) 
0.00618621

>  <r_epik_State_Penalty>  (193) 
0.104436

>  <r_epik_Charging_Adjusted_Penalty>  (193) 
0.219222

>  <i_epik_Tot_Q>  (193) 
1

>  <i_epik_Tot_abs_Q>  (193) 
1

>  <s_lp_Force_Field>  (193) 
OPLS3e

>  <r_lp_Energy>  (193) 
336.107

>  <b_lp_Chiralities_Consistent>  (193) 
1

>  <s_lp_Variant>  (193) 
60:0-1

>  <s_i_glide_gridfile>  (193) 
pfpi4k_grid

>  <i_i_glide_lignum>  (193) 
34

>  <i_i_glide_rotatable_bonds>  (193) 
6

>  <r_i_docking_score>  (193) 
-4.31468

>  <r_i_glide_ligand_efficiency>  (193) 
-0.159803

>  <r_i_glide_ligand_efficiency_sa>  (193) 
-0.479409

>  <r_i_glide_ligand_efficiency_ln>  (193) 
-1.00439

>  <r_i_glide_gscore>  (193) 
-4.31468

>  <r_i_glide_lipo>  (193) 
-1.17823

>  <r_i_glide_hbond>  (193) 
-0.0947168

>  <r_i_glide_metal>  (193) 
-0

>  <r_i_glide_rewards>  (193) 
-0.869762

>  <r_i_glide_evdw>  (193) 
-26.2232

>  <r_i_glide_ecoul>  (193) 
-7.16675

>  <r_i_glide_erotb>  (193) 
0.278486

>  <r_i_glide_esite>  (193) 
-0.0642842

>  <r_i_glide_emodel>  (193) 
-42.9338

>  <r_i_glide_energy>  (193) 
-33.3899

>  <r_i_glide_einternal>  (193) 
2.06885

>  <r_i_glide_intrahb_reward>  (193) 
-0

>  <i_i_glide_confnum>  (193) 
3

>  <i_i_glide_posenum>  (193) 
1

>  <r_i_glide_eff_state_penalty>  (193) 
0

>  <ligand_id>  (193) 
60

>  <original_smiles>  (193) 
COC12C3CC4C3C35CCN(CCO)C(Cc6ccc(O)c(c63)OC51)C42O

>  <smiles>  (193) 
[H]Oc1c([H])c([H])c2c3c1OC1([H])C4(OC([H])([H])[H])C5([H])C([H])([H])C6([H])C5([H])C31C([H])([H])C([H])([H])[N+]([H])(C([H])([H])C([H])([H])O[H])C([H])(C2([H])[H])C64O[H]

$$$$
60:0:2
     RDKit          3D

 53 59  0  0  1  0  0  0  0  0999 V2000
    7.2906   -7.6258    3.7532 C   0  0  0  0  0  0  0  0  0  0  0  0
    6.1530   -6.8076    4.0309 O   0  0  0  0  0  0  0  0  0  0  0  0
    4.8766   -7.2204    3.5130 C   0  0  1  0  0  0  0  0  0  0  0  0
    4.6902   -8.6425    3.3683 C   0  0  2  0  0  0  0  0  0  0  0  0
    5.1173   -9.3184    2.0825 C   0  0  0  0  0  0  0  0  0  0  0  0
    4.2484   -8.2042    1.5215 C   0  0  1  0  0  0  0  0  0  0  0  0
    3.3810   -8.1957    2.7736 C   0  0  2  0  0  0  0  0  0  0  0  0
    2.9053   -6.7359    3.5517 C   0  0  1  0  0  0  0  0  0  0  0  0
    3.2169   -5.1364    3.5123 C   0  0  0  0  0  0  0  0  0  0  0  0
    2.7071   -4.2416    2.3947 C   0  0  0  0  0  0  0  0  0  0  0  0
    3.4039   -4.6231    1.1572 N   0  0  2  0  0  0  0  0  0  0  0  0
    2.9828   -3.8321   -0.0344 C   0  0  0  0  0  0  0  0  0  0  0  0
    3.4326   -2.3525   -0.0147 C   0  0  0  0  0  0  0  0  0  0  0  0
    3.0149   -1.7164   -1.1861 O   0  0  0  0  0  0  0  0  0  0  0  0
    3.3304   -6.1011    1.0149 C   0  0  2  0  0  0  0  0  0  0  0  0
    1.7338   -6.6233    1.1068 C   0  0  0  0  0  0  0  0  0  0  0  0
    0.9107   -6.9545    2.4393 C   0  0  0  0  0  0  0  0  0  0  0  0
   -0.3560   -7.5815    2.4256 C   0  0  0  0  0  0  0  0  0  0  0  0
   -0.7518   -8.2128    3.6541 C   0  0  0  0  0  0  0  0  0  0  0  0
    0.1351   -8.3599    4.7678 C   0  0  0  0  0  0  0  0  0  0  0  0
   -0.2031   -9.1564    5.8237 O   0  0  0  0  0  0  0  0  0  0  0  0
    1.3781   -7.7080    4.7044 C   0  0  0  0  0  0  0  0  0  0  0  0
    1.5503   -6.8517    3.6778 C   0  0  0  0  0  0  0  0  0  0  0  0
    2.6448   -7.9363    5.2893 O   0  0  0  0  0  0  0  0  0  0  0  0
    3.6985   -7.0316    4.6943 C   0  0  1  0  0  0  0  0  0  0  0  0
    4.6270   -6.8365    1.8121 C   0  0  1  0  0  0  0  0  0  0  0  0
    5.8155   -6.4730    1.1374 O   0  0  0  0  0  0  0  0  0  0  0  0
    8.1898   -7.1764    4.1730 H   0  0  0  0  0  0  0  0  0  0  0  0
    7.4825   -7.7485    2.6873 H   0  0  0  0  0  0  0  0  0  0  0  0
    7.1826   -8.6145    4.2009 H   0  0  0  0  0  0  0  0  0  0  0  0
    4.6506   -9.2555    4.2641 H   0  0  0  0  0  0  0  0  0  0  0  0
    6.1778   -9.2186    1.8310 H   0  0  0  0  0  0  0  0  0  0  0  0
    4.7625  -10.3430    1.9535 H   0  0  0  0  0  0  0  0  0  0  0  0
    3.7885   -8.4531    0.5635 H   0  0  0  0  0  0  0  0  0  0  0  0
    2.6844   -9.0401    2.7911 H   0  0  0  0  0  0  0  0  0  0  0  0
    2.7414   -4.7117    4.3973 H   0  0  0  0  0  0  0  0  0  0  0  0
    4.2701   -4.8733    3.6485 H   0  0  0  0  0  0  0  0  0  0  0  0
    1.6192   -4.2935    2.2938 H   0  0  0  0  0  0  0  0  0  0  0  0
    2.9403   -3.2036    2.6398 H   0  0  0  0  0  0  0  0  0  0  0  0
    3.3953   -4.2788   -0.9468 H   0  0  0  0  0  0  0  0  0  0  0  0
    1.8900   -3.8603   -0.1521 H   0  0  0  0  0  0  0  0  0  0  0  0
    3.0638   -1.8207    0.8731 H   0  0  0  0  0  0  0  0  0  0  0  0
    4.5342   -2.3097    0.0405 H   0  0  0  0  0  0  0  0  0  0  0  0
    2.0453   -1.4519   -1.0824 H   0  0  0  0  0  0  0  0  0  0  0  0
    3.5790   -6.2646   -0.0395 H   0  0  0  0  0  0  0  0  0  0  0  0
    1.1226   -5.9467    0.5245 H   0  0  0  0  0  0  0  0  0  0  0  0
    1.6570   -7.5398    0.5323 H   0  0  0  0  0  0  0  0  0  0  0  0
   -0.9517   -7.6263    1.5288 H   0  0  0  0  0  0  0  0  0  0  0  0
   -1.7248   -8.6778    3.6798 H   0  0  0  0  0  0  0  0  0  0  0  0
   -0.8929   -9.7921    5.6398 H   0  0  0  0  0  0  0  0  0  0  0  0
    3.9124   -6.2308    5.4077 H   0  0  0  0  0  0  0  0  0  0  0  0
    6.4745   -7.0892    1.4180 H   0  0  0  0  0  0  0  0  0  0  0  0
    4.3961   -4.4354    1.2846 H   0  0  0  0  0  0  0  0  0  0  0  0
  1  2  1  0
  1 28  1  0
  1 29  1  0
  1 30  1  0
  3  2  1  1
  3 25  1  0
  3 26  1  0
  3  4  1  0
  4  7  1  0
  4  5  1  0
  4 31  1  1
  5  6  1  0
  5 32  1  0
  5 33  1  0
  6 26  1  0
  6  7  1  0
  6 34  1  6
  7  8  1  0
  7 35  1  6
  8 23  1  0
  8 25  1  0
  8  9  1  6
  9 10  1  0
  9 36  1  0
  9 37  1  0
 10 11  1  0
 10 38  1  0
 10 39  1  0
 11 12  1  0
 11 15  1  0
 11 53  1  1
 12 13  1  0
 12 40  1  0
 12 41  1  0
 13 14  1  0
 13 42  1  0
 13 43  1  0
 14 44  1  0
 15 16  1  0
 15 26  1  0
 15 45  1  6
 16 17  1  0
 16 46  1  0
 16 47  1  0
 17 23  2  0
 17 18  1  0
 18 19  2  0
 18 48  1  0
 19 20  1  0
 19 49  1  0
 20 21  1  0
 20 22  2  0
 21 50  1  0
 22 23  1  0
 22 24  1  0
 24 25  1  0
 25 51  1  1
 26 27  1  6
 27 52  1  0
M  CHG  1  11   1
M  END
>  <i_m_ct_stereo_status>  (194) 
1

>  <s_m_source_file>  (194) 
/var/tmp/pbs.5076255.sched01/tmpkddd28mm/459jwin2qj.sdf

>  <i_m_source_file_index>  (194) 
34

>  <i_lp_mmshare_version>  (194) 
48012

>  <i_f3d_flags>  (194) 
0

>  <s_epik_input>  (194) 
W0NAXTEyM1tDQEBIXTRbQ0BASF01W0NAXTYoT1tDSDNdKVtDQEBIXTNPYzdjMmMoW2NIXVtjSF1jN1tPSF0pW0NIMl1bQ0BIXShbQ0BdNihbT0hdKVtDQEhdNFtDSDJdNSlOKFtDSDJdW0NIMl0xKVtDSDJdW0NIMl1bT0hd

>  <s_epik_cmdline>  (194) 
J2VwaWtfcHl0aG9uJywgJy1waHQnLCAnMi4wJywgJy1waCcsICc3LjAnLCAnLXRuJywgJzgnLCAnLW1hJywgJzIwMCcsICctaW1hZScsICc8aW5maWxlLm1hZT4nLCAnLW9tYWUnLCAnPG91dGZpbGUubWFlPic=

>  <r_lp_tautomer_probability>  (194) 
1

>  <r_epik_Ionization_Penalty>  (194) 
0.120972

>  <r_epik_Ionization_Penalty_Charging>  (194) 
0.114786

>  <r_epik_Ionization_Penalty_Neutral>  (194) 
0.00618621

>  <r_epik_State_Penalty>  (194) 
0.104436

>  <r_epik_Charging_Adjusted_Penalty>  (194) 
0.219222

>  <i_epik_Tot_Q>  (194) 
1

>  <i_epik_Tot_abs_Q>  (194) 
1

>  <s_lp_Force_Field>  (194) 
OPLS3e

>  <r_lp_Energy>  (194) 
336.107

>  <b_lp_Chiralities_Consistent>  (194) 
1

>  <s_lp_Variant>  (194) 
60:0-1

>  <s_i_glide_gridfile>  (194) 
pfpi4k_grid

>  <i_i_glide_lignum>  (194) 
34

>  <i_i_glide_rotatable_bonds>  (194) 
6

>  <r_i_docking_score>  (194) 
-3.81145

>  <r_i_glide_ligand_efficiency>  (194) 
-0.141165

>  <r_i_glide_ligand_efficiency_sa>  (194) 
-0.423495

>  <r_i_glide_ligand_efficiency_ln>  (194) 
-0.887243

>  <r_i_glide_gscore>  (194) 
-3.81145

>  <r_i_glide_lipo>  (194) 
-0.0651986

>  <r_i_glide_hbond>  (194) 
-0.109757

>  <r_i_glide_metal>  (194) 
-0

>  <r_i_glide_rewards>  (194) 
-0.869762

>  <r_i_glide_evdw>  (194) 
-13.4721

>  <r_i_glide_ecoul>  (194) 
-15.8074

>  <r_i_glide_erotb>  (194) 
0.278486

>  <r_i_glide_esite>  (194) 
-0.000508226

>  <r_i_glide_emodel>  (194) 
-35.6721

>  <r_i_glide_energy>  (194) 
-29.2795

>  <r_i_glide_einternal>  (194) 
4.46971

>  <r_i_glide_intrahb_reward>  (194) 
-0

>  <i_i_glide_confnum>  (194) 
1

>  <i_i_glide_posenum>  (194) 
13

>  <r_i_glide_eff_state_penalty>  (194) 
0

>  <ligand_id>  (194) 
60

>  <original_smiles>  (194) 
COC12C3CC4C3C35CCN(CCO)C(Cc6ccc(O)c(c63)OC51)C42O

>  <smiles>  (194) 
[H]Oc1c([H])c([H])c2c3c1OC1([H])C4(OC([H])([H])[H])C5([H])C([H])([H])C6([H])C5([H])C31C([H])([H])C([H])([H])[N+]([H])(C([H])([H])C([H])([H])O[H])C([H])(C2([H])[H])C64O[H]

$$$$
60:1:0
     RDKit          3D

 52 58  0  0  1  0  0  0  0  0999 V2000
    7.2504  -10.2247    3.3827 C   0  0  0  0  0  0  0  0  0  0  0  0
    6.4386   -9.1561    3.8612 O   0  0  0  0  0  0  0  0  0  0  0  0
    5.0155   -9.3572    3.9116 C   0  0  1  0  0  0  0  0  0  0  0  0
    4.5590  -10.7092    4.1249 C   0  0  2  0  0  0  0  0  0  0  0  0
    4.2612  -11.6031    2.9486 C   0  0  0  0  0  0  0  0  0  0  0  0
    3.4450  -10.3791    2.5576 C   0  0  1  0  0  0  0  0  0  0  0  0
    3.2031  -10.0678    4.0137 C   0  0  2  0  0  0  0  0  0  0  0  0
    3.3292   -8.4651    4.6154 C   0  0  1  0  0  0  0  0  0  0  0  0
    3.8324   -6.9851    4.1602 C   0  0  0  0  0  0  0  0  0  0  0  0
    3.0640   -6.1616    3.1513 C   0  0  0  0  0  0  0  0  0  0  0  0
    3.0900   -6.7829    1.8620 N   0  0  0  0  0  0  0  0  0  0  0  0
    2.2585   -6.0301    0.9232 C   0  0  0  0  0  0  0  0  0  0  0  0
    2.9655   -4.7878    0.3611 C   0  0  0  0  0  0  0  0  0  0  0  0
    2.1940   -4.2695   -0.7069 O   0  0  0  0  0  0  0  0  0  0  0  0
    2.7652   -8.1976    2.0380 C   0  0  2  0  0  0  0  0  0  0  0  0
    1.2958   -8.3880    2.8361 C   0  0  0  0  0  0  0  0  0  0  0  0
    1.0655   -8.3840    4.4193 C   0  0  0  0  0  0  0  0  0  0  0  0
   -0.1709   -8.7263    5.0195 C   0  0  0  0  0  0  0  0  0  0  0  0
   -0.1156   -9.1103    6.3955 C   0  0  0  0  0  0  0  0  0  0  0  0
    1.1064   -9.2818    7.1023 C   0  0  0  0  0  0  0  0  0  0  0  0
    1.0935   -9.8575    8.3258 O   0  0  0  0  0  0  0  0  0  0  0  0
    2.3030   -8.9445    6.4343 C   0  0  0  0  0  0  0  0  0  0  0  0
    2.1624   -8.2706    5.2896 C   0  0  0  0  0  0  0  0  0  0  0  0
    3.6501   -9.3886    6.5149 O   0  0  0  0  0  0  0  0  0  0  0  0
    4.4677   -8.7833    5.3918 C   0  0  1  0  0  0  0  0  0  0  0  0
    4.1492   -9.1123    2.4020 C   0  0  1  0  0  0  0  0  0  0  0  0
    4.9709   -9.2250    1.2572 O   0  0  0  0  0  0  0  0  0  0  0  0
    8.2981   -9.9211    3.3562 H   0  0  0  0  0  0  0  0  0  0  0  0
    6.9916  -10.5366    2.3690 H   0  0  0  0  0  0  0  0  0  0  0  0
    7.1825  -11.0876    4.0425 H   0  0  0  0  0  0  0  0  0  0  0  0
    4.7834  -11.1909    5.0695 H   0  0  0  0  0  0  0  0  0  0  0  0
    5.1201  -11.7944    2.2908 H   0  0  0  0  0  0  0  0  0  0  0  0
    3.7057  -12.5156    3.1921 H   0  0  0  0  0  0  0  0  0  0  0  0
    2.5832  -10.6212    1.9361 H   0  0  0  0  0  0  0  0  0  0  0  0
    2.4708  -10.7452    4.4663 H   0  0  0  0  0  0  0  0  0  0  0  0
    3.7969   -6.3654    5.0556 H   0  0  0  0  0  0  0  0  0  0  0  0
    4.8813   -6.9425    3.8490 H   0  0  0  0  0  0  0  0  0  0  0  0
    2.0441   -6.0261    3.4950 H   0  0  0  0  0  0  0  0  0  0  0  0
    3.5269   -5.1753    3.0948 H   0  0  0  0  0  0  0  0  0  0  0  0
    2.0128   -6.6510    0.0767 H   0  0  0  0  0  0  0  0  0  0  0  0
    1.3030   -5.7259    1.3755 H   0  0  0  0  0  0  0  0  0  0  0  0
    3.0963   -4.0175    1.1276 H   0  0  0  0  0  0  0  0  0  0  0  0
    3.9637   -5.0352   -0.0130 H   0  0  0  0  0  0  0  0  0  0  0  0
    2.4128   -4.7781   -1.4845 H   0  0  0  0  0  0  0  0  0  0  0  0
    2.5091   -8.5423    1.0316 H   0  0  0  0  0  0  0  0  0  0  0  0
    0.6063   -7.6428    2.4622 H   0  0  0  0  0  0  0  0  0  0  0  0
    0.8600   -9.3221    2.4789 H   0  0  0  0  0  0  0  0  0  0  0  0
   -1.0821   -8.7597    4.4431 H   0  0  0  0  0  0  0  0  0  0  0  0
   -1.0386   -9.3891    6.8717 H   0  0  0  0  0  0  0  0  0  0  0  0
    1.2742  -10.8056    8.2173 H   0  0  0  0  0  0  0  0  0  0  0  0
    5.0667   -7.9598    5.7937 H   0  0  0  0  0  0  0  0  0  0  0  0
    4.6712  -10.0049    0.8113 H   0  0  0  0  0  0  0  0  0  0  0  0
  1  2  1  0
  1 28  1  0
  1 29  1  0
  1 30  1  0
  3  2  1  6
  3 25  1  0
  3 26  1  0
  3  4  1  0
  4  7  1  0
  4  5  1  0
  4 31  1  1
  5  6  1  0
  5 32  1  0
  5 33  1  0
  6 26  1  0
  6  7  1  0
  6 34  1  6
  7  8  1  0
  7 35  1  1
  8 23  1  0
  8 25  1  0
  8  9  1  6
  9 10  1  0
  9 36  1  0
  9 37  1  0
 10 11  1  0
 10 38  1  0
 10 39  1  0
 11 12  1  0
 11 15  1  0
 12 13  1  0
 12 40  1  0
 12 41  1  0
 13 14  1  0
 13 42  1  0
 13 43  1  0
 14 44  1  0
 15 16  1  0
 15 26  1  0
 15 45  1  6
 16 17  1  0
 16 46  1  0
 16 47  1  0
 17 23  2  0
 17 18  1  0
 18 19  2  0
 18 48  1  0
 19 20  1  0
 19 49  1  0
 20 21  1  0
 20 22  2  0
 21 50  1  0
 22 23  1  0
 22 24  1  0
 24 25  1  0
 25 51  1  1
 26 27  1  6
 27 52  1  0
M  END
>  <i_m_ct_stereo_status>  (195) 
1

>  <s_m_source_file>  (195) 
/var/tmp/pbs.5076255.sched01/tmpkddd28mm/459jwin2qj.sdf

>  <i_m_source_file_index>  (195) 
35

>  <i_lp_mmshare_version>  (195) 
48012

>  <i_f3d_flags>  (195) 
0

>  <s_epik_input>  (195) 
W0NAXTEyM1tDQEBIXTRbQ0BASF01W0NAXTYoT1tDSDNdKVtDQEBIXTNPYzdjMmMoW2NIXVtjSF1jN1tPSF0pW0NIMl1bQ0BIXShbQ0BdNihbT0hdKVtDQEhdNFtDSDJdNSlOKFtDSDJdW0NIMl0xKVtDSDJdW0NIMl1bT0hd

>  <s_epik_cmdline>  (195) 
J2VwaWtfcHl0aG9uJywgJy1waHQnLCAnMi4wJywgJy1waCcsICc3LjAnLCAnLXRuJywgJzgnLCAnLW1hJywgJzIwMCcsICctaW1hZScsICc8aW5maWxlLm1hZT4nLCAnLW9tYWUnLCAnPG91dGZpbGUubWFlPic=

>  <r_lp_tautomer_probability>  (195) 
1

>  <r_epik_Ionization_Penalty>  (195) 
1.03025

>  <r_epik_Ionization_Penalty_Charging>  (195) 
0

>  <r_epik_Ionization_Penalty_Neutral>  (195) 
1.03025

>  <r_epik_State_Penalty>  (195) 
1.07986

>  <r_epik_Charging_Adjusted_Penalty>  (195) 
1.07986

>  <i_epik_Tot_Q>  (195) 
0

>  <i_epik_Tot_abs_Q>  (195) 
0

>  <s_lp_Force_Field>  (195) 
OPLS3e

>  <r_lp_Energy>  (195) 
328.672

>  <b_lp_Chiralities_Consistent>  (195) 
1

>  <s_lp_Variant>  (195) 
60:0-2

>  <s_i_glide_gridfile>  (195) 
pfpi4k_grid

>  <i_i_glide_lignum>  (195) 
35

>  <i_i_glide_rotatable_bonds>  (195) 
6

>  <r_i_docking_score>  (195) 
-3.35995

>  <r_i_glide_ligand_efficiency>  (195) 
-0.124443

>  <r_i_glide_ligand_efficiency_sa>  (195) 
-0.373328

>  <r_i_glide_ligand_efficiency_ln>  (195) 
-0.782142

>  <r_i_glide_gscore>  (195) 
-3.35995

>  <r_i_glide_lipo>  (195) 
-0.022659

>  <r_i_glide_hbond>  (195) 
-0.295828

>  <r_i_glide_metal>  (195) 
-0

>  <r_i_glide_rewards>  (195) 
-0.876635

>  <r_i_glide_evdw>  (195) 
-15.944

>  <r_i_glide_ecoul>  (195) 
-10.9831

>  <r_i_glide_erotb>  (195) 
0.279839

>  <r_i_glide_esite>  (195) 
0

>  <r_i_glide_emodel>  (195) 
-28.0835

>  <r_i_glide_energy>  (195) 
-26.9272

>  <r_i_glide_einternal>  (195) 
9.61334

>  <r_i_glide_intrahb_reward>  (195) 
-0

>  <i_i_glide_confnum>  (195) 
3

>  <i_i_glide_posenum>  (195) 
27

>  <r_i_glide_eff_state_penalty>  (195) 
0

>  <ligand_id>  (195) 
60

>  <original_smiles>  (195) 
COC12C3CC4C3C35CCN(CCO)C(Cc6ccc(O)c(c63)OC51)C42O

>  <smiles>  (195) 
[H]Oc1c([H])c([H])c2c3c1OC1([H])C4(OC([H])([H])[H])C5([H])C([H])([H])C6([H])C5([H])C31C([H])([H])C([H])([H])N(C([H])([H])C([H])([H])O[H])C([H])(C2([H])[H])C64O[H]

$$$$
60:1:1
     RDKit          3D

 52 58  0  0  1  0  0  0  0  0999 V2000
    6.3905   -7.6267    5.2567 C   0  0  0  0  0  0  0  0  0  0  0  0
    5.9133   -7.0560    4.0434 O   0  0  0  0  0  0  0  0  0  0  0  0
    4.5989   -7.4250    3.6157 C   0  0  1  0  0  0  0  0  0  0  0  0
    4.3764   -8.8442    3.5059 C   0  0  2  0  0  0  0  0  0  0  0  0
    4.8124   -9.5606    2.2585 C   0  0  0  0  0  0  0  0  0  0  0  0
    3.9796   -8.4437    1.6506 C   0  0  1  0  0  0  0  0  0  0  0  0
    3.0944   -8.3793    2.8759 C   0  0  2  0  0  0  0  0  0  0  0  0
    2.6531   -6.8795    3.6035 C   0  0  1  0  0  0  0  0  0  0  0  0
    3.0393   -5.2987    3.5259 C   0  0  0  0  0  0  0  0  0  0  0  0
    2.6300   -4.4453    2.3542 C   0  0  0  0  0  0  0  0  0  0  0  0
    3.2948   -4.8638    1.1622 N   0  0  0  0  0  0  0  0  0  0  0  0
    2.8256   -4.0893    0.0036 C   0  0  0  0  0  0  0  0  0  0  0  0
    3.3845   -2.6524   -0.0332 C   0  0  0  0  0  0  0  0  0  0  0  0
    3.0065   -2.0127   -1.2390 O   0  0  0  0  0  0  0  0  0  0  0  0
    3.1586   -6.3150    1.0580 C   0  0  2  0  0  0  0  0  0  0  0  0
    1.5524   -6.7926    1.1288 C   0  0  0  0  0  0  0  0  0  0  0  0
    0.6921   -7.0695    2.4598 C   0  0  0  0  0  0  0  0  0  0  0  0
   -0.5973   -7.6407    2.4183 C   0  0  0  0  0  0  0  0  0  0  0  0
   -1.0486   -8.2117    3.6557 C   0  0  0  0  0  0  0  0  0  0  0  0
   -0.1907   -8.3534    4.8039 C   0  0  0  0  0  0  0  0  0  0  0  0
   -0.5848   -9.0731    5.8855 O   0  0  0  0  0  0  0  0  0  0  0  0
    1.0800   -7.7574    4.7550 C   0  0  0  0  0  0  0  0  0  0  0  0
    1.2972   -6.9255    3.7096 C   0  0  0  0  0  0  0  0  0  0  0  0
    2.3233   -8.0166    5.3705 O   0  0  0  0  0  0  0  0  0  0  0  0
    3.4132   -7.1593    4.7692 C   0  0  1  0  0  0  0  0  0  0  0  0
    4.4002   -7.0869    1.9000 C   0  0  1  0  0  0  0  0  0  0  0  0
    5.6308   -6.8694    1.2443 O   0  0  0  0  0  0  0  0  0  0  0  0
    7.3724   -7.2030    5.4669 H   0  0  0  0  0  0  0  0  0  0  0  0
    6.5176   -8.7080    5.1838 H   0  0  0  0  0  0  0  0  0  0  0  0
    5.7495   -7.4023    6.1100 H   0  0  0  0  0  0  0  0  0  0  0  0
    4.2879   -9.4512    4.4027 H   0  0  0  0  0  0  0  0  0  0  0  0
    5.8873   -9.4836    2.0787 H   0  0  0  0  0  0  0  0  0  0  0  0
    4.4393  -10.5785    2.1398 H   0  0  0  0  0  0  0  0  0  0  0  0
    3.5125   -8.7246    0.7089 H   0  0  0  0  0  0  0  0  0  0  0  0
    2.3821   -9.2111    2.9050 H   0  0  0  0  0  0  0  0  0  0  0  0
    2.5283   -4.8293    4.3679 H   0  0  0  0  0  0  0  0  0  0  0  0
    4.0938   -5.0760    3.7064 H   0  0  0  0  0  0  0  0  0  0  0  0
    1.5509   -4.4710    2.2326 H   0  0  0  0  0  0  0  0  0  0  0  0
    2.8914   -3.4124    2.5806 H   0  0  0  0  0  0  0  0  0  0  0  0
    3.1253   -4.6042   -0.9056 H   0  0  0  0  0  0  0  0  0  0  0  0
    1.7403   -4.0325   -0.0192 H   0  0  0  0  0  0  0  0  0  0  0  0
    2.9985   -2.0543    0.7934 H   0  0  0  0  0  0  0  0  0  0  0  0
    4.4716   -2.6550    0.0387 H   0  0  0  0  0  0  0  0  0  0  0  0
    2.1251   -1.6306   -1.1215 H   0  0  0  0  0  0  0  0  0  0  0  0
    3.4269   -6.5368    0.0224 H   0  0  0  0  0  0  0  0  0  0  0  0
    0.9740   -6.0903    0.5467 H   0  0  0  0  0  0  0  0  0  0  0  0
    1.4274   -7.7060    0.5534 H   0  0  0  0  0  0  0  0  0  0  0  0
   -1.1854   -7.6924    1.5093 H   0  0  0  0  0  0  0  0  0  0  0  0
   -2.0384   -8.6374    3.6850 H   0  0  0  0  0  0  0  0  0  0  0  0
   -1.2189   -9.7477    5.6781 H   0  0  0  0  0  0  0  0  0  0  0  0
    3.6281   -6.3411    5.4646 H   0  0  0  0  0  0  0  0  0  0  0  0
    6.2320   -7.5164    1.5780 H   0  0  0  0  0  0  0  0  0  0  0  0
  1  2  1  0
  1 28  1  0
  1 29  1  0
  1 30  1  0
  3  2  1  1
  3 25  1  0
  3 26  1  0
  3  4  1  0
  4  7  1  0
  4  5  1  0
  4 31  1  1
  5  6  1  0
  5 32  1  0
  5 33  1  0
  6 26  1  0
  6  7  1  0
  6 34  1  6
  7  8  1  0
  7 35  1  6
  8 23  1  0
  8 25  1  0
  8  9  1  6
  9 10  1  0
  9 36  1  0
  9 37  1  0
 10 11  1  0
 10 38  1  0
 10 39  1  0
 11 12  1  0
 11 15  1  0
 12 13  1  0
 12 40  1  0
 12 41  1  0
 13 14  1  0
 13 42  1  0
 13 43  1  0
 14 44  1  0
 15 16  1  0
 15 26  1  0
 15 45  1  6
 16 17  1  0
 16 46  1  0
 16 47  1  0
 17 23  2  0
 17 18  1  0
 18 19  2  0
 18 48  1  0
 19 20  1  0
 19 49  1  0
 20 21  1  0
 20 22  2  0
 21 50  1  0
 22 23  1  0
 22 24  1  0
 24 25  1  0
 25 51  1  1
 26 27  1  6
 27 52  1  0
M  END
>  <i_m_ct_stereo_status>  (196) 
1

>  <s_m_source_file>  (196) 
/var/tmp/pbs.5076255.sched01/tmpkddd28mm/459jwin2qj.sdf

>  <i_m_source_file_index>  (196) 
35

>  <i_lp_mmshare_version>  (196) 
48012

>  <i_f3d_flags>  (196) 
0

>  <s_epik_input>  (196) 
W0NAXTEyM1tDQEBIXTRbQ0BASF01W0NAXTYoT1tDSDNdKVtDQEBIXTNPYzdjMmMoW2NIXVtjSF1jN1tPSF0pW0NIMl1bQ0BIXShbQ0BdNihbT0hdKVtDQEhdNFtDSDJdNSlOKFtDSDJdW0NIMl0xKVtDSDJdW0NIMl1bT0hd

>  <s_epik_cmdline>  (196) 
J2VwaWtfcHl0aG9uJywgJy1waHQnLCAnMi4wJywgJy1waCcsICc3LjAnLCAnLXRuJywgJzgnLCAnLW1hJywgJzIwMCcsICctaW1hZScsICc8aW5maWxlLm1hZT4nLCAnLW9tYWUnLCAnPG91dGZpbGUubWFlPic=

>  <r_lp_tautomer_probability>  (196) 
1

>  <r_epik_Ionization_Penalty>  (196) 
1.03025

>  <r_epik_Ionization_Penalty_Charging>  (196) 
0

>  <r_epik_Ionization_Penalty_Neutral>  (196) 
1.03025

>  <r_epik_State_Penalty>  (196) 
1.07986

>  <r_epik_Charging_Adjusted_Penalty>  (196) 
1.07986

>  <i_epik_Tot_Q>  (196) 
0

>  <i_epik_Tot_abs_Q>  (196) 
0

>  <s_lp_Force_Field>  (196) 
OPLS3e

>  <r_lp_Energy>  (196) 
328.672

>  <b_lp_Chiralities_Consistent>  (196) 
1

>  <s_lp_Variant>  (196) 
60:0-2

>  <s_i_glide_gridfile>  (196) 
pfpi4k_grid

>  <i_i_glide_lignum>  (196) 
35

>  <i_i_glide_rotatable_bonds>  (196) 
6

>  <r_i_docking_score>  (196) 
-3.09242

>  <r_i_glide_ligand_efficiency>  (196) 
-0.114534

>  <r_i_glide_ligand_efficiency_sa>  (196) 
-0.343603

>  <r_i_glide_ligand_efficiency_ln>  (196) 
-0.719865

>  <r_i_glide_gscore>  (196) 
-3.09242

>  <r_i_glide_lipo>  (196) 
-0.0596791

>  <r_i_glide_hbond>  (196) 
-0.152

>  <r_i_glide_metal>  (196) 
-0

>  <r_i_glide_rewards>  (196) 
-0.876635

>  <r_i_glide_evdw>  (196) 
-16.0113

>  <r_i_glide_ecoul>  (196) 
-9.88924

>  <r_i_glide_erotb>  (196) 
0.279839

>  <r_i_glide_esite>  (196) 
0

>  <r_i_glide_emodel>  (196) 
-28.6043

>  <r_i_glide_energy>  (196) 
-25.9005

>  <r_i_glide_einternal>  (196) 
3.17881

>  <r_i_glide_intrahb_reward>  (196) 
-0

>  <i_i_glide_confnum>  (196) 
3

>  <i_i_glide_posenum>  (196) 
32

>  <r_i_glide_eff_state_penalty>  (196) 
0

>  <ligand_id>  (196) 
60

>  <original_smiles>  (196) 
COC12C3CC4C3C35CCN(CCO)C(Cc6ccc(O)c(c63)OC51)C42O

>  <smiles>  (196) 
[H]Oc1c([H])c([H])c2c3c1OC1([H])C4(OC([H])([H])[H])C5([H])C([H])([H])C6([H])C5([H])C31C([H])([H])C([H])([H])N(C([H])([H])C([H])([H])O[H])C([H])(C2([H])[H])C64O[H]

$$$$
60:1:2
     RDKit          3D

 52 58  0  0  1  0  0  0  0  0999 V2000
    0.2181   -2.7537    7.7485 C   0  0  0  0  0  0  0  0  0  0  0  0
    0.2239   -1.4229    7.2568 O   0  0  0  0  0  0  0  0  0  0  0  0
    1.1597   -1.1149    6.2138 C   0  0  1  0  0  0  0  0  0  0  0  0
    2.5403   -1.4433    6.4974 C   0  0  2  0  0  0  0  0  0  0  0  0
    3.3850   -0.4640    7.2602 C   0  0  0  0  0  0  0  0  0  0  0  0
    2.8509    0.4580    6.1785 C   0  0  1  0  0  0  0  0  0  0  0  0
    2.7686   -0.6974    5.2099 C   0  0  2  0  0  0  0  0  0  0  0  0
    1.3869   -0.9389    4.2238 C   0  0  1  0  0  0  0  0  0  0  0  0
   -0.1323   -0.3879    4.0448 C   0  0  0  0  0  0  0  0  0  0  0  0
   -0.4221    0.9749    3.4841 C   0  0  0  0  0  0  0  0  0  0  0  0
    0.0298    1.9958    4.3775 N   0  0  0  0  0  0  0  0  0  0  0  0
   -0.1428    3.3241    3.7684 C   0  0  0  0  0  0  0  0  0  0  0  0
   -1.6245    3.7203    3.5597 C   0  0  0  0  0  0  0  0  0  0  0  0
   -1.7087    4.9618    2.8957 O   0  0  0  0  0  0  0  0  0  0  0  0
    1.4016    1.6605    4.7602 C   0  0  2  0  0  0  0  0  0  0  0  0
    2.3902    1.4456    3.4167 C   0  0  0  0  0  0  0  0  0  0  0  0
    2.5650    0.0719    2.5932 C   0  0  0  0  0  0  0  0  0  0  0  0
    3.5243   -0.0483    1.5521 C   0  0  0  0  0  0  0  0  0  0  0  0
    3.8568   -1.4057    1.1886 C   0  0  0  0  0  0  0  0  0  0  0  0
    3.3665   -2.5454    1.9090 C   0  0  0  0  0  0  0  0  0  0  0  0
    3.8537   -3.8075    1.6699 O   0  0  0  0  0  0  0  0  0  0  0  0
    2.4093   -2.3174    2.9151 C   0  0  0  0  0  0  0  0  0  0  0  0
    1.8689   -1.0683    2.9588 C   0  0  0  0  0  0  0  0  0  0  0  0
    1.9957   -2.9769    4.0980 O   0  0  0  0  0  0  0  0  0  0  0  0
    1.0220   -2.1278    4.8843 C   0  0  1  0  0  0  0  0  0  0  0  0
    1.4195    0.6186    6.0916 C   0  0  1  0  0  0  0  0  0  0  0  0
    1.0095    1.2991    7.2535 O   0  0  0  0  0  0  0  0  0  0  0  0
   -0.5512   -2.8299    8.5127 H   0  0  0  0  0  0  0  0  0  0  0  0
    1.1612   -3.0289    8.2154 H   0  0  0  0  0  0  0  0  0  0  0  0
   -0.0203   -3.4770    6.9734 H   0  0  0  0  0  0  0  0  0  0  0  0
    2.8551   -2.4865    6.5099 H   0  0  0  0  0  0  0  0  0  0  0  0
    2.9964   -0.2687    8.2602 H   0  0  0  0  0  0  0  0  0  0  0  0
    4.4518   -0.6723    7.2444 H   0  0  0  0  0  0  0  0  0  0  0  0
    3.5284    1.2704    5.9176 H   0  0  0  0  0  0  0  0  0  0  0  0
    3.7435   -0.9871    4.8047 H   0  0  0  0  0  0  0  0  0  0  0  0
   -0.5991   -1.0451    3.3180 H   0  0  0  0  0  0  0  0  0  0  0  0
   -0.7651   -0.4780    4.9348 H   0  0  0  0  0  0  0  0  0  0  0  0
    0.0180    1.0952    2.4963 H   0  0  0  0  0  0  0  0  0  0  0  0
   -1.5036    1.0265    3.3735 H   0  0  0  0  0  0  0  0  0  0  0  0
    0.3102    4.0648    4.4250 H   0  0  0  0  0  0  0  0  0  0  0  0
    0.3858    3.3949    2.8176 H   0  0  0  0  0  0  0  0  0  0  0  0
   -2.1573    3.0152    2.9200 H   0  0  0  0  0  0  0  0  0  0  0  0
   -2.1507    3.7628    4.5118 H   0  0  0  0  0  0  0  0  0  0  0  0
   -1.1657    4.8888    2.1187 H   0  0  0  0  0  0  0  0  0  0  0  0
    1.8064    2.5904    5.1761 H   0  0  0  0  0  0  0  0  0  0  0  0
    2.1452    2.1968    2.6650 H   0  0  0  0  0  0  0  0  0  0  0  0
    3.4054    1.7208    3.7116 H   0  0  0  0  0  0  0  0  0  0  0  0
    4.0200    0.7978    1.1052 H   0  0  0  0  0  0  0  0  0  0  0  0
    4.5564   -1.5539    0.3855 H   0  0  0  0  0  0  0  0  0  0  0  0
    4.4472   -3.8394    0.9393 H   0  0  0  0  0  0  0  0  0  0  0  0
    0.0194   -2.5405    4.7307 H   0  0  0  0  0  0  0  0  0  0  0  0
    1.4462    2.1331    7.2589 H   0  0  0  0  0  0  0  0  0  0  0  0
  1  2  1  0
  1 28  1  0
  1 29  1  0
  1 30  1  0
  3  2  1  1
  3 25  1  0
  3 26  1  0
  3  4  1  0
  4  7  1  0
  4  5  1  0
  4 31  1  6
  5  6  1  0
  5 32  1  0
  5 33  1  0
  6 26  1  0
  6  7  1  0
  6 34  1  6
  7  8  1  0
  7 35  1  6
  8 23  1  0
  8 25  1  0
  8  9  1  6
  9 10  1  0
  9 36  1  0
  9 37  1  0
 10 11  1  0
 10 38  1  0
 10 39  1  0
 11 12  1  0
 11 15  1  0
 12 13  1  0
 12 40  1  0
 12 41  1  0
 13 14  1  0
 13 42  1  0
 13 43  1  0
 14 44  1  0
 15 16  1  0
 15 26  1  0
 15 45  1  1
 16 17  1  0
 16 46  1  0
 16 47  1  0
 17 23  2  0
 17 18  1  0
 18 19  2  0
 18 48  1  0
 19 20  1  0
 19 49  1  0
 20 21  1  0
 20 22  2  0
 21 50  1  0
 22 23  1  0
 22 24  1  0
 24 25  1  0
 25 51  1  6
 26 27  1  1
 27 52  1  0
M  END
>  <i_m_ct_stereo_status>  (197) 
1

>  <s_m_source_file>  (197) 
/var/tmp/pbs.5076255.sched01/tmpkddd28mm/459jwin2qj.sdf

>  <i_m_source_file_index>  (197) 
35

>  <i_lp_mmshare_version>  (197) 
48012

>  <i_f3d_flags>  (197) 
0

>  <s_epik_input>  (197) 
W0NAXTEyM1tDQEBIXTRbQ0BASF01W0NAXTYoT1tDSDNdKVtDQEBIXTNPYzdjMmMoW2NIXVtjSF1jN1tPSF0pW0NIMl1bQ0BIXShbQ0BdNihbT0hdKVtDQEhdNFtDSDJdNSlOKFtDSDJdW0NIMl0xKVtDSDJdW0NIMl1bT0hd

>  <s_epik_cmdline>  (197) 
J2VwaWtfcHl0aG9uJywgJy1waHQnLCAnMi4wJywgJy1waCcsICc3LjAnLCAnLXRuJywgJzgnLCAnLW1hJywgJzIwMCcsICctaW1hZScsICc8aW5maWxlLm1hZT4nLCAnLW9tYWUnLCAnPG91dGZpbGUubWFlPic=

>  <r_lp_tautomer_probability>  (197) 
1

>  <r_epik_Ionization_Penalty>  (197) 
1.03025

>  <r_epik_Ionization_Penalty_Charging>  (197) 
0

>  <r_epik_Ionization_Penalty_Neutral>  (197) 
1.03025

>  <r_epik_State_Penalty>  (197) 
1.07986

>  <r_epik_Charging_Adjusted_Penalty>  (197) 
1.07986

>  <i_epik_Tot_Q>  (197) 
0

>  <i_epik_Tot_abs_Q>  (197) 
0

>  <s_lp_Force_Field>  (197) 
OPLS3e

>  <r_lp_Energy>  (197) 
328.672

>  <b_lp_Chiralities_Consistent>  (197) 
1

>  <s_lp_Variant>  (197) 
60:0-2

>  <s_i_glide_gridfile>  (197) 
pfpi4k_grid

>  <i_i_glide_lignum>  (197) 
35

>  <i_i_glide_rotatable_bonds>  (197) 
6

>  <r_i_docking_score>  (197) 
-2.99964

>  <r_i_glide_ligand_efficiency>  (197) 
-0.111098

>  <r_i_glide_ligand_efficiency_sa>  (197) 
-0.333293

>  <r_i_glide_ligand_efficiency_ln>  (197) 
-0.698267

>  <r_i_glide_gscore>  (197) 
-2.99964

>  <r_i_glide_lipo>  (197) 
-0.0143224

>  <r_i_glide_hbond>  (197) 
-0.32

>  <r_i_glide_metal>  (197) 
-0

>  <r_i_glide_rewards>  (197) 
-0.876635

>  <r_i_glide_evdw>  (197) 
-15.7934

>  <r_i_glide_ecoul>  (197) 
-8.52568

>  <r_i_glide_erotb>  (197) 
0.279839

>  <r_i_glide_esite>  (197) 
0

>  <r_i_glide_emodel>  (197) 
-28.4948

>  <r_i_glide_energy>  (197) 
-24.3191

>  <r_i_glide_einternal>  (197) 
2.12084

>  <r_i_glide_intrahb_reward>  (197) 
-0

>  <i_i_glide_confnum>  (197) 
3

>  <i_i_glide_posenum>  (197) 
28

>  <r_i_glide_eff_state_penalty>  (197) 
0

>  <ligand_id>  (197) 
60

>  <original_smiles>  (197) 
COC12C3CC4C3C35CCN(CCO)C(Cc6ccc(O)c(c63)OC51)C42O

>  <smiles>  (197) 
[H]Oc1c([H])c([H])c2c3c1OC1([H])C4(OC([H])([H])[H])C5([H])C([H])([H])C6([H])C5([H])C31C([H])([H])C([H])([H])N(C([H])([H])C([H])([H])O[H])C([H])(C2([H])[H])C64O[H]

$$$$
62:1:0
     RDKit          3D

 46 52  0  0  1  0  0  0  0  0999 V2000
    2.1639   -4.6333    2.3945 O   0  0  0  0  0  0  0  0  0  0  0  0
    3.1845   -4.0055    1.7942 C   0  0  0  0  0  0  0  0  0  0  0  0
    3.9944   -4.8041    1.0248 C   0  0  0  0  0  0  0  0  0  0  0  0
    5.1949   -4.4961    0.2403 C   0  0  0  0  0  0  0  0  0  0  0  0
    6.3592   -4.1423    0.8207 C   0  0  0  0  0  0  0  0  0  0  0  0
    7.3702   -3.2782    0.0281 C   0  0  0  0  0  0  0  0  0  0  0  0
    6.5922   -2.2619   -0.9073 C   0  0  2  0  0  0  0  0  0  0  0  0
    5.5799   -1.0578   -0.6329 C   0  0  0  0  0  0  0  0  0  0  0  0
    4.1960   -1.6109   -0.1513 C   0  0  2  0  0  0  0  0  0  0  0  0
    3.4070   -2.3462   -1.2215 C   0  0  0  0  0  0  0  0  0  0  0  0
    4.2900   -3.3534   -1.9190 C   0  0  1  0  0  0  0  0  0  0  0  0
    5.8052   -3.2227   -1.8519 C   0  0  2  0  0  0  0  0  0  0  0  0
    5.0911   -4.2822   -1.1336 N   0  0  0  0  0  0  0  0  0  0  0  0
    3.5448   -1.3175    1.1727 C   0  0  0  0  0  0  0  0  0  0  0  0
    3.5028   -0.0782    1.6923 C   0  0  0  0  0  0  0  0  0  0  0  0
    2.8456    0.0207    3.0573 C   0  0  1  0  0  0  0  0  0  0  0  0
    1.4460   -0.5263    2.7267 C   0  0  0  0  0  0  0  0  0  0  0  0
    1.7527   -2.0213    2.9512 C   0  0  2  0  0  0  0  0  0  0  0  0
    2.1208   -1.8657    4.4303 C   0  0  1  0  0  0  0  0  0  0  0  0
    2.2807   -3.0745    5.1492 O   0  0  0  0  0  0  0  0  0  0  0  0
    3.3848   -1.0834    4.0745 C   0  0  1  0  0  0  0  0  0  0  0  0
    4.1471   -2.1860    3.3050 C   0  0  0  0  0  0  0  0  0  0  0  0
    3.1165   -2.4644    2.1815 C   0  0  1  0  0  0  0  0  0  0  0  0
    3.7257   -5.8497    0.9791 H   0  0  0  0  0  0  0  0  0  0  0  0
    6.4895   -4.1961    1.8904 H   0  0  0  0  0  0  0  0  0  0  0  0
    8.0851   -2.8071    0.7092 H   0  0  0  0  0  0  0  0  0  0  0  0
    7.9691   -3.9504   -0.5830 H   0  0  0  0  0  0  0  0  0  0  0  0
    6.4225   -2.0771    0.1366 H   0  0  0  0  0  0  0  0  0  0  0  0
    5.9595   -0.2640    0.0319 H   0  0  0  0  0  0  0  0  0  0  0  0
    5.4068   -0.5558   -1.5848 H   0  0  0  0  0  0  0  0  0  0  0  0
    4.5641   -2.3559    0.4748 H   0  0  0  0  0  0  0  0  0  0  0  0
    2.5177   -2.8428   -0.8250 H   0  0  0  0  0  0  0  0  0  0  0  0
    3.0682   -1.6220   -1.9641 H   0  0  0  0  0  0  0  0  0  0  0  0
    3.8511   -3.8997   -2.7483 H   0  0  0  0  0  0  0  0  0  0  0  0
    6.3684   -3.6479   -2.6811 H   0  0  0  0  0  0  0  0  0  0  0  0
    3.8261    0.8080    1.1685 H   0  0  0  0  0  0  0  0  0  0  0  0
    2.8360    1.0410    3.4422 H   0  0  0  0  0  0  0  0  0  0  0  0
    0.6856   -0.1332    3.4013 H   0  0  0  0  0  0  0  0  0  0  0  0
    1.0955   -0.2975    1.7151 H   0  0  0  0  0  0  0  0  0  0  0  0
    0.8622   -2.6228    2.7707 H   0  0  0  0  0  0  0  0  0  0  0  0
    1.4221   -1.2672    5.0129 H   0  0  0  0  0  0  0  0  0  0  0  0
    2.8708   -3.6297    4.6587 H   0  0  0  0  0  0  0  0  0  0  0  0
    3.9291   -0.6860    4.9317 H   0  0  0  0  0  0  0  0  0  0  0  0
    5.1201   -1.8459    2.9383 H   0  0  0  0  0  0  0  0  0  0  0  0
    4.3652   -3.0634    3.9152 H   0  0  0  0  0  0  0  0  0  0  0  0
    2.2392   -5.5508    2.1901 H   0  0  0  0  0  0  0  0  0  0  0  0
  1  2  1  0
  1 46  1  0
 23  2  1  6
  2  3  2  0
  3  4  1  0
  3 24  1  0
  4 13  1  0
  4  5  2  0
  5  6  1  0
  5 25  1  0
  6  7  1  0
  6 26  1  0
  6 27  1  0
  7 12  1  0
  7  8  1  0
  7 28  1  6
  8  9  1  0
  8 29  1  0
  8 30  1  0
  9 10  1  0
  9 14  1  0
  9 31  1  1
 10 11  1  0
 10 32  1  0
 10 33  1  0
 11 13  1  0
 11 12  1  0
 11 34  1  6
 12 13  1  0
 12 35  1  6
 14 23  1  0
 14 15  2  0
 15 16  1  0
 15 36  1  0
 16 21  1  0
 16 17  1  0
 16 37  1  1
 17 18  1  0
 17 38  1  0
 17 39  1  0
 18 23  1  0
 18 19  1  0
 18 40  1  1
 19 20  1  0
 19 21  1  0
 19 41  1  1
 20 42  1  0
 21 22  1  0
 21 43  1  1
 22 23  1  0
 22 44  1  0
 22 45  1  0
M  END
>  <i_m_ct_stereo_status>  (198) 
1

>  <s_m_source_file>  (198) 
/var/tmp/pbs.5076255.sched01/tmpkddd28mm/459jwin2qj.sdf

>  <i_m_source_file_index>  (198) 
38

>  <i_lp_mmshare_version>  (198) 
48012

>  <i_f3d_flags>  (198) 
0

>  <s_epik_input>  (198) 
Tz1DMS9bQ0hdPUMoL1tDSDJdW0NIMl0yKU4zW0NIXShbQ0gyXTQpW0NIXTNbQ0BASF0yW0NIMl1bQ0BIXTRDKFtDQF0xNTYpPVtDSF1bQ0BASF03W0NASF0oW0NIMl02KVtDQEhdKFtPSF0pW0NASF01W0NIMl03

>  <s_epik_cmdline>  (198) 
J2VwaWtfcHl0aG9uJywgJy1waHQnLCAnMi4wJywgJy1waCcsICc3LjAnLCAnLXRuJywgJzgnLCAnLW1hJywgJzIwMCcsICctaW1hZScsICc8aW5maWxlLm1hZT4nLCAnLW9tYWUnLCAnPG91dGZpbGUubWFlPic=

>  <r_epik_Ionization_Penalty>  (198) 
0.0519892

>  <r_epik_Ionization_Penalty_Charging>  (198) 
6.11367e-07

>  <r_epik_Ionization_Penalty_Neutral>  (198) 
0.0519886

>  <r_epik_State_Penalty>  (198) 
0.0451716

>  <r_epik_Charging_Adjusted_Penalty>  (198) 
0.0451722

>  <i_epik_Tot_Q>  (198) 
0

>  <i_epik_Tot_abs_Q>  (198) 
0

>  <s_epik_Chemistry_Notes>  (198) 
This compound has an imine and may undergo hydrolysis.

>  <s_lp_Force_Field>  (198) 
OPLS3e

>  <r_lp_Energy>  (198) 
222.938

>  <b_lp_Chiralities_Consistent>  (198) 
1

>  <s_lp_Variant>  (198) 
62:0-2

>  <s_i_glide_gridfile>  (198) 
pfpi4k_grid

>  <i_i_glide_lignum>  (198) 
38

>  <i_i_glide_rotatable_bonds>  (198) 
2

>  <r_i_docking_score>  (198) 
-3.09384

>  <r_i_glide_ligand_efficiency>  (198) 
-0.134515

>  <r_i_glide_ligand_efficiency_sa>  (198) 
-0.382542

>  <r_i_glide_ligand_efficiency_ln>  (198) 
-0.748119

>  <r_i_glide_gscore>  (198) 
-3.09384

>  <r_i_glide_lipo>  (198) 
-0.504296

>  <r_i_glide_hbond>  (198) 
0

>  <r_i_glide_metal>  (198) 
-0

>  <r_i_glide_rewards>  (198) 
-1.29953

>  <r_i_glide_evdw>  (198) 
-24.9026

>  <r_i_glide_ecoul>  (198) 
-0.247964

>  <r_i_glide_erotb>  (198) 
0

>  <r_i_glide_esite>  (198) 
-0.0076917

>  <r_i_glide_emodel>  (198) 
-29.9218

>  <r_i_glide_energy>  (198) 
-25.1505

>  <r_i_glide_einternal>  (198) 
0.0777788

>  <r_i_glide_intrahb_reward>  (198) 
-0

>  <i_i_glide_confnum>  (198) 
2

>  <i_i_glide_posenum>  (198) 
39

>  <r_i_glide_eff_state_penalty>  (198) 
0

>  <ligand_id>  (198) 
62

>  <original_smiles>  (198) 
O=C1C=C2CCC3CC(CC4C3N24)C2=CC3CC4C(O)C3CC124

>  <smiles>  (198) 
[H]OC1=C([H])C2=C([H])C([H])([H])C3([H])C([H])([H])C([H])(C4=C([H])C5([H])C([H])([H])C6([H])C([H])(O[H])C5([H])C([H])([H])C146)C([H])([H])C1([H])N2C13[H]

$$$$
62:2:0
     RDKit          3D

 46 52  0  0  1  0  0  0  0  0999 V2000
    5.3260   -3.6912    3.8982 O   0  0  0  0  0  0  0  0  0  0  0  0
    4.9219   -3.3963    2.6563 C   0  0  0  0  0  0  0  0  0  0  0  0
    4.9947   -4.3399    1.7011 C   0  0  0  0  0  0  0  0  0  0  0  0
    4.6629   -4.1179    0.3150 C   0  0  0  0  0  0  0  0  0  0  0  0
    3.4749   -3.6313   -0.0765 C   0  0  0  0  0  0  0  0  0  0  0  0
    3.3005   -3.0422   -1.4570 C   0  0  0  0  0  0  0  0  0  0  0  0
    4.6385   -2.4412   -1.9527 C   0  0  1  0  0  0  0  0  0  0  0  0
    4.9968   -1.0859   -1.2898 C   0  0  0  0  0  0  0  0  0  0  0  0
    5.5858   -1.1618    0.1540 C   0  0  2  0  0  0  0  0  0  0  0  0
    6.8212   -2.0946    0.2679 C   0  0  0  0  0  0  0  0  0  0  0  0
    6.8129   -3.2906   -0.6781 C   0  0  2  0  0  0  0  0  0  0  0  0
    5.8029   -3.4070   -1.8104 C   0  0  1  0  0  0  0  0  0  0  0  0
    5.6954   -4.2073   -0.5964 N   0  0  0  0  0  0  0  0  0  0  0  0
    4.5371   -1.0683    1.2916 C   0  0  0  0  0  0  0  0  0  0  0  0
    3.8195    0.0738    1.3808 C   0  0  0  0  0  0  0  0  0  0  0  0
    2.8905    0.2075    2.5698 C   0  0  1  0  0  0  0  0  0  0  0  0
    1.9726   -1.0004    2.3324 C   0  0  0  0  0  0  0  0  0  0  0  0
    2.8337   -2.0358    3.0731 C   0  0  2  0  0  0  0  0  0  0  0  0
    2.7666   -1.3443    4.4391 C   0  0  1  0  0  0  0  0  0  0  0  0
    3.2728   -2.0987    5.5239 O   0  0  0  0  0  0  0  0  0  0  0  0
    3.6194   -0.1821    3.9337 C   0  0  1  0  0  0  0  0  0  0  0  0
    4.9295   -0.9488    3.6368 C   0  0  0  0  0  0  0  0  0  0  0  0
    4.3699   -1.9566    2.5866 C   0  0  1  0  0  0  0  0  0  0  0  0
    5.3847   -5.3159    1.9570 H   0  0  0  0  0  0  0  0  0  0  0  0
    2.6605   -3.5058    0.6204 H   0  0  0  0  0  0  0  0  0  0  0  0
    2.9471   -3.8235   -2.1251 H   0  0  0  0  0  0  0  0  0  0  0  0
    2.5463   -2.2614   -1.4194 H   0  0  0  0  0  0  0  0  0  0  0  0
    4.5128   -2.2421   -3.0163 H   0  0  0  0  0  0  0  0  0  0  0  0
    5.7575   -0.6213   -1.9187 H   0  0  0  0  0  0  0  0  0  0  0  0
    4.1417   -0.4075   -1.3350 H   0  0  0  0  0  0  0  0  0  0  0  0
    6.0526   -0.1825    0.2722 H   0  0  0  0  0  0  0  0  0  0  0  0
    7.6812   -1.4990   -0.0393 H   0  0  0  0  0  0  0  0  0  0  0  0
    7.0393   -2.4020    1.2931 H   0  0  0  0  0  0  0  0  0  0  0  0
    7.7161   -3.8867   -0.7254 H   0  0  0  0  0  0  0  0  0  0  0  0
    6.0306   -4.0453   -2.6631 H   0  0  0  0  0  0  0  0  0  0  0  0
    3.8662    0.8678    0.6542 H   0  0  0  0  0  0  0  0  0  0  0  0
    2.3595    1.1609    2.5806 H   0  0  0  0  0  0  0  0  0  0  0  0
    0.9817   -0.8639    2.7736 H   0  0  0  0  0  0  0  0  0  0  0  0
    1.8111   -1.2443    1.2796 H   0  0  0  0  0  0  0  0  0  0  0  0
    2.3891   -3.0323    3.0595 H   0  0  0  0  0  0  0  0  0  0  0  0
    1.7667   -1.0180    4.7368 H   0  0  0  0  0  0  0  0  0  0  0  0
    4.1186   -2.4421    5.2658 H   0  0  0  0  0  0  0  0  0  0  0  0
    3.7342    0.6401    4.6402 H   0  0  0  0  0  0  0  0  0  0  0  0
    5.7100   -0.2959    3.2446 H   0  0  0  0  0  0  0  0  0  0  0  0
    5.3660   -1.3751    4.5383 H   0  0  0  0  0  0  0  0  0  0  0  0
    5.6378   -4.5811    3.8832 H   0  0  0  0  0  0  0  0  0  0  0  0
  1  2  1  0
  1 46  1  0
 23  2  1  6
  2  3  2  0
  3  4  1  0
  3 24  1  0
  4 13  1  0
  4  5  2  0
  5  6  1  0
  5 25  1  0
  6  7  1  0
  6 26  1  0
  6 27  1  0
  7 12  1  0
  7  8  1  0
  7 28  1  6
  8  9  1  0
  8 29  1  0
  8 30  1  0
  9 10  1  0
  9 14  1  0
  9 31  1  1
 10 11  1  0
 10 32  1  0
 10 33  1  0
 11 13  1  0
 11 12  1  0
 11 34  1  6
 12 13  1  0
 12 35  1  6
 14 23  1  0
 14 15  2  0
 15 16  1  0
 15 36  1  0
 16 21  1  0
 16 17  1  0
 16 37  1  1
 17 18  1  0
 17 38  1  0
 17 39  1  0
 18 23  1  0
 18 19  1  0
 18 40  1  1
 19 20  1  0
 19 21  1  0
 19 41  1  1
 20 42  1  0
 21 22  1  0
 21 43  1  1
 22 23  1  0
 22 44  1  0
 22 45  1  0
M  END
>  <i_m_ct_stereo_status>  (199) 
1

>  <s_m_source_file>  (199) 
/var/tmp/pbs.5076255.sched01/tmpkddd28mm/459jwin2qj.sdf

>  <i_m_source_file_index>  (199) 
39

>  <i_lp_mmshare_version>  (199) 
48012

>  <i_f3d_flags>  (199) 
0

>  <s_epik_input>  (199) 
Tz1DMS9bQ0hdPUMoL1tDSDJdW0NIMl0yKU4zW0NIXShbQ0gyXTQpW0NIXTNbQ0BASF0yW0NIMl1bQ0BIXTRDKFtDQF0xNTYpPVtDSF1bQ0BASF03W0NASF0oW0NIMl02KVtDQEhdKFtPSF0pW0NASF01W0NIMl03

>  <s_epik_cmdline>  (199) 
J2VwaWtfcHl0aG9uJywgJy1waHQnLCAnMi4wJywgJy1waCcsICc3LjAnLCAnLXRuJywgJzgnLCAnLW1hJywgJzIwMCcsICctaW1hZScsICc8aW5maWxlLm1hZT4nLCAnLW9tYWUnLCAnPG91dGZpbGUubWFlPic=

>  <r_epik_Ionization_Penalty>  (199) 
0.0519892

>  <r_epik_Ionization_Penalty_Charging>  (199) 
6.11367e-07

>  <r_epik_Ionization_Penalty_Neutral>  (199) 
0.0519886

>  <r_epik_State_Penalty>  (199) 
0.0451716

>  <r_epik_Charging_Adjusted_Penalty>  (199) 
0.0451722

>  <i_epik_Tot_Q>  (199) 
0

>  <i_epik_Tot_abs_Q>  (199) 
0

>  <s_epik_Chemistry_Notes>  (199) 
This compound has an imine and may undergo hydrolysis.

>  <s_lp_Force_Field>  (199) 
OPLS3e

>  <r_lp_Energy>  (199) 
122.716

>  <b_lp_Chiralities_Consistent>  (199) 
1

>  <s_lp_Variant>  (199) 
62:0-3

>  <s_i_glide_gridfile>  (199) 
pfpi4k_grid

>  <i_i_glide_lignum>  (199) 
39

>  <i_i_glide_rotatable_bonds>  (199) 
2

>  <r_i_docking_score>  (199) 
-3.8272

>  <r_i_glide_ligand_efficiency>  (199) 
-0.1664

>  <r_i_glide_ligand_efficiency_sa>  (199) 
-0.47322

>  <r_i_glide_ligand_efficiency_ln>  (199) 
-0.925452

>  <r_i_glide_gscore>  (199) 
-3.8272

>  <r_i_glide_lipo>  (199) 
-0.686305

>  <r_i_glide_hbond>  (199) 
0

>  <r_i_glide_metal>  (199) 
-0

>  <r_i_glide_rewards>  (199) 
-1.85284

>  <r_i_glide_evdw>  (199) 
-24.8884

>  <r_i_glide_ecoul>  (199) 
-0.290925

>  <r_i_glide_erotb>  (199) 
0

>  <r_i_glide_esite>  (199) 
0

>  <r_i_glide_emodel>  (199) 
-35.9072

>  <r_i_glide_energy>  (199) 
-25.1793

>  <r_i_glide_einternal>  (199) 
0.000931342

>  <r_i_glide_intrahb_reward>  (199) 
-0.5

>  <i_i_glide_confnum>  (199) 
1

>  <i_i_glide_posenum>  (199) 
36

>  <r_i_glide_eff_state_penalty>  (199) 
0

>  <ligand_id>  (199) 
62

>  <original_smiles>  (199) 
O=C1C=C2CCC3CC(CC4C3N24)C2=CC3CC4C(O)C3CC124

>  <smiles>  (199) 
[H]OC1=C([H])C2=C([H])C([H])([H])C3([H])C([H])([H])C([H])(C4=C([H])C5([H])C([H])([H])C6([H])C([H])(O[H])C5([H])C([H])([H])C146)C([H])([H])C1([H])N2C13[H]

$$$$
62:2:1
     RDKit          3D

 46 52  0  0  1  0  0  0  0  0999 V2000
    4.2310   -0.2946   -0.0162 O   0  0  0  0  0  0  0  0  0  0  0  0
    3.8862   -1.5973   -0.0132 C   0  0  0  0  0  0  0  0  0  0  0  0
    3.2770   -2.0925    1.0687 C   0  0  0  0  0  0  0  0  0  0  0  0
    3.0527   -3.4835    1.2956 C   0  0  0  0  0  0  0  0  0  0  0  0
    2.3919   -4.2779    0.4302 C   0  0  0  0  0  0  0  0  0  0  0  0
    2.4966   -5.7704    0.5134 C   0  0  0  0  0  0  0  0  0  0  0  0
    3.8969   -6.1653    1.0377 C   0  0  1  0  0  0  0  0  0  0  0  0
    5.0113   -5.9652   -0.0038 C   0  0  0  0  0  0  0  0  0  0  0  0
    5.5303   -4.5111   -0.2192 C   0  0  2  0  0  0  0  0  0  0  0  0
    5.9816   -3.8231    1.0874 C   0  0  0  0  0  0  0  0  0  0  0  0
    5.2020   -4.2427    2.3354 C   0  0  2  0  0  0  0  0  0  0  0  0
    4.2732   -5.4374    2.3247 C   0  0  1  0  0  0  0  0  0  0  0  0
    3.7689   -4.0747    2.3292 N   0  0  0  0  0  0  0  0  0  0  0  0
    4.8460   -3.7216   -1.3539 C   0  0  0  0  0  0  0  0  0  0  0  0
    4.9666   -4.1882   -2.6179 C   0  0  0  0  0  0  0  0  0  0  0  0
    4.3366   -3.3921   -3.7382 C   0  0  1  0  0  0  0  0  0  0  0  0
    2.8642   -3.3633   -3.3098 C   0  0  0  0  0  0  0  0  0  0  0  0
    3.0125   -2.1542   -2.3781 C   0  0  2  0  0  0  0  0  0  0  0  0
    3.3873   -1.2012   -3.4876 C   0  0  1  0  0  0  0  0  0  0  0  0
    3.5086    0.1388   -3.1506 O   0  0  0  0  0  0  0  0  0  0  0  0
    4.7029   -1.8647   -3.5828 C   0  0  1  0  0  0  0  0  0  0  0  0
    5.3269   -1.5801   -2.1888 C   0  0  0  0  0  0  0  0  0  0  0  0
    4.2459   -2.2753   -1.3430 C   0  0  1  0  0  0  0  0  0  0  0  0
    3.0555   -1.4117    1.8726 H   0  0  0  0  0  0  0  0  0  0  0  0
    1.8828   -3.8503   -0.4209 H   0  0  0  0  0  0  0  0  0  0  0  0
    1.7071   -6.1596    1.1549 H   0  0  0  0  0  0  0  0  0  0  0  0
    2.3256   -6.1751   -0.4771 H   0  0  0  0  0  0  0  0  0  0  0  0
    3.8607   -7.2289    1.2605 H   0  0  0  0  0  0  0  0  0  0  0  0
    5.8636   -6.5494    0.3493 H   0  0  0  0  0  0  0  0  0  0  0  0
    4.7178   -6.4253   -0.9476 H   0  0  0  0  0  0  0  0  0  0  0  0
    6.4969   -4.6570   -0.7012 H   0  0  0  0  0  0  0  0  0  0  0  0
    6.9983   -4.1724    1.2716 H   0  0  0  0  0  0  0  0  0  0  0  0
    6.0660   -2.7399    0.9992 H   0  0  0  0  0  0  0  0  0  0  0  0
    5.5790   -3.8809    3.2896 H   0  0  0  0  0  0  0  0  0  0  0  0
    4.0348   -5.9259    3.2691 H   0  0  0  0  0  0  0  0  0  0  0  0
    5.4044   -5.1198   -2.8767 H   0  0  0  0  0  0  0  0  0  0  0  0
    4.5064   -3.8343   -4.7214 H   0  0  0  0  0  0  0  0  0  0  0  0
    2.1812   -3.2075   -4.1545 H   0  0  0  0  0  0  0  0  0  0  0  0
    2.4780   -4.2360   -2.7841 H   0  0  0  0  0  0  0  0  0  0  0  0
    2.0852   -1.9245   -1.9261 H   0  0  0  0  0  0  0  0  0  0  0  0
    2.8168   -1.2618   -4.4167 H   0  0  0  0  0  0  0  0  0  0  0  0
    2.6401    0.4909   -3.0390 H   0  0  0  0  0  0  0  0  0  0  0  0
    5.2302   -1.3905   -4.3902 H   0  0  0  0  0  0  0  0  0  0  0  0
    6.3238   -2.0105   -2.0840 H   0  0  0  0  0  0  0  0  0  0  0  0
    5.4756   -0.5173   -2.0290 H   0  0  0  0  0  0  0  0  0  0  0  0
    4.3740   -0.0831   -0.9208 H   0  0  0  0  0  0  0  0  0  0  0  0
  1  2  1  0
  1 46  1  0
 23  2  1  1
  2  3  2  0
  3  4  1  0
  3 24  1  0
  4 13  1  0
  4  5  2  0
  5  6  1  0
  5 25  1  0
  6  7  1  0
  6 26  1  0
  6 27  1  0
  7 12  1  0
  7  8  1  0
  7 28  1  1
  8  9  1  0
  8 29  1  0
  8 30  1  0
  9 10  1  0
  9 14  1  0
  9 31  1  6
 10 11  1  0
 10 32  1  0
 10 33  1  0
 11 13  1  0
 11 12  1  0
 11 34  1  1
 12 13  1  0
 12 35  1  1
 14 23  1  0
 14 15  2  0
 15 16  1  0
 15 36  1  0
 16 21  1  0
 16 17  1  0
 16 37  1  6
 17 18  1  0
 17 38  1  0
 17 39  1  0
 18 23  1  0
 18 19  1  0
 18 40  1  1
 19 20  1  0
 19 21  1  0
 19 41  1  6
 20 42  1  0
 21 22  1  0
 21 43  1  6
 22 23  1  0
 22 44  1  0
 22 45  1  0
M  END
>  <i_m_ct_stereo_status>  (200) 
1

>  <s_m_source_file>  (200) 
/var/tmp/pbs.5076255.sched01/tmpkddd28mm/459jwin2qj.sdf

>  <i_m_source_file_index>  (200) 
39

>  <i_lp_mmshare_version>  (200) 
48012

>  <i_f3d_flags>  (200) 
0

>  <s_epik_input>  (200) 
Tz1DMS9bQ0hdPUMoL1tDSDJdW0NIMl0yKU4zW0NIXShbQ0gyXTQpW0NIXTNbQ0BASF0yW0NIMl1bQ0BIXTRDKFtDQF0xNTYpPVtDSF1bQ0BASF03W0NASF0oW0NIMl02KVtDQEhdKFtPSF0pW0NASF01W0NIMl03

>  <s_epik_cmdline>  (200) 
J2VwaWtfcHl0aG9uJywgJy1waHQnLCAnMi4wJywgJy1waCcsICc3LjAnLCAnLXRuJywgJzgnLCAnLW1hJywgJzIwMCcsICctaW1hZScsICc8aW5maWxlLm1hZT4nLCAnLW9tYWUnLCAnPG91dGZpbGUubWFlPic=

>  <r_epik_Ionization_Penalty>  (200) 
0.0519892

>  <r_epik_Ionization_Penalty_Charging>  (200) 
6.11367e-07

>  <r_epik_Ionization_Penalty_Neutral>  (200) 
0.0519886

>  <r_epik_State_Penalty>  (200) 
0.0451716

>  <r_epik_Charging_Adjusted_Penalty>  (200) 
0.0451722

>  <i_epik_Tot_Q>  (200) 
0

>  <i_epik_Tot_abs_Q>  (200) 
0

>  <s_epik_Chemistry_Notes>  (200) 
This compound has an imine and may undergo hydrolysis.

>  <s_lp_Force_Field>  (200) 
OPLS3e

>  <r_lp_Energy>  (200) 
122.716

>  <b_lp_Chiralities_Consistent>  (200) 
1

>  <s_lp_Variant>  (200) 
62:0-3

>  <s_i_glide_gridfile>  (200) 
pfpi4k_grid

>  <i_i_glide_lignum>  (200) 
39

>  <i_i_glide_rotatable_bonds>  (200) 
2

>  <r_i_docking_score>  (200) 
-3.22438

>  <r_i_glide_ligand_efficiency>  (200) 
-0.14019

>  <r_i_glide_ligand_efficiency_sa>  (200) 
-0.398682

>  <r_i_glide_ligand_efficiency_ln>  (200) 
-0.779683

>  <r_i_glide_gscore>  (200) 
-3.22438

>  <r_i_glide_lipo>  (200) 
-0.852646

>  <r_i_glide_hbond>  (200) 
0

>  <r_i_glide_metal>  (200) 
-0

>  <r_i_glide_rewards>  (200) 
-1.80087

>  <r_i_glide_evdw>  (200) 
-4.53508

>  <r_i_glide_ecoul>  (200) 
-2.29402

>  <r_i_glide_erotb>  (200) 
0

>  <r_i_glide_esite>  (200) 
0

>  <r_i_glide_emodel>  (200) 
-14.925

>  <r_i_glide_energy>  (200) 
-6.82909

>  <r_i_glide_einternal>  (200) 
2.32238

>  <r_i_glide_intrahb_reward>  (200) 
-0.5

>  <i_i_glide_confnum>  (200) 
1

>  <i_i_glide_posenum>  (200) 
6

>  <r_i_glide_eff_state_penalty>  (200) 
0

>  <ligand_id>  (200) 
62

>  <original_smiles>  (200) 
O=C1C=C2CCC3CC(CC4C3N24)C2=CC3CC4C(O)C3CC124

>  <smiles>  (200) 
[H]OC1=C([H])C2=C([H])C([H])([H])C3([H])C([H])([H])C([H])(C4=C([H])C5([H])C([H])([H])C6([H])C([H])(O[H])C5([H])C([H])([H])C146)C([H])([H])C1([H])N2C13[H]

$$$$
62:5:0
     RDKit          3D

 45 51  0  0  1  0  0  0  0  0999 V2000
   -0.2073   -6.6619    2.4956 O   0  0  0  0  0  0  0  0  0  0  0  0
    0.8500   -6.5572    3.1674 C   0  0  0  0  0  0  0  0  0  0  0  0
    1.1277   -5.3471    3.8470 C   0  0  0  0  0  0  0  0  0  0  0  0
    2.4685   -4.8773    4.1849 C   0  0  0  0  0  0  0  0  0  0  0  0
    3.2316   -5.4220    5.1963 C   0  0  0  0  0  0  0  0  0  0  0  0
    4.7295   -5.8546    4.8903 C   0  0  0  0  0  0  0  0  0  0  0  0
    5.1453   -5.8389    3.3364 C   0  0  1  0  0  0  0  0  0  0  0  0
    5.2280   -7.1443    2.3800 C   0  0  0  0  0  0  0  0  0  0  0  0
    3.8960   -7.5552    1.4934 C   0  0  2  0  0  0  0  0  0  0  0  0
    3.1789   -6.2411    0.8825 C   0  0  0  0  0  0  0  0  0  0  0  0
    3.4681   -4.8703    1.6046 C   0  0  2  0  0  0  0  0  0  0  0  0
    3.9140   -5.4747    2.7768 C   0  0  2  0  0  0  0  0  0  0  0  0
    3.1475   -4.3772    3.0556 N   0  0  0  0  0  0  0  0  0  0  0  0
    2.9340   -8.4228    2.3740 C   0  0  0  0  0  0  0  0  0  0  0  0
    3.3171   -9.7010    2.5983 C   0  0  0  0  0  0  0  0  0  0  0  0
    2.6519  -10.4077    3.7652 C   0  0  1  0  0  0  0  0  0  0  0  0
    3.0001   -9.4385    4.9109 C   0  0  0  0  0  0  0  0  0  0  0  0
    1.7923   -8.4824    4.7609 C   0  0  2  0  0  0  0  0  0  0  0  0
    0.7355   -9.5643    5.0335 C   0  0  1  0  0  0  0  0  0  0  0  0
   -0.5826   -9.0512    5.2029 O   0  0  0  0  0  0  0  0  0  0  0  0
    1.0732  -10.2920    3.7264 C   0  0  1  0  0  0  0  0  0  0  0  0
    0.6894   -9.1890    2.7403 C   0  0  0  0  0  0  0  0  0  0  0  0
    1.6207   -8.0002    3.2269 C   0  0  1  0  0  0  0  0  0  0  0  0
    0.4012   -4.5506    3.7741 H   0  0  0  0  0  0  0  0  0  0  0  0
    2.7764   -5.8988    6.0467 H   0  0  0  0  0  0  0  0  0  0  0  0
    5.3960   -5.2015    5.4456 H   0  0  0  0  0  0  0  0  0  0  0  0
    4.8732   -6.8546    5.3016 H   0  0  0  0  0  0  0  0  0  0  0  0
    5.8914   -5.0780    3.0994 H   0  0  0  0  0  0  0  0  0  0  0  0
    5.9945   -6.9078    1.6345 H   0  0  0  0  0  0  0  0  0  0  0  0
    5.6243   -8.0028    2.9264 H   0  0  0  0  0  0  0  0  0  0  0  0
    4.2241   -8.1885    0.6670 H   0  0  0  0  0  0  0  0  0  0  0  0
    3.5964   -6.1296   -0.1171 H   0  0  0  0  0  0  0  0  0  0  0  0
    2.1081   -6.3900    0.7197 H   0  0  0  0  0  0  0  0  0  0  0  0
    4.1435   -4.1699    1.1256 H   0  0  0  0  0  0  0  0  0  0  0  0
    3.3102   -6.3007    3.0857 H   0  0  0  0  0  0  0  0  0  0  0  0
    4.1996  -10.1409    2.1622 H   0  0  0  0  0  0  0  0  0  0  0  0
    3.0294  -11.4164    3.9169 H   0  0  0  0  0  0  0  0  0  0  0  0
    3.0320   -9.9391    5.8772 H   0  0  0  0  0  0  0  0  0  0  0  0
    3.9635   -8.9409    4.7947 H   0  0  0  0  0  0  0  0  0  0  0  0
    1.7785   -7.6878    5.4950 H   0  0  0  0  0  0  0  0  0  0  0  0
    0.9385  -10.1878    5.9114 H   0  0  0  0  0  0  0  0  0  0  0  0
   -1.1920   -9.7996    5.2453 H   0  0  0  0  0  0  0  0  0  0  0  0
    0.5478  -11.2381    3.5807 H   0  0  0  0  0  0  0  0  0  0  0  0
    0.8669   -9.4827    1.7078 H   0  0  0  0  0  0  0  0  0  0  0  0
   -0.3851   -9.0286    2.7961 H   0  0  0  0  0  0  0  0  0  0  0  0
  1  2  1  0
 23  2  1  1
  2  3  2  0
  3  4  1  0
  3 24  1  0
  4 13  1  0
  4  5  2  0
  5  6  1  0
  5 25  1  0
  6  7  1  0
  6 26  1  0
  6 27  1  0
  7 12  1  0
  7  8  1  0
  7 28  1  1
  8  9  1  0
  8 29  1  0
  8 30  1  0
  9 10  1  0
  9 14  1  0
  9 31  1  6
 10 11  1  0
 10 32  1  0
 10 33  1  0
 11 13  1  0
 11 12  1  0
 11 34  1  6
 12 13  1  0
 12 35  1  1
 14 23  1  0
 14 15  2  0
 15 16  1  0
 15 36  1  0
 16 21  1  0
 16 17  1  0
 16 37  1  1
 17 18  1  0
 17 38  1  0
 17 39  1  0
 18 23  1  0
 18 19  1  0
 18 40  1  1
 19 20  1  0
 19 21  1  0
 19 41  1  1
 20 42  1  0
 21 22  1  0
 21 43  1  6
 22 23  1  0
 22 44  1  0
 22 45  1  0
M  CHG  1   1  -1
M  END
>  <i_m_ct_stereo_status>  (201) 
1

>  <s_m_source_file>  (201) 
/var/tmp/pbs.5076255.sched01/tmpkddd28mm/459jwin2qj.sdf

>  <i_m_source_file_index>  (201) 
42

>  <i_lp_mmshare_version>  (201) 
48012

>  <i_f3d_flags>  (201) 
0

>  <s_epik_input>  (201) 
Tz1DMS9bQ0hdPUMoL1tDSDJdW0NIMl0yKU4zW0NIXShbQ0gyXTQpW0NIXTNbQ0BASF0yW0NIMl1bQ0BIXTRDKFtDQF0xNTYpPVtDSF1bQ0BASF03W0NASF0oW0NIMl02KVtDQEhdKFtPSF0pW0NASF01W0NIMl03

>  <s_epik_cmdline>  (201) 
J2VwaWtfcHl0aG9uJywgJy1waHQnLCAnMi4wJywgJy1waCcsICc3LjAnLCAnLXRuJywgJzgnLCAnLW1hJywgJzIwMCcsICctaW1hZScsICc8aW5maWxlLm1hZT4nLCAnLW9tYWUnLCAnPG91dGZpbGUubWFlPic=

>  <r_epik_Ionization_Penalty>  (201) 
1.83585

>  <r_epik_Ionization_Penalty_Charging>  (201) 
1.47737

>  <r_epik_Ionization_Penalty_Neutral>  (201) 
0.358476

>  <r_epik_State_Penalty>  (201) 
2.28335

>  <r_epik_Charging_Adjusted_Penalty>  (201) 
3.76072

>  <i_epik_Tot_Q>  (201) 
-1

>  <i_epik_Tot_abs_Q>  (201) 
1

>  <s_epik_Chemistry_Notes>  (201) 
This compound has an imine and may undergo hydrolysis.

>  <s_lp_Force_Field>  (201) 
OPLS3e

>  <r_lp_Energy>  (201) 
292.288

>  <b_lp_Chiralities_Consistent>  (201) 
1

>  <s_lp_Variant>  (201) 
62:0-6

>  <s_i_glide_gridfile>  (201) 
pfpi4k_grid

>  <i_i_glide_lignum>  (201) 
42

>  <i_i_glide_rotatable_bonds>  (201) 
1

>  <r_i_docking_score>  (201) 
-3.42346

>  <r_i_glide_ligand_efficiency>  (201) 
-0.148846

>  <r_i_glide_ligand_efficiency_sa>  (201) 
-0.423299

>  <r_i_glide_ligand_efficiency_ln>  (201) 
-0.827824

>  <r_i_glide_gscore>  (201) 
-3.42346

>  <r_i_glide_lipo>  (201) 
-0.0964451

>  <r_i_glide_hbond>  (201) 
-0.36

>  <r_i_glide_metal>  (201) 
-0

>  <r_i_glide_rewards>  (201) 
-1.3064

>  <r_i_glide_evdw>  (201) 
-17.9855

>  <r_i_glide_ecoul>  (201) 
-5.07561

>  <r_i_glide_erotb>  (201) 
0

>  <r_i_glide_esite>  (201) 
0

>  <r_i_glide_emodel>  (201) 
-31.2299

>  <r_i_glide_energy>  (201) 
-23.0611

>  <r_i_glide_einternal>  (201) 
0.299522

>  <r_i_glide_intrahb_reward>  (201) 
-0

>  <i_i_glide_confnum>  (201) 
1

>  <i_i_glide_posenum>  (201) 
16

>  <r_i_glide_eff_state_penalty>  (201) 
0

>  <ligand_id>  (201) 
62

>  <original_smiles>  (201) 
O=C1C=C2CCC3CC(CC4C3N24)C2=CC3CC4C(O)C3CC124

>  <smiles>  (201) 
[H]OC1([H])C2([H])C([H])([H])C34C([O-])=C([H])C5=C([H])C([H])([H])C6([H])C([H])([H])C([H])(C3=C([H])C2([H])C([H])([H])C14[H])C([H])([H])C1([H])N5C16[H]

$$$$
62:5:1
     RDKit          3D

 45 51  0  0  1  0  0  0  0  0999 V2000
    7.1603   -1.4351    0.8232 O   0  0  0  0  0  0  0  0  0  0  0  0
    5.9607   -1.5352    1.1588 C   0  0  0  0  0  0  0  0  0  0  0  0
    5.4187   -0.7421    2.2033 C   0  0  0  0  0  0  0  0  0  0  0  0
    4.2531   -1.0929    3.0064 C   0  0  0  0  0  0  0  0  0  0  0  0
    2.9598   -1.0477    2.5332 C   0  0  0  0  0  0  0  0  0  0  0  0
    2.0251   -2.3191    2.7083 C   0  0  0  0  0  0  0  0  0  0  0  0
    2.7611   -3.6552    3.2287 C   0  0  1  0  0  0  0  0  0  0  0  0
    3.2135   -4.9005    2.2979 C   0  0  0  0  0  0  0  0  0  0  0  0
    4.7477   -4.9075    1.6963 C   0  0  2  0  0  0  0  0  0  0  0  0
    5.7986   -4.3938    2.7932 C   0  0  0  0  0  0  0  0  0  0  0  0
    5.2395   -3.4919    3.9633 C   0  0  2  0  0  0  0  0  0  0  0  0
    4.0721   -3.1676    3.2789 C   0  0  2  0  0  0  0  0  0  0  0  0
    4.5510   -2.0869    3.9584 N   0  0  0  0  0  0  0  0  0  0  0  0
    4.8065   -4.0651    0.3775 C   0  0  0  0  0  0  0  0  0  0  0  0
    4.2662   -4.6378   -0.7131 C   0  0  0  0  0  0  0  0  0  0  0  0
    3.9104   -3.7028   -1.8532 C   0  0  1  0  0  0  0  0  0  0  0  0
    2.9640   -2.7389   -1.1374 C   0  0  0  0  0  0  0  0  0  0  0  0
    4.0206   -1.7527   -0.6306 C   0  0  2  0  0  0  0  0  0  0  0  0
    4.4906   -1.3931   -2.0376 C   0  0  1  0  0  0  0  0  0  0  0  0
    5.3941   -0.3381   -2.0504 O   0  0  0  0  0  0  0  0  0  0  0  0
    5.0840   -2.7745   -2.2796 C   0  0  1  0  0  0  0  0  0  0  0  0
    6.1341   -2.8021   -1.1740 C   0  0  0  0  0  0  0  0  0  0  0  0
    5.2265   -2.5282    0.1053 C   0  0  1  0  0  0  0  0  0  0  0  0
    6.0914   -0.0546    2.6913 H   0  0  0  0  0  0  0  0  0  0  0  0
    2.6794   -0.3823    1.7293 H   0  0  0  0  0  0  0  0  0  0  0  0
    1.2132   -2.0689    3.3918 H   0  0  0  0  0  0  0  0  0  0  0  0
    1.5565   -2.5135    1.7421 H   0  0  0  0  0  0  0  0  0  0  0  0
    2.4471   -3.9562    4.2316 H   0  0  0  0  0  0  0  0  0  0  0  0
    3.1824   -5.7730    2.9544 H   0  0  0  0  0  0  0  0  0  0  0  0
    2.4768   -5.1049    1.5186 H   0  0  0  0  0  0  0  0  0  0  0  0
    5.0139   -5.9323    1.4178 H   0  0  0  0  0  0  0  0  0  0  0  0
    6.1827   -5.2916    3.2846 H   0  0  0  0  0  0  0  0  0  0  0  0
    6.6592   -3.9365    2.3060 H   0  0  0  0  0  0  0  0  0  0  0  0
    5.1384   -3.9482    4.9443 H   0  0  0  0  0  0  0  0  0  0  0  0
    4.2317   -2.9328    2.2465 H   0  0  0  0  0  0  0  0  0  0  0  0
    3.8520   -5.6332   -0.7040 H   0  0  0  0  0  0  0  0  0  0  0  0
    3.4411   -4.1811   -2.7053 H   0  0  0  0  0  0  0  0  0  0  0  0
    2.2423   -2.2973   -1.8281 H   0  0  0  0  0  0  0  0  0  0  0  0
    2.3703   -3.1890   -0.3404 H   0  0  0  0  0  0  0  0  0  0  0  0
    3.6019   -0.9063   -0.0923 H   0  0  0  0  0  0  0  0  0  0  0  0
    3.6982   -1.1314   -2.7476 H   0  0  0  0  0  0  0  0  0  0  0  0
    5.0125    0.4032   -1.5886 H   0  0  0  0  0  0  0  0  0  0  0  0
    5.4722   -2.9434   -3.2840 H   0  0  0  0  0  0  0  0  0  0  0  0
    6.6795   -3.7460   -1.1391 H   0  0  0  0  0  0  0  0  0  0  0  0
    6.9019   -2.0751   -1.4299 H   0  0  0  0  0  0  0  0  0  0  0  0
  1  2  1  0
 23  2  1  1
  2  3  2  0
  3  4  1  0
  3 24  1  0
  4 13  1  0
  4  5  2  0
  5  6  1  0
  5 25  1  0
  6  7  1  0
  6 26  1  0
  6 27  1  0
  7 12  1  0
  7  8  1  0
  7 28  1  1
  8  9  1  0
  8 29  1  0
  8 30  1  0
  9 10  1  0
  9 14  1  0
  9 31  1  6
 10 11  1  0
 10 32  1  0
 10 33  1  0
 11 13  1  0
 11 12  1  0
 11 34  1  1
 12 13  1  0
 12 35  1  6
 14 23  1  0
 14 15  2  0
 15 16  1  0
 15 36  1  0
 16 21  1  0
 16 17  1  0
 16 37  1  6
 17 18  1  0
 17 38  1  0
 17 39  1  0
 18 23  1  0
 18 19  1  0
 18 40  1  1
 19 20  1  0
 19 21  1  0
 19 41  1  6
 20 42  1  0
 21 22  1  0
 21 43  1  6
 22 23  1  0
 22 44  1  0
 22 45  1  0
M  CHG  1   1  -1
M  END
>  <i_m_ct_stereo_status>  (202) 
1

>  <s_m_source_file>  (202) 
/var/tmp/pbs.5076255.sched01/tmpkddd28mm/459jwin2qj.sdf

>  <i_m_source_file_index>  (202) 
42

>  <i_lp_mmshare_version>  (202) 
48012

>  <i_f3d_flags>  (202) 
0

>  <s_epik_input>  (202) 
Tz1DMS9bQ0hdPUMoL1tDSDJdW0NIMl0yKU4zW0NIXShbQ0gyXTQpW0NIXTNbQ0BASF0yW0NIMl1bQ0BIXTRDKFtDQF0xNTYpPVtDSF1bQ0BASF03W0NASF0oW0NIMl02KVtDQEhdKFtPSF0pW0NASF01W0NIMl03

>  <s_epik_cmdline>  (202) 
J2VwaWtfcHl0aG9uJywgJy1waHQnLCAnMi4wJywgJy1waCcsICc3LjAnLCAnLXRuJywgJzgnLCAnLW1hJywgJzIwMCcsICctaW1hZScsICc8aW5maWxlLm1hZT4nLCAnLW9tYWUnLCAnPG91dGZpbGUubWFlPic=

>  <r_epik_Ionization_Penalty>  (202) 
1.83585

>  <r_epik_Ionization_Penalty_Charging>  (202) 
1.47737

>  <r_epik_Ionization_Penalty_Neutral>  (202) 
0.358476

>  <r_epik_State_Penalty>  (202) 
2.28335

>  <r_epik_Charging_Adjusted_Penalty>  (202) 
3.76072

>  <i_epik_Tot_Q>  (202) 
-1

>  <i_epik_Tot_abs_Q>  (202) 
1

>  <s_epik_Chemistry_Notes>  (202) 
This compound has an imine and may undergo hydrolysis.

>  <s_lp_Force_Field>  (202) 
OPLS3e

>  <r_lp_Energy>  (202) 
292.288

>  <b_lp_Chiralities_Consistent>  (202) 
1

>  <s_lp_Variant>  (202) 
62:0-6

>  <s_i_glide_gridfile>  (202) 
pfpi4k_grid

>  <i_i_glide_lignum>  (202) 
42

>  <i_i_glide_rotatable_bonds>  (202) 
1

>  <r_i_docking_score>  (202) 
-3.08183

>  <r_i_glide_ligand_efficiency>  (202) 
-0.133993

>  <r_i_glide_ligand_efficiency_sa>  (202) 
-0.381057

>  <r_i_glide_ligand_efficiency_ln>  (202) 
-0.745214

>  <r_i_glide_gscore>  (202) 
-3.08183

>  <r_i_glide_lipo>  (202) 
-0.545135

>  <r_i_glide_hbond>  (202) 
-0.233879

>  <r_i_glide_metal>  (202) 
-0

>  <r_i_glide_rewards>  (202) 
-1.34098

>  <r_i_glide_evdw>  (202) 
-6.4746

>  <r_i_glide_ecoul>  (202) 
-4.254

>  <r_i_glide_erotb>  (202) 
0

>  <r_i_glide_esite>  (202) 
0

>  <r_i_glide_emodel>  (202) 
-17.8903

>  <r_i_glide_energy>  (202) 
-10.7286

>  <r_i_glide_einternal>  (202) 
0.458212

>  <r_i_glide_intrahb_reward>  (202) 
-0

>  <i_i_glide_confnum>  (202) 
2

>  <i_i_glide_posenum>  (202) 
29

>  <r_i_glide_eff_state_penalty>  (202) 
0

>  <ligand_id>  (202) 
62

>  <original_smiles>  (202) 
O=C1C=C2CCC3CC(CC4C3N24)C2=CC3CC4C(O)C3CC124

>  <smiles>  (202) 
[H]OC1([H])C2([H])C([H])([H])C34C([O-])=C([H])C5=C([H])C([H])([H])C6([H])C([H])([H])C([H])(C3=C([H])C2([H])C([H])([H])C14[H])C([H])([H])C1([H])N5C16[H]

$$$$
62:5:2
     RDKit          3D

 45 51  0  0  1  0  0  0  0  0999 V2000
    2.1747   -4.8404    0.1161 O   0  0  0  0  0  0  0  0  0  0  0  0
    2.9393   -4.1124    0.7872 C   0  0  0  0  0  0  0  0  0  0  0  0
    2.4714   -2.8971    1.3509 C   0  0  0  0  0  0  0  0  0  0  0  0
    3.2889   -1.7532    1.7310 C   0  0  0  0  0  0  0  0  0  0  0  0
    4.1012   -1.7574    2.8349 C   0  0  0  0  0  0  0  0  0  0  0  0
    5.6184   -1.3502    2.6674 C   0  0  0  0  0  0  0  0  0  0  0  0
    6.1328   -1.2002    1.1523 C   0  0  1  0  0  0  0  0  0  0  0  0
    6.9953   -2.3022    0.3407 C   0  0  0  0  0  0  0  0  0  0  0  0
    6.1852   -3.3937   -0.5954 C   0  0  2  0  0  0  0  0  0  0  0  0
    4.9531   -2.6928   -1.3768 C   0  0  0  0  0  0  0  0  0  0  0  0
    4.3937   -1.3475   -0.7711 C   0  0  2  0  0  0  0  0  0  0  0  0
    4.9637   -1.5693    0.4794 C   0  0  2  0  0  0  0  0  0  0  0  0
    3.7225   -1.0228    0.6049 N   0  0  0  0  0  0  0  0  0  0  0  0
    5.7395   -4.5980    0.3045 C   0  0  0  0  0  0  0  0  0  0  0  0
    6.7113   -5.4624    0.6852 C   0  0  0  0  0  0  0  0  0  0  0  0
    6.3848   -6.3723    1.8572 C   0  0  1  0  0  0  0  0  0  0  0  0
    6.0352   -5.3205    2.9224 C   0  0  0  0  0  0  0  0  0  0  0  0
    4.5377   -5.1580    2.5963 C   0  0  2  0  0  0  0  0  0  0  0  0
    4.1799   -6.6193    2.8858 C   0  0  1  0  0  0  0  0  0  0  0  0
    2.7909   -6.9052    2.8927 O   0  0  0  0  0  0  0  0  0  0  0  0
    5.0040   -7.1169    1.6940 C   0  0  1  0  0  0  0  0  0  0  0  0
    4.2215   -6.4355    0.5747 C   0  0  0  0  0  0  0  0  0  0  0  0
    4.3280   -4.9161    1.0194 C   0  0  1  0  0  0  0  0  0  0  0  0
    1.4549   -2.6045    1.1683 H   0  0  0  0  0  0  0  0  0  0  0  0
    3.8720   -2.3813    3.6888 H   0  0  0  0  0  0  0  0  0  0  0  0
    5.7829   -0.4214    3.2071 H   0  0  0  0  0  0  0  0  0  0  0  0
    6.2035   -2.1161    3.1716 H   0  0  0  0  0  0  0  0  0  0  0  0
    6.3803   -0.1710    0.8811 H   0  0  0  0  0  0  0  0  0  0  0  0
    7.6061   -1.7332   -0.3598 H   0  0  0  0  0  0  0  0  0  0  0  0
    7.7180   -2.7996    0.9923 H   0  0  0  0  0  0  0  0  0  0  0  0
    6.8845   -3.7956   -1.3339 H   0  0  0  0  0  0  0  0  0  0  0  0
    5.3539   -2.4240   -2.3523 H   0  0  0  0  0  0  0  0  0  0  0  0
    4.1449   -3.3974   -1.5936 H   0  0  0  0  0  0  0  0  0  0  0  0
    4.6498   -0.4156   -1.2728 H   0  0  0  0  0  0  0  0  0  0  0  0
    4.8573   -2.5779    0.8278 H   0  0  0  0  0  0  0  0  0  0  0  0
    7.7347   -5.3743    0.3576 H   0  0  0  0  0  0  0  0  0  0  0  0
    7.2209   -7.0157    2.1316 H   0  0  0  0  0  0  0  0  0  0  0  0
    6.2218   -5.6727    3.9363 H   0  0  0  0  0  0  0  0  0  0  0  0
    6.5883   -4.3894    2.8091 H   0  0  0  0  0  0  0  0  0  0  0  0
    4.0256   -4.4550    3.2464 H   0  0  0  0  0  0  0  0  0  0  0  0
    4.5685   -6.9898    3.8361 H   0  0  0  0  0  0  0  0  0  0  0  0
    2.4393   -6.6442    2.0529 H   0  0  0  0  0  0  0  0  0  0  0  0
    5.0632   -8.2012    1.6005 H   0  0  0  0  0  0  0  0  0  0  0  0
    4.6243   -6.6314   -0.4211 H   0  0  0  0  0  0  0  0  0  0  0  0
    3.2363   -6.8902    0.5387 H   0  0  0  0  0  0  0  0  0  0  0  0
  1  2  1  0
 23  2  1  1
  2  3  2  0
  3  4  1  0
  3 24  1  0
  4 13  1  0
  4  5  2  0
  5  6  1  0
  5 25  1  0
  6  7  1  0
  6 26  1  0
  6 27  1  0
  7 12  1  0
  7  8  1  0
  7 28  1  6
  8  9  1  0
  8 29  1  0
  8 30  1  0
  9 10  1  0
  9 14  1  0
  9 31  1  6
 10 11  1  0
 10 32  1  0
 10 33  1  0
 11 13  1  0
 11 12  1  0
 11 34  1  6
 12 13  1  0
 12 35  1  1
 14 23  1  0
 14 15  2  0
 15 16  1  0
 15 36  1  0
 16 21  1  0
 16 17  1  0
 16 37  1  1
 17 18  1  0
 17 38  1  0
 17 39  1  0
 18 23  1  0
 18 19  1  0
 18 40  1  1
 19 20  1  0
 19 21  1  0
 19 41  1  1
 20 42  1  0
 21 22  1  0
 21 43  1  6
 22 23  1  0
 22 44  1  0
 22 45  1  0
M  CHG  1   1  -1
M  END
>  <i_m_ct_stereo_status>  (203) 
1

>  <s_m_source_file>  (203) 
/var/tmp/pbs.5076255.sched01/tmpkddd28mm/459jwin2qj.sdf

>  <i_m_source_file_index>  (203) 
42

>  <i_lp_mmshare_version>  (203) 
48012

>  <i_f3d_flags>  (203) 
0

>  <s_epik_input>  (203) 
Tz1DMS9bQ0hdPUMoL1tDSDJdW0NIMl0yKU4zW0NIXShbQ0gyXTQpW0NIXTNbQ0BASF0yW0NIMl1bQ0BIXTRDKFtDQF0xNTYpPVtDSF1bQ0BASF03W0NASF0oW0NIMl02KVtDQEhdKFtPSF0pW0NASF01W0NIMl03

>  <s_epik_cmdline>  (203) 
J2VwaWtfcHl0aG9uJywgJy1waHQnLCAnMi4wJywgJy1waCcsICc3LjAnLCAnLXRuJywgJzgnLCAnLW1hJywgJzIwMCcsICctaW1hZScsICc8aW5maWxlLm1hZT4nLCAnLW9tYWUnLCAnPG91dGZpbGUubWFlPic=

>  <r_epik_Ionization_Penalty>  (203) 
1.83585

>  <r_epik_Ionization_Penalty_Charging>  (203) 
1.47737

>  <r_epik_Ionization_Penalty_Neutral>  (203) 
0.358476

>  <r_epik_State_Penalty>  (203) 
2.28335

>  <r_epik_Charging_Adjusted_Penalty>  (203) 
3.76072

>  <i_epik_Tot_Q>  (203) 
-1

>  <i_epik_Tot_abs_Q>  (203) 
1

>  <s_epik_Chemistry_Notes>  (203) 
This compound has an imine and may undergo hydrolysis.

>  <s_lp_Force_Field>  (203) 
OPLS3e

>  <r_lp_Energy>  (203) 
292.288

>  <b_lp_Chiralities_Consistent>  (203) 
1

>  <s_lp_Variant>  (203) 
62:0-6

>  <s_i_glide_gridfile>  (203) 
pfpi4k_grid

>  <i_i_glide_lignum>  (203) 
42

>  <i_i_glide_rotatable_bonds>  (203) 
1

>  <r_i_docking_score>  (203) 
-2.76979

>  <r_i_glide_ligand_efficiency>  (203) 
-0.120426

>  <r_i_glide_ligand_efficiency_sa>  (203) 
-0.342475

>  <r_i_glide_ligand_efficiency_ln>  (203) 
-0.669761

>  <r_i_glide_gscore>  (203) 
-2.76979

>  <r_i_glide_lipo>  (203) 
-0.993962

>  <r_i_glide_hbond>  (203) 
-0.0185662

>  <r_i_glide_metal>  (203) 
-0

>  <r_i_glide_rewards>  (203) 
-1.3064

>  <r_i_glide_evdw>  (203) 
-19.6529

>  <r_i_glide_ecoul>  (203) 
3.7611

>  <r_i_glide_erotb>  (203) 
0

>  <r_i_glide_esite>  (203) 
-0.0323779

>  <r_i_glide_emodel>  (203) 
-22.5627

>  <r_i_glide_energy>  (203) 
-15.8918

>  <r_i_glide_einternal>  (203) 
0.0880629

>  <r_i_glide_intrahb_reward>  (203) 
-0

>  <i_i_glide_confnum>  (203) 
1

>  <i_i_glide_posenum>  (203) 
5

>  <r_i_glide_eff_state_penalty>  (203) 
0

>  <ligand_id>  (203) 
62

>  <original_smiles>  (203) 
O=C1C=C2CCC3CC(CC4C3N24)C2=CC3CC4C(O)C3CC124

>  <smiles>  (203) 
[H]OC1([H])C2([H])C([H])([H])C34C([O-])=C([H])C5=C([H])C([H])([H])C6([H])C([H])([H])C([H])(C3=C([H])C2([H])C([H])([H])C14[H])C([H])([H])C1([H])N5C16[H]

$$$$
62:6:0
     RDKit          3D

 45 51  0  0  1  0  0  0  0  0999 V2000
    7.3746   -3.6908    0.5578 O   0  0  0  0  0  0  0  0  0  0  0  0
    6.3284   -4.2511    0.9246 C   0  0  0  0  0  0  0  0  0  0  0  0
    6.3337   -5.6419    1.2465 C   0  0  0  0  0  0  0  0  0  0  0  0
    5.2512   -6.4951    1.7209 C   0  0  0  0  0  0  0  0  0  0  0  0
    4.2083   -6.8509    0.9407 C   0  0  0  0  0  0  0  0  0  0  0  0
    2.8970   -7.2923    1.6177 C   0  0  0  0  0  0  0  0  0  0  0  0
    2.6631   -6.4723    2.9438 C   0  0  2  0  0  0  0  0  0  0  0  0
    2.4609   -4.9259    3.2563 C   0  0  0  0  0  0  0  0  0  0  0  0
    3.8044   -4.1372    3.0462 C   0  0  2  0  0  0  0  0  0  0  0  0
    4.8837   -4.4427    4.0725 C   0  0  0  0  0  0  0  0  0  0  0  0
    5.0040   -5.9394    4.2551 C   0  0  1  0  0  0  0  0  0  0  0  0
    3.8975   -6.8708    3.7993 C   0  0  2  0  0  0  0  0  0  0  0  0
    5.1699   -6.7901    3.0856 N   0  0  0  0  0  0  0  0  0  0  0  0
    4.0161   -3.0473    2.0294 C   0  0  0  0  0  0  0  0  0  0  0  0
    3.0979   -2.0941    1.8151 C   0  0  0  0  0  0  0  0  0  0  0  0
    3.4280   -1.1294    0.6979 C   0  0  1  0  0  0  0  0  0  0  0  0
    4.7529   -0.5504    1.2121 C   0  0  0  0  0  0  0  0  0  0  0  0
    5.6862   -1.6096    0.6022 C   0  0  2  0  0  0  0  0  0  0  0  0
    5.2944   -1.3135   -0.8476 C   0  0  1  0  0  0  0  0  0  0  0  0
    6.0930   -1.9321   -1.8379 O   0  0  0  0  0  0  0  0  0  0  0  0
    3.8931   -1.8700   -0.6323 C   0  0  1  0  0  0  0  0  0  0  0  0
    4.2593   -3.3381   -0.3187 C   0  0  0  0  0  0  0  0  0  0  0  0
    5.1542   -3.1210    0.9252 C   0  0  1  0  0  0  0  0  0  0  0  0
    7.2900   -6.1459    1.1483 H   0  0  0  0  0  0  0  0  0  0  0  0
    4.1799   -6.6046   -0.1116 H   0  0  0  0  0  0  0  0  0  0  0  0
    2.0643   -7.2373    0.9127 H   0  0  0  0  0  0  0  0  0  0  0  0
    2.9959   -8.3482    1.8582 H   0  0  0  0  0  0  0  0  0  0  0  0
    2.6616   -5.8513    2.0694 H   0  0  0  0  0  0  0  0  0  0  0  0
    1.6161   -4.4497    2.7336 H   0  0  0  0  0  0  0  0  0  0  0  0
    2.2001   -4.8388    4.3110 H   0  0  0  0  0  0  0  0  0  0  0  0
    4.1253   -4.6345    2.1921 H   0  0  0  0  0  0  0  0  0  0  0  0
    5.8462   -4.0213    3.7929 H   0  0  0  0  0  0  0  0  0  0  0  0
    4.5890   -4.0151    5.0318 H   0  0  0  0  0  0  0  0  0  0  0  0
    5.7262   -6.3064    4.9821 H   0  0  0  0  0  0  0  0  0  0  0  0
    3.8445   -7.8352    4.3012 H   0  0  0  0  0  0  0  0  0  0  0  0
    2.2101   -1.9526    2.4108 H   0  0  0  0  0  0  0  0  0  0  0  0
    2.6531   -0.3744    0.5557 H   0  0  0  0  0  0  0  0  0  0  0  0
    4.9317    0.4582    0.8300 H   0  0  0  0  0  0  0  0  0  0  0  0
    4.8264   -0.4757    2.2993 H   0  0  0  0  0  0  0  0  0  0  0  0
    6.7188   -1.3696    0.8538 H   0  0  0  0  0  0  0  0  0  0  0  0
    5.2748   -0.2575   -1.1107 H   0  0  0  0  0  0  0  0  0  0  0  0
    6.1295   -2.8616   -1.6404 H   0  0  0  0  0  0  0  0  0  0  0  0
    3.2183   -1.7464   -1.4809 H   0  0  0  0  0  0  0  0  0  0  0  0
    3.3784   -3.9541   -0.1246 H   0  0  0  0  0  0  0  0  0  0  0  0
    4.7816   -3.8365   -1.1340 H   0  0  0  0  0  0  0  0  0  0  0  0
  1  2  1  0
 23  2  1  1
  2  3  2  0
  3  4  1  0
  3 24  1  0
  4 13  1  0
  4  5  2  0
  5  6  1  0
  5 25  1  0
  6  7  1  0
  6 26  1  0
  6 27  1  0
  7 12  1  0
  7  8  1  0
  7 28  1  1
  8  9  1  0
  8 29  1  0
  8 30  1  0
  9 10  1  0
  9 14  1  0
  9 31  1  6
 10 11  1  0
 10 32  1  0
 10 33  1  0
 11 13  1  0
 11 12  1  0
 11 34  1  1
 12 13  1  0
 12 35  1  1
 14 23  1  0
 14 15  2  0
 15 16  1  0
 15 36  1  0
 16 21  1  0
 16 17  1  0
 16 37  1  6
 17 18  1  0
 17 38  1  0
 17 39  1  0
 18 23  1  0
 18 19  1  0
 18 40  1  6
 19 20  1  0
 19 21  1  0
 19 41  1  6
 20 42  1  0
 21 22  1  0
 21 43  1  6
 22 23  1  0
 22 44  1  0
 22 45  1  0
M  CHG  1   1  -1
M  END
>  <i_m_ct_stereo_status>  (204) 
1

>  <s_m_source_file>  (204) 
/var/tmp/pbs.5076255.sched01/tmpkddd28mm/459jwin2qj.sdf

>  <i_m_source_file_index>  (204) 
43

>  <i_lp_mmshare_version>  (204) 
48012

>  <i_f3d_flags>  (204) 
0

>  <s_epik_input>  (204) 
Tz1DMS9bQ0hdPUMoL1tDSDJdW0NIMl0yKU4zW0NIXShbQ0gyXTQpW0NIXTNbQ0BASF0yW0NIMl1bQ0BIXTRDKFtDQF0xNTYpPVtDSF1bQ0BASF03W0NASF0oW0NIMl02KVtDQEhdKFtPSF0pW0NASF01W0NIMl03

>  <s_epik_cmdline>  (204) 
J2VwaWtfcHl0aG9uJywgJy1waHQnLCAnMi4wJywgJy1waCcsICc3LjAnLCAnLXRuJywgJzgnLCAnLW1hJywgJzIwMCcsICctaW1hZScsICc8aW5maWxlLm1hZT4nLCAnLW9tYWUnLCAnPG91dGZpbGUubWFlPic=

>  <r_epik_Ionization_Penalty>  (204) 
1.83585

>  <r_epik_Ionization_Penalty_Charging>  (204) 
1.47737

>  <r_epik_Ionization_Penalty_Neutral>  (204) 
0.358476

>  <r_epik_State_Penalty>  (204) 
2.28335

>  <r_epik_Charging_Adjusted_Penalty>  (204) 
3.76072

>  <i_epik_Tot_Q>  (204) 
-1

>  <i_epik_Tot_abs_Q>  (204) 
1

>  <s_epik_Chemistry_Notes>  (204) 
This compound has an imine and may undergo hydrolysis.

>  <s_lp_Force_Field>  (204) 
OPLS3e

>  <r_lp_Energy>  (204) 
228.958

>  <b_lp_Chiralities_Consistent>  (204) 
1

>  <s_lp_Variant>  (204) 
62:0-7

>  <s_i_glide_gridfile>  (204) 
pfpi4k_grid

>  <i_i_glide_lignum>  (204) 
43

>  <i_i_glide_rotatable_bonds>  (204) 
1

>  <r_i_docking_score>  (204) 
-3.42993

>  <r_i_glide_ligand_efficiency>  (204) 
-0.149127

>  <r_i_glide_ligand_efficiency_sa>  (204) 
-0.424098

>  <r_i_glide_ligand_efficiency_ln>  (204) 
-0.829388

>  <r_i_glide_gscore>  (204) 
-3.42993

>  <r_i_glide_lipo>  (204) 
-0.702799

>  <r_i_glide_hbond>  (204) 
0

>  <r_i_glide_metal>  (204) 
-0

>  <r_i_glide_rewards>  (204) 
-1.30686

>  <r_i_glide_evdw>  (204) 
-21.2495

>  <r_i_glide_ecoul>  (204) 
-2.38528

>  <r_i_glide_erotb>  (204) 
0

>  <r_i_glide_esite>  (204) 
0

>  <r_i_glide_emodel>  (204) 
-29.5871

>  <r_i_glide_energy>  (204) 
-23.6348

>  <r_i_glide_einternal>  (204) 
0.0703834

>  <r_i_glide_intrahb_reward>  (204) 
-0

>  <i_i_glide_confnum>  (204) 
1

>  <i_i_glide_posenum>  (204) 
36

>  <r_i_glide_eff_state_penalty>  (204) 
0

>  <ligand_id>  (204) 
62

>  <original_smiles>  (204) 
O=C1C=C2CCC3CC(CC4C3N24)C2=CC3CC4C(O)C3CC124

>  <smiles>  (204) 
[H]OC1([H])C2([H])C([H])([H])C34C([O-])=C([H])C5=C([H])C([H])([H])C6([H])C([H])([H])C([H])(C3=C([H])C2([H])C([H])([H])C14[H])C([H])([H])C1([H])N5C16[H]

$$$$
62:6:1
     RDKit          3D

 45 51  0  0  1  0  0  0  0  0999 V2000
    2.9252   -4.4527    2.8319 O   0  0  0  0  0  0  0  0  0  0  0  0
    3.5153   -4.1361    1.7829 C   0  0  0  0  0  0  0  0  0  0  0  0
    2.9717   -3.1231    0.9459 C   0  0  0  0  0  0  0  0  0  0  0  0
    3.4749   -2.5712   -0.3066 C   0  0  0  0  0  0  0  0  0  0  0  0
    3.4990   -3.2729   -1.4531 C   0  0  0  0  0  0  0  0  0  0  0  0
    4.4879   -2.8631   -2.5620 C   0  0  0  0  0  0  0  0  0  0  0  0
    5.8232   -2.3194   -1.9174 C   0  0  2  0  0  0  0  0  0  0  0  0
    6.9419   -2.9551   -0.9782 C   0  0  0  0  0  0  0  0  0  0  0  0
    6.3798   -3.1830    0.4713 C   0  0  2  0  0  0  0  0  0  0  0  0
    6.1121   -1.9075    1.2612 C   0  0  0  0  0  0  0  0  0  0  0  0
    5.3614   -0.9189    0.3930 C   0  0  1  0  0  0  0  0  0  0  0  0
    5.3205   -1.0836   -1.1171 C   0  0  2  0  0  0  0  0  0  0  0  0
    4.1516   -1.3532   -0.2849 N   0  0  0  0  0  0  0  0  0  0  0  0
    6.2377   -4.5299    1.1286 C   0  0  0  0  0  0  0  0  0  0  0  0
    7.1994   -5.4622    1.0494 C   0  0  0  0  0  0  0  0  0  0  0  0
    6.8610   -6.7884    1.6966 C   0  0  1  0  0  0  0  0  0  0  0  0
    6.6137   -6.3320    3.1425 C   0  0  0  0  0  0  0  0  0  0  0  0
    5.1163   -5.9944    2.9962 C   0  0  2  0  0  0  0  0  0  0  0  0
    4.6940   -7.4243    2.6211 C   0  0  1  0  0  0  0  0  0  0  0  0
    3.3007   -7.6673    2.5681 O   0  0  0  0  0  0  0  0  0  0  0  0
    5.4171   -7.3216    1.2826 C   0  0  1  0  0  0  0  0  0  0  0  0
    4.5987   -6.1816    0.6400 C   0  0  0  0  0  0  0  0  0  0  0  0
    4.8482   -5.0622    1.6806 C   0  0  1  0  0  0  0  0  0  0  0  0
    2.0487   -2.6680    1.2795 H   0  0  0  0  0  0  0  0  0  0  0  0
    3.0464   -4.2520   -1.5132 H   0  0  0  0  0  0  0  0  0  0  0  0
    4.6411   -3.6850   -3.2674 H   0  0  0  0  0  0  0  0  0  0  0  0
    4.0184   -2.0706   -3.1392 H   0  0  0  0  0  0  0  0  0  0  0  0
    5.6540   -3.3554   -1.6931 H   0  0  0  0  0  0  0  0  0  0  0  0
    7.4351   -3.8548   -1.3873 H   0  0  0  0  0  0  0  0  0  0  0  0
    7.7590   -2.2393   -0.8970 H   0  0  0  0  0  0  0  0  0  0  0  0
    5.4329   -3.5137    0.1951 H   0  0  0  0  0  0  0  0  0  0  0  0
    5.5587   -2.0868    2.1836 H   0  0  0  0  0  0  0  0  0  0  0  0
    7.0650   -1.4460    1.5136 H   0  0  0  0  0  0  0  0  0  0  0  0
    5.1312    0.0524    0.8184 H   0  0  0  0  0  0  0  0  0  0  0  0
    5.1072   -0.2001   -1.7115 H   0  0  0  0  0  0  0  0  0  0  0  0
    8.1751   -5.2967    0.6209 H   0  0  0  0  0  0  0  0  0  0  0  0
    7.6664   -7.5136    1.6064 H   0  0  0  0  0  0  0  0  0  0  0  0
    6.8072   -7.1288    3.8638 H   0  0  0  0  0  0  0  0  0  0  0  0
    7.2227   -5.4828    3.4647 H   0  0  0  0  0  0  0  0  0  0  0  0
    4.7296   -5.6458    3.9512 H   0  0  0  0  0  0  0  0  0  0  0  0
    5.1081   -8.2039    3.2622 H   0  0  0  0  0  0  0  0  0  0  0  0
    2.9051   -6.9488    2.0969 H   0  0  0  0  0  0  0  0  0  0  0  0
    5.4156   -8.2474    0.7080 H   0  0  0  0  0  0  0  0  0  0  0  0
    4.9426   -5.9287   -0.3688 H   0  0  0  0  0  0  0  0  0  0  0  0
    3.5388   -6.4176    0.5240 H   0  0  0  0  0  0  0  0  0  0  0  0
  1  2  1  0
 23  2  1  1
  2  3  2  0
  3  4  1  0
  3 24  1  0
  4 13  1  0
  4  5  2  0
  5  6  1  0
  5 25  1  0
  6  7  1  0
  6 26  1  0
  6 27  1  0
  7 12  1  0
  7  8  1  0
  7 28  1  6
  8  9  1  0
  8 29  1  0
  8 30  1  0
  9 10  1  0
  9 14  1  0
  9 31  1  6
 10 11  1  0
 10 32  1  0
 10 33  1  0
 11 13  1  0
 11 12  1  0
 11 34  1  6
 12 13  1  0
 12 35  1  6
 14 23  1  0
 14 15  2  0
 15 16  1  0
 15 36  1  0
 16 21  1  0
 16 17  1  0
 16 37  1  1
 17 18  1  0
 17 38  1  0
 17 39  1  0
 18 23  1  0
 18 19  1  0
 18 40  1  1
 19 20  1  0
 19 21  1  0
 19 41  1  1
 20 42  1  0
 21 22  1  0
 21 43  1  6
 22 23  1  0
 22 44  1  0
 22 45  1  0
M  CHG  1   1  -1
M  END
>  <i_m_ct_stereo_status>  (205) 
1

>  <s_m_source_file>  (205) 
/var/tmp/pbs.5076255.sched01/tmpkddd28mm/459jwin2qj.sdf

>  <i_m_source_file_index>  (205) 
43

>  <i_lp_mmshare_version>  (205) 
48012

>  <i_f3d_flags>  (205) 
0

>  <s_epik_input>  (205) 
Tz1DMS9bQ0hdPUMoL1tDSDJdW0NIMl0yKU4zW0NIXShbQ0gyXTQpW0NIXTNbQ0BASF0yW0NIMl1bQ0BIXTRDKFtDQF0xNTYpPVtDSF1bQ0BASF03W0NASF0oW0NIMl02KVtDQEhdKFtPSF0pW0NASF01W0NIMl03

>  <s_epik_cmdline>  (205) 
J2VwaWtfcHl0aG9uJywgJy1waHQnLCAnMi4wJywgJy1waCcsICc3LjAnLCAnLXRuJywgJzgnLCAnLW1hJywgJzIwMCcsICctaW1hZScsICc8aW5maWxlLm1hZT4nLCAnLW9tYWUnLCAnPG91dGZpbGUubWFlPic=

>  <r_epik_Ionization_Penalty>  (205) 
1.83585

>  <r_epik_Ionization_Penalty_Charging>  (205) 
1.47737

>  <r_epik_Ionization_Penalty_Neutral>  (205) 
0.358476

>  <r_epik_State_Penalty>  (205) 
2.28335

>  <r_epik_Charging_Adjusted_Penalty>  (205) 
3.76072

>  <i_epik_Tot_Q>  (205) 
-1

>  <i_epik_Tot_abs_Q>  (205) 
1

>  <s_epik_Chemistry_Notes>  (205) 
This compound has an imine and may undergo hydrolysis.

>  <s_lp_Force_Field>  (205) 
OPLS3e

>  <r_lp_Energy>  (205) 
228.958

>  <b_lp_Chiralities_Consistent>  (205) 
1

>  <s_lp_Variant>  (205) 
62:0-7

>  <s_i_glide_gridfile>  (205) 
pfpi4k_grid

>  <i_i_glide_lignum>  (205) 
43

>  <i_i_glide_rotatable_bonds>  (205) 
1

>  <r_i_docking_score>  (205) 
-3.20778

>  <r_i_glide_ligand_efficiency>  (205) 
-0.139469

>  <r_i_glide_ligand_efficiency_sa>  (205) 
-0.39663

>  <r_i_glide_ligand_efficiency_ln>  (205) 
-0.77567

>  <r_i_glide_gscore>  (205) 
-3.20778

>  <r_i_glide_lipo>  (205) 
-0.982453

>  <r_i_glide_hbond>  (205) 
0

>  <r_i_glide_metal>  (205) 
-0

>  <r_i_glide_rewards>  (205) 
-1.3064

>  <r_i_glide_evdw>  (205) 
-25.6423

>  <r_i_glide_ecoul>  (205) 
2.67571

>  <r_i_glide_erotb>  (205) 
0

>  <r_i_glide_esite>  (205) 
-0.0381639

>  <r_i_glide_emodel>  (205) 
-28.5654

>  <r_i_glide_energy>  (205) 
-22.9666

>  <r_i_glide_einternal>  (205) 
0.0203349

>  <r_i_glide_intrahb_reward>  (205) 
-0

>  <i_i_glide_confnum>  (205) 
2

>  <i_i_glide_posenum>  (205) 
21

>  <r_i_glide_eff_state_penalty>  (205) 
0

>  <ligand_id>  (205) 
62

>  <original_smiles>  (205) 
O=C1C=C2CCC3CC(CC4C3N24)C2=CC3CC4C(O)C3CC124

>  <smiles>  (205) 
[H]OC1([H])C2([H])C([H])([H])C34C([O-])=C([H])C5=C([H])C([H])([H])C6([H])C([H])([H])C([H])(C3=C([H])C2([H])C([H])([H])C14[H])C([H])([H])C1([H])N5C16[H]

$$$$
62:6:2
     RDKit          3D

 45 51  0  0  1  0  0  0  0  0999 V2000
    1.8414   -5.5713    1.1701 O   0  0  0  0  0  0  0  0  0  0  0  0
    2.8730   -5.0519    0.7001 C   0  0  0  0  0  0  0  0  0  0  0  0
    2.7555   -4.0660   -0.3211 C   0  0  0  0  0  0  0  0  0  0  0  0
    3.7770   -3.2702   -0.9935 C   0  0  0  0  0  0  0  0  0  0  0  0
    4.6785   -3.7974   -1.8462 C   0  0  0  0  0  0  0  0  0  0  0  0
    5.9984   -3.0474   -2.0979 C   0  0  0  0  0  0  0  0  0  0  0  0
    6.4727   -2.3350   -0.7720 C   0  0  2  0  0  0  0  0  0  0  0  0
    6.8772   -2.8654    0.6731 C   0  0  0  0  0  0  0  0  0  0  0  0
    5.6123   -3.3950    1.4480 C   0  0  2  0  0  0  0  0  0  0  0  0
    4.6272   -2.3144    1.8667 C   0  0  0  0  0  0  0  0  0  0  0  0
    4.3605   -1.3867    0.6970 C   0  0  1  0  0  0  0  0  0  0  0  0
    5.3056   -1.3446   -0.4891 C   0  0  2  0  0  0  0  0  0  0  0  0
    3.9791   -1.9530   -0.5847 N   0  0  0  0  0  0  0  0  0  0  0  0
    5.4187   -4.8174    1.9056 C   0  0  0  0  0  0  0  0  0  0  0  0
    6.4118   -5.5217    2.4700 C   0  0  0  0  0  0  0  0  0  0  0  0
    6.0764   -6.9621    2.7923 C   0  0  1  0  0  0  0  0  0  0  0  0
    4.8901   -6.7624    3.7492 C   0  0  0  0  0  0  0  0  0  0  0  0
    3.7755   -6.7151    2.6842 C   0  0  2  0  0  0  0  0  0  0  0  0
    4.0379   -8.1391    2.1686 C   0  0  1  0  0  0  0  0  0  0  0  0
    3.0610   -8.6554    1.2873 O   0  0  0  0  0  0  0  0  0  0  0  0
    5.3749   -7.7161    1.5754 C   0  0  1  0  0  0  0  0  0  0  0  0
    4.8765   -6.6826    0.5417 C   0  0  0  0  0  0  0  0  0  0  0  0
    4.1579   -5.6822    1.4791 C   0  0  1  0  0  0  0  0  0  0  0  0
    1.7551   -3.8598   -0.6735 H   0  0  0  0  0  0  0  0  0  0  0  0
    4.6264   -4.8288   -2.1546 H   0  0  0  0  0  0  0  0  0  0  0  0
    6.7440   -3.7130   -2.5427 H   0  0  0  0  0  0  0  0  0  0  0  0
    5.7917   -2.3022   -2.8601 H   0  0  0  0  0  0  0  0  0  0  0  0
    6.4597   -3.4055   -0.6815 H   0  0  0  0  0  0  0  0  0  0  0  0
    7.7120   -3.5857    0.6923 H   0  0  0  0  0  0  0  0  0  0  0  0
    7.2611   -2.0113    1.2357 H   0  0  0  0  0  0  0  0  0  0  0  0
    5.1579   -3.8695    0.6438 H   0  0  0  0  0  0  0  0  0  0  0  0
    3.6911   -2.7210    2.2451 H   0  0  0  0  0  0  0  0  0  0  0  0
    5.0838   -1.7154    2.6545 H   0  0  0  0  0  0  0  0  0  0  0  0
    3.6890   -0.5493    0.8624 H   0  0  0  0  0  0  0  0  0  0  0  0
    5.3054   -0.4192   -1.0635 H   0  0  0  0  0  0  0  0  0  0  0  0
    7.3686   -5.1092    2.7398 H   0  0  0  0  0  0  0  0  0  0  0  0
    6.9102   -7.4944    3.2462 H   0  0  0  0  0  0  0  0  0  0  0  0
    4.7837   -7.5931    4.4523 H   0  0  0  0  0  0  0  0  0  0  0  0
    4.9463   -5.8602    4.3646 H   0  0  0  0  0  0  0  0  0  0  0  0
    2.8105   -6.5845    3.1686 H   0  0  0  0  0  0  0  0  0  0  0  0
    4.1447   -8.8966    2.9443 H   0  0  0  0  0  0  0  0  0  0  0  0
    3.2807   -9.5420    1.0559 H   0  0  0  0  0  0  0  0  0  0  0  0
    5.9611   -8.5284    1.1471 H   0  0  0  0  0  0  0  0  0  0  0  0
    5.6932   -6.2308   -0.0310 H   0  0  0  0  0  0  0  0  0  0  0  0
    4.2102   -7.1134   -0.2084 H   0  0  0  0  0  0  0  0  0  0  0  0
  1  2  1  0
 23  2  1  6
  2  3  2  0
  3  4  1  0
  3 24  1  0
  4 13  1  0
  4  5  2  0
  5  6  1  0
  5 25  1  0
  6  7  1  0
  6 26  1  0
  6 27  1  0
  7 12  1  0
  7  8  1  0
  7 28  1  6
  8  9  1  0
  8 29  1  0
  8 30  1  0
  9 10  1  0
  9 14  1  0
  9 31  1  6
 10 11  1  0
 10 32  1  0
 10 33  1  0
 11 13  1  0
 11 12  1  0
 11 34  1  1
 12 13  1  0
 12 35  1  6
 14 23  1  0
 14 15  2  0
 15 16  1  0
 15 36  1  0
 16 21  1  0
 16 17  1  0
 16 37  1  1
 17 18  1  0
 17 38  1  0
 17 39  1  0
 18 23  1  0
 18 19  1  0
 18 40  1  1
 19 20  1  0
 19 21  1  0
 19 41  1  1
 20 42  1  0
 21 22  1  0
 21 43  1  6
 22 23  1  0
 22 44  1  0
 22 45  1  0
M  CHG  1   1  -1
M  END
>  <i_m_ct_stereo_status>  (206) 
1

>  <s_m_source_file>  (206) 
/var/tmp/pbs.5076255.sched01/tmpkddd28mm/459jwin2qj.sdf

>  <i_m_source_file_index>  (206) 
43

>  <i_lp_mmshare_version>  (206) 
48012

>  <i_f3d_flags>  (206) 
0

>  <s_epik_input>  (206) 
Tz1DMS9bQ0hdPUMoL1tDSDJdW0NIMl0yKU4zW0NIXShbQ0gyXTQpW0NIXTNbQ0BASF0yW0NIMl1bQ0BIXTRDKFtDQF0xNTYpPVtDSF1bQ0BASF03W0NASF0oW0NIMl02KVtDQEhdKFtPSF0pW0NASF01W0NIMl03

>  <s_epik_cmdline>  (206) 
J2VwaWtfcHl0aG9uJywgJy1waHQnLCAnMi4wJywgJy1waCcsICc3LjAnLCAnLXRuJywgJzgnLCAnLW1hJywgJzIwMCcsICctaW1hZScsICc8aW5maWxlLm1hZT4nLCAnLW9tYWUnLCAnPG91dGZpbGUubWFlPic=

>  <r_epik_Ionization_Penalty>  (206) 
1.83585

>  <r_epik_Ionization_Penalty_Charging>  (206) 
1.47737

>  <r_epik_Ionization_Penalty_Neutral>  (206) 
0.358476

>  <r_epik_State_Penalty>  (206) 
2.28335

>  <r_epik_Charging_Adjusted_Penalty>  (206) 
3.76072

>  <i_epik_Tot_Q>  (206) 
-1

>  <i_epik_Tot_abs_Q>  (206) 
1

>  <s_epik_Chemistry_Notes>  (206) 
This compound has an imine and may undergo hydrolysis.

>  <s_lp_Force_Field>  (206) 
OPLS3e

>  <r_lp_Energy>  (206) 
228.958

>  <b_lp_Chiralities_Consistent>  (206) 
1

>  <s_lp_Variant>  (206) 
62:0-7

>  <s_i_glide_gridfile>  (206) 
pfpi4k_grid

>  <i_i_glide_lignum>  (206) 
43

>  <i_i_glide_rotatable_bonds>  (206) 
1

>  <r_i_docking_score>  (206) 
-2.95459

>  <r_i_glide_ligand_efficiency>  (206) 
-0.12846

>  <r_i_glide_ligand_efficiency_sa>  (206) 
-0.365324

>  <r_i_glide_ligand_efficiency_ln>  (206) 
-0.714445

>  <r_i_glide_gscore>  (206) 
-2.95459

>  <r_i_glide_lipo>  (206) 
-0.652238

>  <r_i_glide_hbond>  (206) 
-0.0913823

>  <r_i_glide_metal>  (206) 
-0

>  <r_i_glide_rewards>  (206) 
-1.3064

>  <r_i_glide_evdw>  (206) 
-23.3229

>  <r_i_glide_ecoul>  (206) 
2.02313

>  <r_i_glide_erotb>  (206) 
0

>  <r_i_glide_esite>  (206) 
-0.041886

>  <r_i_glide_emodel>  (206) 
-26.1861

>  <r_i_glide_energy>  (206) 
-21.2998

>  <r_i_glide_einternal>  (206) 
0.380158

>  <r_i_glide_intrahb_reward>  (206) 
-0

>  <i_i_glide_confnum>  (206) 
2

>  <i_i_glide_posenum>  (206) 
38

>  <r_i_glide_eff_state_penalty>  (206) 
0

>  <ligand_id>  (206) 
62

>  <original_smiles>  (206) 
O=C1C=C2CCC3CC(CC4C3N24)C2=CC3CC4C(O)C3CC124

>  <smiles>  (206) 
[H]OC1([H])C2([H])C([H])([H])C34C([O-])=C([H])C5=C([H])C([H])([H])C6([H])C([H])([H])C([H])(C3=C([H])C2([H])C([H])([H])C14[H])C([H])([H])C1([H])N5C16[H]

$$$$
62:8:0
     RDKit          3D

 45 51  0  0  1  0  0  0  0  0999 V2000
    1.8736   -5.3320    0.1342 O   0  0  0  0  0  0  0  0  0  0  0  0
    2.4729   -4.3117   -0.2609 C   0  0  0  0  0  0  0  0  0  0  0  0
    1.9735   -3.7432   -1.5112 C   0  0  0  0  0  0  0  0  0  0  0  0
    2.5105   -2.7294   -2.5025 C   0  0  0  0  0  0  0  0  0  0  0  0
    3.0440   -3.3141   -3.6030 C   0  0  0  0  0  0  0  0  0  0  0  0
    4.5734   -3.2430   -3.6943 C   0  0  0  0  0  0  0  0  0  0  0  0
    4.9592   -3.2685   -2.2055 C   0  0  1  0  0  0  0  0  0  0  0  0
    6.3314   -2.9726   -1.5602 C   0  0  0  0  0  0  0  0  0  0  0  0
    5.9884   -2.4534   -0.0939 C   0  0  2  0  0  0  0  0  0  0  0  0
    5.2838   -1.0052   -0.4040 C   0  0  0  0  0  0  0  0  0  0  0  0
    4.4575   -0.9086   -1.7324 C   0  0  1  0  0  0  0  0  0  0  0  0
    4.1100   -2.2227   -1.5282 C   0  0  1  0  0  0  0  0  0  0  0  0
    3.0833   -1.5184   -2.0714 N   0  0  0  0  0  0  0  0  0  0  0  0
    5.0514   -3.1219    1.0025 C   0  0  0  0  0  0  0  0  0  0  0  0
    5.5286   -2.9965    2.2453 C   0  0  0  0  0  0  0  0  0  0  0  0
    4.6686   -3.4896    3.3672 C   0  0  1  0  0  0  0  0  0  0  0  0
    3.4222   -2.6150    3.1576 C   0  0  0  0  0  0  0  0  0  0  0  0
    2.6832   -3.5640    2.2130 C   0  0  2  0  0  0  0  0  0  0  0  0
    2.6414   -4.7424    3.2238 C   0  0  1  0  0  0  0  0  0  0  0  0
    1.8539   -5.8801    2.9380 O   0  0  0  0  0  0  0  0  0  0  0  0
    4.1335   -4.9492    3.0918 C   0  0  1  0  0  0  0  0  0  0  0  0
    4.2261   -5.2833    1.5848 C   0  0  0  0  0  0  0  0  0  0  0  0
    3.6248   -3.9801    0.9543 C   0  0  1  0  0  0  0  0  0  0  0  0
    1.1440   -4.2920   -1.9238 H   0  0  0  0  0  0  0  0  0  0  0  0
    2.6704   -4.2858   -3.8997 H   0  0  0  0  0  0  0  0  0  0  0  0
    4.9732   -4.1070   -4.2214 H   0  0  0  0  0  0  0  0  0  0  0  0
    4.8547   -2.3192   -4.1853 H   0  0  0  0  0  0  0  0  0  0  0  0
    4.6540   -4.2508   -1.8464 H   0  0  0  0  0  0  0  0  0  0  0  0
    6.9737   -3.8581   -1.5816 H   0  0  0  0  0  0  0  0  0  0  0  0
    6.8559   -2.2006   -2.1246 H   0  0  0  0  0  0  0  0  0  0  0  0
    5.6946   -3.5093   -0.1286 H   0  0  0  0  0  0  0  0  0  0  0  0
    4.7000   -0.6719    0.4539 H   0  0  0  0  0  0  0  0  0  0  0  0
    6.0911   -0.2810   -0.4504 H   0  0  0  0  0  0  0  0  0  0  0  0
    4.9510   -0.6526   -2.6566 H   0  0  0  0  0  0  0  0  0  0  0  0
    3.6209   -2.3405   -0.5839 H   0  0  0  0  0  0  0  0  0  0  0  0
    6.4416   -2.4748    2.4681 H   0  0  0  0  0  0  0  0  0  0  0  0
    5.1349   -3.3469    4.3386 H   0  0  0  0  0  0  0  0  0  0  0  0
    2.8814   -2.4324    4.0854 H   0  0  0  0  0  0  0  0  0  0  0  0
    3.6151   -1.6335    2.7190 H   0  0  0  0  0  0  0  0  0  0  0  0
    1.7092   -3.1663    1.9413 H   0  0  0  0  0  0  0  0  0  0  0  0
    2.3486   -4.4496    4.2336 H   0  0  0  0  0  0  0  0  0  0  0  0
    2.1071   -6.1898    2.0731 H   0  0  0  0  0  0  0  0  0  0  0  0
    4.5464   -5.7149    3.7488 H   0  0  0  0  0  0  0  0  0  0  0  0
    5.2546   -5.4728    1.2686 H   0  0  0  0  0  0  0  0  0  0  0  0
    3.7238   -6.2203    1.3515 H   0  0  0  0  0  0  0  0  0  0  0  0
  1  2  1  0
 23  2  1  6
  2  3  2  0
  3  4  1  0
  3 24  1  0
  4 13  1  0
  4  5  2  0
  5  6  1  0
  5 25  1  0
  6  7  1  0
  6 26  1  0
  6 27  1  0
  7 12  1  0
  7  8  1  0
  7 28  1  1
  8  9  1  0
  8 29  1  0
  8 30  1  0
  9 10  1  0
  9 14  1  0
  9 31  1  1
 10 11  1  0
 10 32  1  0
 10 33  1  0
 11 13  1  0
 11 12  1  0
 11 34  1  6
 12 13  1  0
 12 35  1  1
 14 23  1  0
 14 15  2  0
 15 16  1  0
 15 36  1  0
 16 21  1  0
 16 17  1  0
 16 37  1  1
 17 18  1  0
 17 38  1  0
 17 39  1  0
 18 23  1  0
 18 19  1  0
 18 40  1  6
 19 20  1  0
 19 21  1  0
 19 41  1  1
 20 42  1  0
 21 22  1  0
 21 43  1  1
 22 23  1  0
 22 44  1  0
 22 45  1  0
M  CHG  1   1  -1
M  END
>  <i_m_ct_stereo_status>  (207) 
1

>  <s_m_source_file>  (207) 
/var/tmp/pbs.5076255.sched01/tmpkddd28mm/459jwin2qj.sdf

>  <i_m_source_file_index>  (207) 
45

>  <i_lp_mmshare_version>  (207) 
48012

>  <i_f3d_flags>  (207) 
0

>  <s_epik_input>  (207) 
Tz1DMS9bQ0hdPUMoL1tDSDJdW0NIMl0yKU4zW0NIXShbQ0gyXTQpW0NIXTNbQ0BASF0yW0NIMl1bQ0BIXTRDKFtDQF0xNTYpPVtDSF1bQ0BASF03W0NASF0oW0NIMl02KVtDQEhdKFtPSF0pW0NASF01W0NIMl03

>  <s_epik_cmdline>  (207) 
J2VwaWtfcHl0aG9uJywgJy1waHQnLCAnMi4wJywgJy1waCcsICc3LjAnLCAnLXRuJywgJzgnLCAnLW1hJywgJzIwMCcsICctaW1hZScsICc8aW5maWxlLm1hZT4nLCAnLW9tYWUnLCAnPG91dGZpbGUubWFlPic=

>  <r_epik_Ionization_Penalty>  (207) 
1.83585

>  <r_epik_Ionization_Penalty_Charging>  (207) 
1.47737

>  <r_epik_Ionization_Penalty_Neutral>  (207) 
0.358476

>  <r_epik_State_Penalty>  (207) 
2.28335

>  <r_epik_Charging_Adjusted_Penalty>  (207) 
3.76072

>  <i_epik_Tot_Q>  (207) 
-1

>  <i_epik_Tot_abs_Q>  (207) 
1

>  <s_epik_Chemistry_Notes>  (207) 
This compound has an imine and may undergo hydrolysis.

>  <s_lp_Force_Field>  (207) 
OPLS3e

>  <r_lp_Energy>  (207) 
401.19

>  <b_lp_Chiralities_Consistent>  (207) 
1

>  <s_lp_Variant>  (207) 
62:0-9

>  <s_i_glide_gridfile>  (207) 
pfpi4k_grid

>  <i_i_glide_lignum>  (207) 
45

>  <i_i_glide_rotatable_bonds>  (207) 
1

>  <r_i_docking_score>  (207) 
-3.14658

>  <r_i_glide_ligand_efficiency>  (207) 
-0.136808

>  <r_i_glide_ligand_efficiency_sa>  (207) 
-0.389063

>  <r_i_glide_ligand_efficiency_ln>  (207) 
-0.760871

>  <r_i_glide_gscore>  (207) 
-3.14658

>  <r_i_glide_lipo>  (207) 
-0.70396

>  <r_i_glide_hbond>  (207) 
-0.0868698

>  <r_i_glide_metal>  (207) 
-0

>  <r_i_glide_rewards>  (207) 
-1.8064

>  <r_i_glide_evdw>  (207) 
-21.1417

>  <r_i_glide_ecoul>  (207) 
4.01946

>  <r_i_glide_erotb>  (207) 
0

>  <r_i_glide_esite>  (207) 
-0.0951772

>  <r_i_glide_emodel>  (207) 
-28.3478

>  <r_i_glide_energy>  (207) 
-17.1223

>  <r_i_glide_einternal>  (207) 
0.248322

>  <r_i_glide_intrahb_reward>  (207) 
-0.5

>  <i_i_glide_confnum>  (207) 
2

>  <i_i_glide_posenum>  (207) 
1

>  <r_i_glide_eff_state_penalty>  (207) 
0

>  <ligand_id>  (207) 
62

>  <original_smiles>  (207) 
O=C1C=C2CCC3CC(CC4C3N24)C2=CC3CC4C(O)C3CC124

>  <smiles>  (207) 
[H]OC1([H])C2([H])C([H])([H])C34C([O-])=C([H])C5=C([H])C([H])([H])C6([H])C([H])([H])C([H])(C3=C([H])C2([H])C([H])([H])C14[H])C([H])([H])C1([H])N5C16[H]

$$$$
62:8:1
     RDKit          3D

 45 51  0  0  1  0  0  0  0  0999 V2000
    0.7695   -6.2522    0.5301 O   0  0  0  0  0  0  0  0  0  0  0  0
    1.8164   -5.8474    1.0637 C   0  0  0  0  0  0  0  0  0  0  0  0
    2.2705   -4.5649    0.5399 C   0  0  0  0  0  0  0  0  0  0  0  0
    3.4682   -3.6946    0.7474 C   0  0  0  0  0  0  0  0  0  0  0  0
    4.2750   -3.7516   -0.3566 C   0  0  0  0  0  0  0  0  0  0  0  0
    5.5585   -4.5475   -0.1663 C   0  0  0  0  0  0  0  0  0  0  0  0
    5.1136   -5.6096    0.8562 C   0  0  1  0  0  0  0  0  0  0  0  0
    5.9747   -6.6106    1.6486 C   0  0  0  0  0  0  0  0  0  0  0  0
    5.1339   -6.9169    2.9656 C   0  0  2  0  0  0  0  0  0  0  0  0
    5.2128   -5.4723    3.7438 C   0  0  0  0  0  0  0  0  0  0  0  0
    5.2153   -4.1717    2.8499 C   0  0  1  0  0  0  0  0  0  0  0  0
    4.4191   -4.8687    1.9862 C   0  0  1  0  0  0  0  0  0  0  0  0
    4.0634   -3.5619    2.0176 N   0  0  0  0  0  0  0  0  0  0  0  0
    3.6137   -7.3564    3.0993 C   0  0  0  0  0  0  0  0  0  0  0  0
    3.4178   -8.2620    4.0743 C   0  0  0  0  0  0  0  0  0  0  0  0
    1.9952   -8.6489    4.3574 C   0  0  1  0  0  0  0  0  0  0  0  0
    1.3918   -7.2777    4.7181 C   0  0  0  0  0  0  0  0  0  0  0  0
    0.9655   -6.8820    3.3039 C   0  0  2  0  0  0  0  0  0  0  0  0
    0.0333   -8.1056    3.1142 C   0  0  1  0  0  0  0  0  0  0  0  0
   -0.8653   -8.1189    2.0277 O   0  0  0  0  0  0  0  0  0  0  0  0
    1.2213   -9.0418    3.0336 C   0  0  1  0  0  0  0  0  0  0  0  0
    1.9532   -8.4575    1.7988 C   0  0  0  0  0  0  0  0  0  0  0  0
    2.2154   -6.9886    2.2702 C   0  0  1  0  0  0  0  0  0  0  0  0
    1.6701   -4.1702   -0.2750 H   0  0  0  0  0  0  0  0  0  0  0  0
    3.8049   -3.9766   -1.3033 H   0  0  0  0  0  0  0  0  0  0  0  0
    5.8107   -5.0234   -1.1070 H   0  0  0  0  0  0  0  0  0  0  0  0
    6.3821   -3.9143    0.1679 H   0  0  0  0  0  0  0  0  0  0  0  0
    4.3675   -6.2074    0.3278 H   0  0  0  0  0  0  0  0  0  0  0  0
    6.1963   -7.4918    1.0389 H   0  0  0  0  0  0  0  0  0  0  0  0
    6.9420   -6.1670    1.9107 H   0  0  0  0  0  0  0  0  0  0  0  0
    4.5729   -7.3417    2.1288 H   0  0  0  0  0  0  0  0  0  0  0  0
    4.4395   -5.4070    4.5112 H   0  0  0  0  0  0  0  0  0  0  0  0
    6.1430   -5.4796    4.3088 H   0  0  0  0  0  0  0  0  0  0  0  0
    6.1614   -3.8167    2.4602 H   0  0  0  0  0  0  0  0  0  0  0  0
    3.5191   -5.1728    2.4598 H   0  0  0  0  0  0  0  0  0  0  0  0
    4.2032   -8.6258    4.7099 H   0  0  0  0  0  0  0  0  0  0  0  0
    1.9158   -9.3747    5.1676 H   0  0  0  0  0  0  0  0  0  0  0  0
    0.5543   -7.3613    5.4122 H   0  0  0  0  0  0  0  0  0  0  0  0
    2.0910   -6.5749    5.1745 H   0  0  0  0  0  0  0  0  0  0  0  0
    0.4498   -5.9221    3.2875 H   0  0  0  0  0  0  0  0  0  0  0  0
   -0.6035   -8.3362    3.9717 H   0  0  0  0  0  0  0  0  0  0  0  0
   -0.6086   -8.8131    1.4319 H   0  0  0  0  0  0  0  0  0  0  0  0
    0.9694  -10.1010    2.9574 H   0  0  0  0  0  0  0  0  0  0  0  0
    2.8617   -9.0129    1.5654 H   0  0  0  0  0  0  0  0  0  0  0  0
    1.3691   -8.5582    0.8945 H   0  0  0  0  0  0  0  0  0  0  0  0
  1  2  1  0
 23  2  1  6
  2  3  2  0
  3  4  1  0
  3 24  1  0
  4 13  1  0
  4  5  2  0
  5  6  1  0
  5 25  1  0
  6  7  1  0
  6 26  1  0
  6 27  1  0
  7 12  1  0
  7  8  1  0
  7 28  1  6
  8  9  1  0
  8 29  1  0
  8 30  1  0
  9 10  1  0
  9 14  1  0
  9 31  1  1
 10 11  1  0
 10 32  1  0
 10 33  1  0
 11 13  1  0
 11 12  1  0
 11 34  1  6
 12 13  1  0
 12 35  1  1
 14 23  1  0
 14 15  2  0
 15 16  1  0
 15 36  1  0
 16 21  1  0
 16 17  1  0
 16 37  1  1
 17 18  1  0
 17 38  1  0
 17 39  1  0
 18 23  1  0
 18 19  1  0
 18 40  1  1
 19 20  1  0
 19 21  1  0
 19 41  1  1
 20 42  1  0
 21 22  1  0
 21 43  1  6
 22 23  1  0
 22 44  1  0
 22 45  1  0
M  CHG  1   1  -1
M  END
>  <i_m_ct_stereo_status>  (208) 
1

>  <s_m_source_file>  (208) 
/var/tmp/pbs.5076255.sched01/tmpkddd28mm/459jwin2qj.sdf

>  <i_m_source_file_index>  (208) 
45

>  <i_lp_mmshare_version>  (208) 
48012

>  <i_f3d_flags>  (208) 
0

>  <s_epik_input>  (208) 
Tz1DMS9bQ0hdPUMoL1tDSDJdW0NIMl0yKU4zW0NIXShbQ0gyXTQpW0NIXTNbQ0BASF0yW0NIMl1bQ0BIXTRDKFtDQF0xNTYpPVtDSF1bQ0BASF03W0NASF0oW0NIMl02KVtDQEhdKFtPSF0pW0NASF01W0NIMl03

>  <s_epik_cmdline>  (208) 
J2VwaWtfcHl0aG9uJywgJy1waHQnLCAnMi4wJywgJy1waCcsICc3LjAnLCAnLXRuJywgJzgnLCAnLW1hJywgJzIwMCcsICctaW1hZScsICc8aW5maWxlLm1hZT4nLCAnLW9tYWUnLCAnPG91dGZpbGUubWFlPic=

>  <r_epik_Ionization_Penalty>  (208) 
1.83585

>  <r_epik_Ionization_Penalty_Charging>  (208) 
1.47737

>  <r_epik_Ionization_Penalty_Neutral>  (208) 
0.358476

>  <r_epik_State_Penalty>  (208) 
2.28335

>  <r_epik_Charging_Adjusted_Penalty>  (208) 
3.76072

>  <i_epik_Tot_Q>  (208) 
-1

>  <i_epik_Tot_abs_Q>  (208) 
1

>  <s_epik_Chemistry_Notes>  (208) 
This compound has an imine and may undergo hydrolysis.

>  <s_lp_Force_Field>  (208) 
OPLS3e

>  <r_lp_Energy>  (208) 
401.19

>  <b_lp_Chiralities_Consistent>  (208) 
1

>  <s_lp_Variant>  (208) 
62:0-9

>  <s_i_glide_gridfile>  (208) 
pfpi4k_grid

>  <i_i_glide_lignum>  (208) 
45

>  <i_i_glide_rotatable_bonds>  (208) 
1

>  <r_i_docking_score>  (208) 
-3.00632

>  <r_i_glide_ligand_efficiency>  (208) 
-0.13071

>  <r_i_glide_ligand_efficiency_sa>  (208) 
-0.37172

>  <r_i_glide_ligand_efficiency_ln>  (208) 
-0.726955

>  <r_i_glide_gscore>  (208) 
-3.00632

>  <r_i_glide_lipo>  (208) 
-0.260123

>  <r_i_glide_hbond>  (208) 
-0.220408

>  <r_i_glide_metal>  (208) 
-0

>  <r_i_glide_rewards>  (208) 
-1.31311

>  <r_i_glide_evdw>  (208) 
-18.0371

>  <r_i_glide_ecoul>  (208) 
-2.07217

>  <r_i_glide_erotb>  (208) 
0

>  <r_i_glide_esite>  (208) 
0

>  <r_i_glide_emodel>  (208) 
-25.4736

>  <r_i_glide_energy>  (208) 
-20.1093

>  <r_i_glide_einternal>  (208) 
1.3442

>  <r_i_glide_intrahb_reward>  (208) 
-0

>  <i_i_glide_confnum>  (208) 
1

>  <i_i_glide_posenum>  (208) 
23

>  <r_i_glide_eff_state_penalty>  (208) 
0

>  <ligand_id>  (208) 
62

>  <original_smiles>  (208) 
O=C1C=C2CCC3CC(CC4C3N24)C2=CC3CC4C(O)C3CC124

>  <smiles>  (208) 
[H]OC1([H])C2([H])C([H])([H])C34C([O-])=C([H])C5=C([H])C([H])([H])C6([H])C([H])([H])C([H])(C3=C([H])C2([H])C([H])([H])C14[H])C([H])([H])C1([H])N5C16[H]

$$$$
62:8:2
     RDKit          3D

 45 51  0  0  1  0  0  0  0  0999 V2000
    1.8747   -5.2933    0.1164 O   0  0  0  0  0  0  0  0  0  0  0  0
    2.5292   -4.2739   -0.1696 C   0  0  0  0  0  0  0  0  0  0  0  0
    2.1802   -3.6826   -1.4598 C   0  0  0  0  0  0  0  0  0  0  0  0
    2.8086   -2.6519   -2.3595 C   0  0  0  0  0  0  0  0  0  0  0  0
    3.4600   -3.2322   -3.4081 C   0  0  0  0  0  0  0  0  0  0  0  0
    4.9865   -3.1750   -3.3244 C   0  0  0  0  0  0  0  0  0  0  0  0
    5.2101   -3.2191   -1.7991 C   0  0  1  0  0  0  0  0  0  0  0  0
    6.5084   -2.9658   -1.0077 C   0  0  0  0  0  0  0  0  0  0  0  0
    6.0196   -2.4743    0.4262 C   0  0  2  0  0  0  0  0  0  0  0  0
    5.3723   -1.0106    0.0707 C   0  0  0  0  0  0  0  0  0  0  0  0
    4.6786   -0.8663   -1.3333 C   0  0  1  0  0  0  0  0  0  0  0  0
    4.2966   -2.1748   -1.1922 C   0  0  1  0  0  0  0  0  0  0  0  0
    3.3504   -1.4587   -1.8401 N   0  0  0  0  0  0  0  0  0  0  0  0
    4.9589   -3.1447    1.3993 C   0  0  0  0  0  0  0  0  0  0  0  0
    5.3115   -3.0491    2.6917 C   0  0  0  0  0  0  0  0  0  0  0  0
    4.3288   -3.5508    3.7068 C   0  0  1  0  0  0  0  0  0  0  0  0
    3.1185   -2.6572    3.3865 C   0  0  0  0  0  0  0  0  0  0  0  0
    2.4781   -3.5795    2.3483 C   0  0  2  0  0  0  0  0  0  0  0  0
    2.3117   -4.7731    3.3237 C   0  0  1  0  0  0  0  0  0  0  0  0
    1.4969   -5.8605    2.9305 O   0  0  0  0  0  0  0  0  0  0  0  0
    3.8080   -5.0013    3.3456 C   0  0  1  0  0  0  0  0  0  0  0  0
    4.0531   -5.3083    1.8477 C   0  0  0  0  0  0  0  0  0  0  0  0
    3.5375   -3.9815    1.1795 C   0  0  1  0  0  0  0  0  0  0  0  0
    1.4084   -4.2310   -1.9851 H   0  0  0  0  0  0  0  0  0  0  0  0
    3.1175   -4.2030   -3.7420 H   0  0  0  0  0  0  0  0  0  0  0  0
    5.4192   -4.0494   -3.8096 H   0  0  0  0  0  0  0  0  0  0  0  0
    5.3551   -2.2634   -3.7891 H   0  0  0  0  0  0  0  0  0  0  0  0
    4.8552   -4.2046   -1.4973 H   0  0  0  0  0  0  0  0  0  0  0  0
    7.1334   -3.8613   -0.9918 H   0  0  0  0  0  0  0  0  0  0  0  0
    7.1105   -2.1900   -1.4871 H   0  0  0  0  0  0  0  0  0  0  0  0
    5.7216   -3.5221    0.3358 H   0  0  0  0  0  0  0  0  0  0  0  0
    4.7082   -0.6743    0.8695 H   0  0  0  0  0  0  0  0  0  0  0  0
    6.1883   -0.2920    0.0977 H   0  0  0  0  0  0  0  0  0  0  0  0
    5.2800   -0.5979   -2.1911 H   0  0  0  0  0  0  0  0  0  0  0  0
    3.7025   -2.3035   -0.3139 H   0  0  0  0  0  0  0  0  0  0  0  0
    6.2019   -2.5383    3.0139 H   0  0  0  0  0  0  0  0  0  0  0  0
    4.6835   -3.4315    4.7291 H   0  0  0  0  0  0  0  0  0  0  0  0
    2.4800   -2.4829    4.2540 H   0  0  0  0  0  0  0  0  0  0  0  0
    3.3600   -1.6686    2.9906 H   0  0  0  0  0  0  0  0  0  0  0  0
    1.5362   -3.1696    1.9948 H   0  0  0  0  0  0  0  0  0  0  0  0
    1.9294   -4.5023    4.3103 H   0  0  0  0  0  0  0  0  0  0  0  0
    1.7041   -6.6050    3.4719 H   0  0  0  0  0  0  0  0  0  0  0  0
    4.1435   -5.7822    4.0288 H   0  0  0  0  0  0  0  0  0  0  0  0
    5.1061   -5.5151    1.6406 H   0  0  0  0  0  0  0  0  0  0  0  0
    3.5532   -6.2301    1.5530 H   0  0  0  0  0  0  0  0  0  0  0  0
  1  2  1  0
 23  2  1  6
  2  3  2  0
  3  4  1  0
  3 24  1  0
  4 13  1  0
  4  5  2  0
  5  6  1  0
  5 25  1  0
  6  7  1  0
  6 26  1  0
  6 27  1  0
  7 12  1  0
  7  8  1  0
  7 28  1  1
  8  9  1  0
  8 29  1  0
  8 30  1  0
  9 10  1  0
  9 14  1  0
  9 31  1  1
 10 11  1  0
 10 32  1  0
 10 33  1  0
 11 13  1  0
 11 12  1  0
 11 34  1  6
 12 13  1  0
 12 35  1  1
 14 23  1  0
 14 15  2  0
 15 16  1  0
 15 36  1  0
 16 21  1  0
 16 17  1  0
 16 37  1  1
 17 18  1  0
 17 38  1  0
 17 39  1  0
 18 23  1  0
 18 19  1  0
 18 40  1  6
 19 20  1  0
 19 21  1  0
 19 41  1  1
 20 42  1  0
 21 22  1  0
 21 43  1  1
 22 23  1  0
 22 44  1  0
 22 45  1  0
M  CHG  1   1  -1
M  END
>  <i_m_ct_stereo_status>  (209) 
1

>  <s_m_source_file>  (209) 
/var/tmp/pbs.5076255.sched01/tmpkddd28mm/459jwin2qj.sdf

>  <i_m_source_file_index>  (209) 
45

>  <i_lp_mmshare_version>  (209) 
48012

>  <i_f3d_flags>  (209) 
0

>  <s_epik_input>  (209) 
Tz1DMS9bQ0hdPUMoL1tDSDJdW0NIMl0yKU4zW0NIXShbQ0gyXTQpW0NIXTNbQ0BASF0yW0NIMl1bQ0BIXTRDKFtDQF0xNTYpPVtDSF1bQ0BASF03W0NASF0oW0NIMl02KVtDQEhdKFtPSF0pW0NASF01W0NIMl03

>  <s_epik_cmdline>  (209) 
J2VwaWtfcHl0aG9uJywgJy1waHQnLCAnMi4wJywgJy1waCcsICc3LjAnLCAnLXRuJywgJzgnLCAnLW1hJywgJzIwMCcsICctaW1hZScsICc8aW5maWxlLm1hZT4nLCAnLW9tYWUnLCAnPG91dGZpbGUubWFlPic=

>  <r_epik_Ionization_Penalty>  (209) 
1.83585

>  <r_epik_Ionization_Penalty_Charging>  (209) 
1.47737

>  <r_epik_Ionization_Penalty_Neutral>  (209) 
0.358476

>  <r_epik_State_Penalty>  (209) 
2.28335

>  <r_epik_Charging_Adjusted_Penalty>  (209) 
3.76072

>  <i_epik_Tot_Q>  (209) 
-1

>  <i_epik_Tot_abs_Q>  (209) 
1

>  <s_epik_Chemistry_Notes>  (209) 
This compound has an imine and may undergo hydrolysis.

>  <s_lp_Force_Field>  (209) 
OPLS3e

>  <r_lp_Energy>  (209) 
401.19

>  <b_lp_Chiralities_Consistent>  (209) 
1

>  <s_lp_Variant>  (209) 
62:0-9

>  <s_i_glide_gridfile>  (209) 
pfpi4k_grid

>  <i_i_glide_lignum>  (209) 
45

>  <i_i_glide_rotatable_bonds>  (209) 
1

>  <r_i_docking_score>  (209) 
-2.74296

>  <r_i_glide_ligand_efficiency>  (209) 
-0.119259

>  <r_i_glide_ligand_efficiency_sa>  (209) 
-0.339157

>  <r_i_glide_ligand_efficiency_ln>  (209) 
-0.663272

>  <r_i_glide_gscore>  (209) 
-2.74296

>  <r_i_glide_lipo>  (209) 
-0.694979

>  <r_i_glide_hbond>  (209) 
-0.0856496

>  <r_i_glide_metal>  (209) 
-0

>  <r_i_glide_rewards>  (209) 
-1.3064

>  <r_i_glide_evdw>  (209) 
-21.5968

>  <r_i_glide_ecoul>  (209) 
3.46742

>  <r_i_glide_erotb>  (209) 
0

>  <r_i_glide_esite>  (209) 
-0.0962007

>  <r_i_glide_emodel>  (209) 
-23.4607

>  <r_i_glide_energy>  (209) 
-18.1293

>  <r_i_glide_einternal>  (209) 
0.366139

>  <r_i_glide_intrahb_reward>  (209) 
-0

>  <i_i_glide_confnum>  (209) 
2

>  <i_i_glide_posenum>  (209) 
10

>  <r_i_glide_eff_state_penalty>  (209) 
0

>  <ligand_id>  (209) 
62

>  <original_smiles>  (209) 
O=C1C=C2CCC3CC(CC4C3N24)C2=CC3CC4C(O)C3CC124

>  <smiles>  (209) 
[H]OC1([H])C2([H])C([H])([H])C34C([O-])=C([H])C5=C([H])C([H])([H])C6([H])C([H])([H])C([H])(C3=C([H])C2([H])C([H])([H])C14[H])C([H])([H])C1([H])N5C16[H]

$$$$
62:9:0
     RDKit          3D

 46 52  0  0  1  0  0  0  0  0999 V2000
    5.2476   -1.9075    3.0018 O   0  0  0  0  0  0  0  0  0  0  0  0
    4.6530   -2.9448    2.6314 C   0  0  0  0  0  0  0  0  0  0  0  0
    3.9021   -3.7485    3.4742 C   0  0  0  0  0  0  0  0  0  0  0  0
    3.3314   -5.0068    3.0784 C   0  0  0  0  0  0  0  0  0  0  0  0
    2.4803   -5.2088    2.0569 C   0  0  0  0  0  0  0  0  0  0  0  0
    2.2094   -6.6028    1.5434 C   0  0  0  0  0  0  0  0  0  0  0  0
    3.4610   -7.4958    1.7332 C   0  0  1  0  0  0  0  0  0  0  0  0
    4.6140   -7.1733    0.7517 C   0  0  0  0  0  0  0  0  0  0  0  0
    5.4846   -5.9260    1.0961 C   0  0  2  0  0  0  0  0  0  0  0  0
    6.0635   -5.9548    2.5298 C   0  0  0  0  0  0  0  0  0  0  0  0
    5.2008   -6.6803    3.5619 C   0  0  2  0  0  0  0  0  0  0  0  0
    3.9875   -7.4890    3.1613 C   0  0  1  0  0  0  0  0  0  0  0  0
    3.8592   -6.1821    3.8093 N   0  0  2  0  0  0  0  0  0  0  0  0
    5.0202   -4.5983    0.4440 C   0  0  0  0  0  0  0  0  0  0  0  0
    4.9901   -4.5552   -0.9072 C   0  0  0  0  0  0  0  0  0  0  0  0
    4.6417   -3.2283   -1.5528 C   0  0  1  0  0  0  0  0  0  0  0  0
    3.2402   -3.0066   -0.9694 C   0  0  0  0  0  0  0  0  0  0  0  0
    3.6867   -2.3155    0.3324 C   0  0  2  0  0  0  0  0  0  0  0  0
    4.3682   -1.1330   -0.3677 C   0  0  1  0  0  0  0  0  0  0  0  0
    4.7561   -0.0666    0.4839 O   0  0  0  0  0  0  0  0  0  0  0  0
    5.4715   -2.0334   -0.9119 C   0  0  1  0  0  0  0  0  0  0  0  0
    6.1002   -2.4853    0.4301 C   0  0  0  0  0  0  0  0  0  0  0  0
    4.8455   -3.1621    1.0809 C   0  0  1  0  0  0  0  0  0  0  0  0
    3.8179   -3.4576    4.5119 H   0  0  0  0  0  0  0  0  0  0  0  0
    2.0852   -4.3739    1.4916 H   0  0  0  0  0  0  0  0  0  0  0  0
    1.3520   -7.0224    2.0680 H   0  0  0  0  0  0  0  0  0  0  0  0
    1.9498   -6.5436    0.4869 H   0  0  0  0  0  0  0  0  0  0  0  0
    3.1500   -8.5204    1.5173 H   0  0  0  0  0  0  0  0  0  0  0  0
    5.2821   -8.0361    0.7520 H   0  0  0  0  0  0  0  0  0  0  0  0
    4.2249   -7.1156   -0.2671 H   0  0  0  0  0  0  0  0  0  0  0  0
    6.3822   -6.0955    0.5030 H   0  0  0  0  0  0  0  0  0  0  0  0
    6.9645   -6.5661    2.4711 H   0  0  0  0  0  0  0  0  0  0  0  0
    6.4074   -4.9812    2.8906 H   0  0  0  0  0  0  0  0  0  0  0  0
    5.6570   -6.8875    4.5248 H   0  0  0  0  0  0  0  0  0  0  0  0
    3.6218   -8.2583    3.8410 H   0  0  0  0  0  0  0  0  0  0  0  0
    5.1470   -5.4164   -1.5353 H   0  0  0  0  0  0  0  0  0  0  0  0
    4.6557   -3.2695   -2.6439 H   0  0  0  0  0  0  0  0  0  0  0  0
    2.6196   -2.3695   -1.6061 H   0  0  0  0  0  0  0  0  0  0  0  0
    2.6667   -3.9218   -0.8064 H   0  0  0  0  0  0  0  0  0  0  0  0
    2.8447   -2.0222    0.9593 H   0  0  0  0  0  0  0  0  0  0  0  0
    3.7825   -0.6674   -1.1632 H   0  0  0  0  0  0  0  0  0  0  0  0
    5.0145    0.6751   -0.0476 H   0  0  0  0  0  0  0  0  0  0  0  0
    6.1695   -1.5464   -1.5925 H   0  0  0  0  0  0  0  0  0  0  0  0
    6.9400   -3.1674    0.2830 H   0  0  0  0  0  0  0  0  0  0  0  0
    6.5333   -1.6449    0.9675 H   0  0  0  0  0  0  0  0  0  0  0  0
    3.5846   -6.2463    4.7766 H   0  0  0  0  0  0  0  0  0  0  0  0
  1  2  1  0
 23  2  1  1
  2  3  2  0
  3  4  1  0
  3 24  1  0
  4 13  1  0
  4  5  2  0
  5  6  1  0
  5 25  1  0
  6  7  1  0
  6 26  1  0
  6 27  1  0
  7 12  1  0
  7  8  1  0
  7 28  1  6
  8  9  1  0
  8 29  1  0
  8 30  1  0
  9 10  1  0
  9 14  1  0
  9 31  1  6
 10 11  1  0
 10 32  1  0
 10 33  1  0
 11 13  1  0
 11 12  1  0
 11 34  1  1
 12 13  1  0
 12 35  1  1
 13 46  1  1
 14 23  1  0
 14 15  2  0
 15 16  1  0
 15 36  1  0
 16 21  1  0
 16 17  1  0
 16 37  1  6
 17 18  1  0
 17 38  1  0
 17 39  1  0
 18 23  1  0
 18 19  1  0
 18 40  1  1
 19 20  1  0
 19 21  1  0
 19 41  1  6
 20 42  1  0
 21 22  1  0
 21 43  1  6
 22 23  1  0
 22 44  1  0
 22 45  1  0
M  CHG  2   1  -1  13   1
M  END
>  <i_m_ct_stereo_status>  (210) 
1

>  <s_m_source_file>  (210) 
/var/tmp/pbs.5076255.sched01/tmp0pz6dnip/90w4u7_w6b.sdf

>  <i_m_source_file_index>  (210) 
1

>  <i_lp_mmshare_version>  (210) 
48012

>  <i_f3d_flags>  (210) 
0

>  <s_epik_input>  (210) 
Tz1DMS9bQ0hdPUMoL1tDSDJdW0NIMl0yKU4zW0NIXShbQ0gyXTQpW0NIXTNbQ0BASF0yW0NIMl1bQ0BIXTRDKFtDQF0xNTYpPVtDSF1bQ0BASF03W0NASF0oW0NIMl02KVtDQEhdKFtPSF0pW0NASF01W0NIMl03

>  <s_epik_cmdline>  (210) 
J2VwaWtfcHl0aG9uJywgJy1waHQnLCAnMi4wJywgJy1waCcsICc3LjAnLCAnLXRuJywgJzgnLCAnLW1hJywgJzIwMCcsICctaW1hZScsICc8aW5maWxlLm1hZT4nLCAnLW9tYWUnLCAnPG91dGZpbGUubWFlPic=

>  <r_epik_Ionization_Penalty>  (210) 
1.20153

>  <r_epik_Ionization_Penalty_Charging>  (210) 
1.20153

>  <r_epik_Ionization_Penalty_Neutral>  (210) 
1.41829e-06

>  <r_epik_State_Penalty>  (210) 
2.38859

>  <r_epik_Charging_Adjusted_Penalty>  (210) 
3.59012

>  <i_epik_Tot_Q>  (210) 
0

>  <i_epik_Tot_abs_Q>  (210) 
2

>  <s_lp_Force_Field>  (210) 
OPLS3e

>  <r_lp_Energy>  (210) 
127.991

>  <b_lp_Chiralities_Consistent>  (210) 
1

>  <s_lp_Variant>  (210) 
62:0-10

>  <s_i_glide_gridfile>  (210) 
pfpi4k_grid

>  <i_i_glide_lignum>  (210) 
1

>  <i_i_glide_rotatable_bonds>  (210) 
1

>  <r_i_docking_score>  (210) 
-3.31934

>  <r_i_glide_ligand_efficiency>  (210) 
-0.144319

>  <r_i_glide_ligand_efficiency_sa>  (210) 
-0.410424

>  <r_i_glide_ligand_efficiency_ln>  (210) 
-0.802646

>  <r_i_glide_gscore>  (210) 
-3.31934

>  <r_i_glide_lipo>  (210) 
-0.431991

>  <r_i_glide_hbond>  (210) 
0

>  <r_i_glide_metal>  (210) 
-0

>  <r_i_glide_rewards>  (210) 
-1.29953

>  <r_i_glide_evdw>  (210) 
-20.9645

>  <r_i_glide_ecoul>  (210) 
-3.59726

>  <r_i_glide_erotb>  (210) 
0

>  <r_i_glide_esite>  (210) 
0

>  <r_i_glide_emodel>  (210) 
-30.1449

>  <r_i_glide_energy>  (210) 
-24.5618

>  <r_i_glide_einternal>  (210) 
0.519999

>  <r_i_glide_intrahb_reward>  (210) 
-0

>  <i_i_glide_confnum>  (210) 
1

>  <i_i_glide_posenum>  (210) 
26

>  <r_i_glide_eff_state_penalty>  (210) 
0

>  <ligand_id>  (210) 
62

>  <original_smiles>  (210) 
O=C1C=C2CCC3CC(CC4C3N24)C2=CC3CC4C(O)C3CC124

>  <smiles>  (210) 
[H]OC1([H])C2([H])C([H])([H])C34C([O-])=C([H])C5=C([H])C([H])([H])C6([H])C([H])([H])C([H])(C3=C([H])C2([H])C([H])([H])C14[H])C([H])([H])C1([H])C6([H])[N+]51[H]

$$$$
62:9:1
     RDKit          3D

 46 52  0  0  1  0  0  0  0  0999 V2000
    6.6317   -1.4997    0.0134 O   0  0  0  0  0  0  0  0  0  0  0  0
    5.5328   -1.4053    0.6045 C   0  0  0  0  0  0  0  0  0  0  0  0
    5.0627   -0.2436    1.1524 C   0  0  0  0  0  0  0  0  0  0  0  0
    3.8494   -0.1158    1.9131 C   0  0  0  0  0  0  0  0  0  0  0  0
    2.6217   -0.4489    1.5049 C   0  0  0  0  0  0  0  0  0  0  0  0
    1.4847   -0.5884    2.4864 C   0  0  0  0  0  0  0  0  0  0  0  0
    2.0274   -1.0419    3.8666 C   0  0  1  0  0  0  0  0  0  0  0  0
    2.4837   -2.5229    3.9017 C   0  0  0  0  0  0  0  0  0  0  0  0
    3.8757   -2.8317    3.2773 C   0  0  2  0  0  0  0  0  0  0  0  0
    5.0128   -1.9659    3.8435 C   0  0  0  0  0  0  0  0  0  0  0  0
    4.5948   -0.5606    4.3046 C   0  0  2  0  0  0  0  0  0  0  0  0
    3.1497   -0.1525    4.3851 C   0  0  1  0  0  0  0  0  0  0  0  0
    4.0243    0.3259    3.3088 N   0  0  2  0  0  0  0  0  0  0  0  0
    3.8457   -3.2395    1.7822 C   0  0  0  0  0  0  0  0  0  0  0  0
    3.1387   -4.3503    1.4649 C   0  0  0  0  0  0  0  0  0  0  0  0
    3.2050   -4.8015    0.0215 C   0  0  1  0  0  0  0  0  0  0  0  0
    2.6347   -3.5660   -0.6920 C   0  0  0  0  0  0  0  0  0  0  0  0
    3.9550   -2.7963   -0.8294 C   0  0  2  0  0  0  0  0  0  0  0  0
    4.6503   -3.8546   -1.6954 C   0  0  1  0  0  0  0  0  0  0  0  0
    5.8623   -3.4398   -2.2903 O   0  0  0  0  0  0  0  0  0  0  0  0
    4.7009   -4.8314   -0.5222 C   0  0  1  0  0  0  0  0  0  0  0  0
    5.6261   -4.0412    0.4199 C   0  0  0  0  0  0  0  0  0  0  0  0
    4.7529   -2.7529    0.5757 C   0  0  1  0  0  0  0  0  0  0  0  0
    5.6964    0.6207    1.0037 H   0  0  0  0  0  0  0  0  0  0  0  0
    2.4442   -0.7651    0.4771 H   0  0  0  0  0  0  0  0  0  0  0  0
    0.9572    0.3584    2.5674 H   0  0  0  0  0  0  0  0  0  0  0  0
    0.7851   -1.3251    2.1022 H   0  0  0  0  0  0  0  0  0  0  0  0
    1.2036   -0.9541    4.5739 H   0  0  0  0  0  0  0  0  0  0  0  0
    2.5378   -2.8266    4.9515 H   0  0  0  0  0  0  0  0  0  0  0  0
    1.7086   -3.1524    3.4730 H   0  0  0  0  0  0  0  0  0  0  0  0
    4.1207   -3.8054    3.7065 H   0  0  0  0  0  0  0  0  0  0  0  0
    5.3392   -2.4545    4.7548 H   0  0  0  0  0  0  0  0  0  0  0  0
    5.9008   -1.9347    3.2116 H   0  0  0  0  0  0  0  0  0  0  0  0
    5.3239    0.0090    4.8750 H   0  0  0  0  0  0  0  0  0  0  0  0
    2.8828    0.6864    5.0187 H   0  0  0  0  0  0  0  0  0  0  0  0
    2.5318   -4.9045    2.1592 H   0  0  0  0  0  0  0  0  0  0  0  0
    2.6368   -5.7009   -0.1649 H   0  0  0  0  0  0  0  0  0  0  0  0
    2.1804   -3.8157   -1.6540 H   0  0  0  0  0  0  0  0  0  0  0  0
    1.8774   -3.0299   -0.1224 H   0  0  0  0  0  0  0  0  0  0  0  0
    3.8322   -1.8309   -1.3266 H   0  0  0  0  0  0  0  0  0  0  0  0
    4.0522   -4.2317   -2.5267 H   0  0  0  0  0  0  0  0  0  0  0  0
    6.2483   -4.1800   -2.7309 H   0  0  0  0  0  0  0  0  0  0  0  0
    5.0677   -5.8246   -0.7749 H   0  0  0  0  0  0  0  0  0  0  0  0
    5.8065   -4.5602    1.3598 H   0  0  0  0  0  0  0  0  0  0  0  0
    6.6101   -3.9060   -0.0175 H   0  0  0  0  0  0  0  0  0  0  0  0
    4.2867    1.2794    3.4329 H   0  0  0  0  0  0  0  0  0  0  0  0
  1  2  1  0
 23  2  1  1
  2  3  2  0
  3  4  1  0
  3 24  1  0
  4 13  1  0
  4  5  2  0
  5  6  1  0
  5 25  1  0
  6  7  1  0
  6 26  1  0
  6 27  1  0
  7 12  1  0
  7  8  1  0
  7 28  1  1
  8  9  1  0
  8 29  1  0
  8 30  1  0
  9 10  1  0
  9 14  1  0
  9 31  1  1
 10 11  1  0
 10 32  1  0
 10 33  1  0
 11 13  1  0
 11 12  1  0
 11 34  1  1
 12 13  1  0
 12 35  1  1
 13 46  1  6
 14 23  1  0
 14 15  2  0
 15 16  1  0
 15 36  1  0
 16 21  1  0
 16 17  1  0
 16 37  1  1
 17 18  1  0
 17 38  1  0
 17 39  1  0
 18 23  1  0
 18 19  1  0
 18 40  1  6
 19 20  1  0
 19 21  1  0
 19 41  1  6
 20 42  1  0
 21 22  1  0
 21 43  1  6
 22 23  1  0
 22 44  1  0
 22 45  1  0
M  CHG  2   1  -1  13   1
M  END
>  <i_m_ct_stereo_status>  (211) 
1

>  <s_m_source_file>  (211) 
/var/tmp/pbs.5076255.sched01/tmp0pz6dnip/90w4u7_w6b.sdf

>  <i_m_source_file_index>  (211) 
1

>  <i_lp_mmshare_version>  (211) 
48012

>  <i_f3d_flags>  (211) 
0

>  <s_epik_input>  (211) 
Tz1DMS9bQ0hdPUMoL1tDSDJdW0NIMl0yKU4zW0NIXShbQ0gyXTQpW0NIXTNbQ0BASF0yW0NIMl1bQ0BIXTRDKFtDQF0xNTYpPVtDSF1bQ0BASF03W0NASF0oW0NIMl02KVtDQEhdKFtPSF0pW0NASF01W0NIMl03

>  <s_epik_cmdline>  (211) 
J2VwaWtfcHl0aG9uJywgJy1waHQnLCAnMi4wJywgJy1waCcsICc3LjAnLCAnLXRuJywgJzgnLCAnLW1hJywgJzIwMCcsICctaW1hZScsICc8aW5maWxlLm1hZT4nLCAnLW9tYWUnLCAnPG91dGZpbGUubWFlPic=

>  <r_epik_Ionization_Penalty>  (211) 
1.20153

>  <r_epik_Ionization_Penalty_Charging>  (211) 
1.20153

>  <r_epik_Ionization_Penalty_Neutral>  (211) 
1.41829e-06

>  <r_epik_State_Penalty>  (211) 
2.38859

>  <r_epik_Charging_Adjusted_Penalty>  (211) 
3.59012

>  <i_epik_Tot_Q>  (211) 
0

>  <i_epik_Tot_abs_Q>  (211) 
2

>  <s_lp_Force_Field>  (211) 
OPLS3e

>  <r_lp_Energy>  (211) 
127.991

>  <b_lp_Chiralities_Consistent>  (211) 
1

>  <s_lp_Variant>  (211) 
62:0-10

>  <s_i_glide_gridfile>  (211) 
pfpi4k_grid

>  <i_i_glide_lignum>  (211) 
1

>  <i_i_glide_rotatable_bonds>  (211) 
1

>  <r_i_docking_score>  (211) 
-3.2796

>  <r_i_glide_ligand_efficiency>  (211) 
-0.142591

>  <r_i_glide_ligand_efficiency_sa>  (211) 
-0.405511

>  <r_i_glide_ligand_efficiency_ln>  (211) 
-0.793037

>  <r_i_glide_gscore>  (211) 
-3.2796

>  <r_i_glide_lipo>  (211) 
-0.474659

>  <r_i_glide_hbond>  (211) 
-0.0722604

>  <r_i_glide_metal>  (211) 
-0

>  <r_i_glide_rewards>  (211) 
-1.29953

>  <r_i_glide_evdw>  (211) 
-19.6924

>  <r_i_glide_ecoul>  (211) 
-2.95791

>  <r_i_glide_erotb>  (211) 
0

>  <r_i_glide_esite>  (211) 
-0.00484322

>  <r_i_glide_emodel>  (211) 
-28.2883

>  <r_i_glide_energy>  (211) 
-22.6503

>  <r_i_glide_einternal>  (211) 
0.306344

>  <r_i_glide_intrahb_reward>  (211) 
-0

>  <i_i_glide_confnum>  (211) 
1

>  <i_i_glide_posenum>  (211) 
12

>  <r_i_glide_eff_state_penalty>  (211) 
0

>  <ligand_id>  (211) 
62

>  <original_smiles>  (211) 
O=C1C=C2CCC3CC(CC4C3N24)C2=CC3CC4C(O)C3CC124

>  <smiles>  (211) 
[H]OC1([H])C2([H])C([H])([H])C34C([O-])=C([H])C5=C([H])C([H])([H])C6([H])C([H])([H])C([H])(C3=C([H])C2([H])C([H])([H])C14[H])C([H])([H])C1([H])C6([H])[N+]51[H]

$$$$
62:9:2
     RDKit          3D

 46 52  0  0  1  0  0  0  0  0999 V2000
    5.0356   -2.3340    3.5620 O   0  0  0  0  0  0  0  0  0  0  0  0
    4.4859   -3.3462    3.0738 C   0  0  0  0  0  0  0  0  0  0  0  0
    3.7171   -4.2330    3.8092 C   0  0  0  0  0  0  0  0  0  0  0  0
    3.1718   -5.4501    3.2743 C   0  0  0  0  0  0  0  0  0  0  0  0
    2.3604   -5.5533    2.2083 C   0  0  0  0  0  0  0  0  0  0  0  0
    2.1206   -6.8907    1.5524 C   0  0  0  0  0  0  0  0  0  0  0  0
    3.3722   -7.7945    1.7033 C   0  0  1  0  0  0  0  0  0  0  0  0
    4.5604   -7.3777    0.8019 C   0  0  0  0  0  0  0  0  0  0  0  0
    5.4087   -6.1646    1.2955 C   0  0  2  0  0  0  0  0  0  0  0  0
    5.9301   -6.3269    2.7433 C   0  0  0  0  0  0  0  0  0  0  0  0
    5.0344   -7.1522    3.6673 C   0  0  2  0  0  0  0  0  0  0  0  0
    3.8426   -7.9237    3.1441 C   0  0  1  0  0  0  0  0  0  0  0  0
    3.6801   -6.6871    3.9097 N   0  0  2  0  0  0  0  0  0  0  0  0
    4.9549   -4.7844    0.7516 C   0  0  0  0  0  0  0  0  0  0  0  0
    4.9776   -4.6135   -0.5909 C   0  0  0  0  0  0  0  0  0  0  0  0
    4.6439   -3.2305   -1.1154 C   0  0  1  0  0  0  0  0  0  0  0  0
    3.2197   -3.0661   -0.5674 C   0  0  0  0  0  0  0  0  0  0  0  0
    3.6113   -2.5006    0.8121 C   0  0  2  0  0  0  0  0  0  0  0  0
    4.3146   -1.2509    0.2535 C   0  0  1  0  0  0  0  0  0  0  0  0
    4.6709   -0.2547    1.1901 O   0  0  0  0  0  0  0  0  0  0  0  0
    5.4420   -2.1005   -0.3280 C   0  0  1  0  0  0  0  0  0  0  0  0
    6.0185   -2.6757    0.9875 C   0  0  0  0  0  0  0  0  0  0  0  0
    4.7437   -3.4156    1.5174 C   0  0  1  0  0  0  0  0  0  0  0  0
    3.5892   -4.0389    4.8652 H   0  0  0  0  0  0  0  0  0  0  0  0
    1.9796   -4.6699    1.7089 H   0  0  0  0  0  0  0  0  0  0  0  0
    1.2470   -7.3623    1.9994 H   0  0  0  0  0  0  0  0  0  0  0  0
    1.8993   -6.7205    0.4994 H   0  0  0  0  0  0  0  0  0  0  0  0
    3.0760   -8.7947    1.3774 H   0  0  0  0  0  0  0  0  0  0  0  0
    5.2363   -8.2351    0.7483 H   0  0  0  0  0  0  0  0  0  0  0  0
    4.2113   -7.2244   -0.2219 H   0  0  0  0  0  0  0  0  0  0  0  0
    6.3298   -6.2721    0.7247 H   0  0  0  0  0  0  0  0  0  0  0  0
    6.8382   -6.9262    2.6618 H   0  0  0  0  0  0  0  0  0  0  0  0
    6.2523   -5.3900    3.2081 H   0  0  0  0  0  0  0  0  0  0  0  0
    5.4558   -7.4487    4.6221 H   0  0  0  0  0  0  0  0  0  0  0  0
    3.4565   -8.7555    3.7310 H   0  0  0  0  0  0  0  0  0  0  0  0
    5.1779   -5.4038   -1.2967 H   0  0  0  0  0  0  0  0  0  0  0  0
    4.7005   -3.1624   -2.2035 H   0  0  0  0  0  0  0  0  0  0  0  0
    2.6205   -2.3742   -1.1670 H   0  0  0  0  0  0  0  0  0  0  0  0
    2.6465   -3.9945   -0.5146 H   0  0  0  0  0  0  0  0  0  0  0  0
    2.7427   -2.2790    1.4316 H   0  0  0  0  0  0  0  0  0  0  0  0
    3.7567   -0.7207   -0.5219 H   0  0  0  0  0  0  0  0  0  0  0  0
    3.8728    0.1136    1.5453 H   0  0  0  0  0  0  0  0  0  0  0  0
    6.1623   -1.5418   -0.9251 H   0  0  0  0  0  0  0  0  0  0  0  0
    6.8694   -3.3357    0.8086 H   0  0  0  0  0  0  0  0  0  0  0  0
    6.4225   -1.8868    1.6186 H   0  0  0  0  0  0  0  0  0  0  0  0
    3.3685   -6.8450    4.8543 H   0  0  0  0  0  0  0  0  0  0  0  0
  1  2  1  0
 23  2  1  1
  2  3  2  0
  3  4  1  0
  3 24  1  0
  4 13  1  0
  4  5  2  0
  5  6  1  0
  5 25  1  0
  6  7  1  0
  6 26  1  0
  6 27  1  0
  7 12  1  0
  7  8  1  0
  7 28  1  6
  8  9  1  0
  8 29  1  0
  8 30  1  0
  9 10  1  0
  9 14  1  0
  9 31  1  6
 10 11  1  0
 10 32  1  0
 10 33  1  0
 11 13  1  0
 11 12  1  0
 11 34  1  1
 12 13  1  0
 12 35  1  1
 13 46  1  1
 14 23  1  0
 14 15  2  0
 15 16  1  0
 15 36  1  0
 16 21  1  0
 16 17  1  0
 16 37  1  6
 17 18  1  0
 17 38  1  0
 17 39  1  0
 18 23  1  0
 18 19  1  0
 18 40  1  1
 19 20  1  0
 19 21  1  0
 19 41  1  6
 20 42  1  0
 21 22  1  0
 21 43  1  6
 22 23  1  0
 22 44  1  0
 22 45  1  0
M  CHG  2   1  -1  13   1
M  END
>  <i_m_ct_stereo_status>  (212) 
1

>  <s_m_source_file>  (212) 
/var/tmp/pbs.5076255.sched01/tmp0pz6dnip/90w4u7_w6b.sdf

>  <i_m_source_file_index>  (212) 
1

>  <i_lp_mmshare_version>  (212) 
48012

>  <i_f3d_flags>  (212) 
0

>  <s_epik_input>  (212) 
Tz1DMS9bQ0hdPUMoL1tDSDJdW0NIMl0yKU4zW0NIXShbQ0gyXTQpW0NIXTNbQ0BASF0yW0NIMl1bQ0BIXTRDKFtDQF0xNTYpPVtDSF1bQ0BASF03W0NASF0oW0NIMl02KVtDQEhdKFtPSF0pW0NASF01W0NIMl03

>  <s_epik_cmdline>  (212) 
J2VwaWtfcHl0aG9uJywgJy1waHQnLCAnMi4wJywgJy1waCcsICc3LjAnLCAnLXRuJywgJzgnLCAnLW1hJywgJzIwMCcsICctaW1hZScsICc8aW5maWxlLm1hZT4nLCAnLW9tYWUnLCAnPG91dGZpbGUubWFlPic=

>  <r_epik_Ionization_Penalty>  (212) 
1.20153

>  <r_epik_Ionization_Penalty_Charging>  (212) 
1.20153

>  <r_epik_Ionization_Penalty_Neutral>  (212) 
1.41829e-06

>  <r_epik_State_Penalty>  (212) 
2.38859

>  <r_epik_Charging_Adjusted_Penalty>  (212) 
3.59012

>  <i_epik_Tot_Q>  (212) 
0

>  <i_epik_Tot_abs_Q>  (212) 
2

>  <s_lp_Force_Field>  (212) 
OPLS3e

>  <r_lp_Energy>  (212) 
127.991

>  <b_lp_Chiralities_Consistent>  (212) 
1

>  <s_lp_Variant>  (212) 
62:0-10

>  <s_i_glide_gridfile>  (212) 
pfpi4k_grid

>  <i_i_glide_lignum>  (212) 
1

>  <i_i_glide_rotatable_bonds>  (212) 
1

>  <r_i_docking_score>  (212) 
-2.97767

>  <r_i_glide_ligand_efficiency>  (212) 
-0.129464

>  <r_i_glide_ligand_efficiency_sa>  (212) 
-0.368178

>  <r_i_glide_ligand_efficiency_ln>  (212) 
-0.720028

>  <r_i_glide_gscore>  (212) 
-2.97767

>  <r_i_glide_lipo>  (212) 
-0.420522

>  <r_i_glide_hbond>  (212) 
0

>  <r_i_glide_metal>  (212) 
-0

>  <r_i_glide_rewards>  (212) 
-1.29953

>  <r_i_glide_evdw>  (212) 
-21.7374

>  <r_i_glide_ecoul>  (212) 
-1.13831

>  <r_i_glide_erotb>  (212) 
0

>  <r_i_glide_esite>  (212) 
0

>  <r_i_glide_emodel>  (212) 
-28.0195

>  <r_i_glide_energy>  (212) 
-22.8757

>  <r_i_glide_einternal>  (212) 
0.310305

>  <r_i_glide_intrahb_reward>  (212) 
-0

>  <i_i_glide_confnum>  (212) 
1

>  <i_i_glide_posenum>  (212) 
1

>  <r_i_glide_eff_state_penalty>  (212) 
0

>  <ligand_id>  (212) 
62

>  <original_smiles>  (212) 
O=C1C=C2CCC3CC(CC4C3N24)C2=CC3CC4C(O)C3CC124

>  <smiles>  (212) 
[H]OC1([H])C2([H])C([H])([H])C34C([O-])=C([H])C5=C([H])C([H])([H])C6([H])C([H])([H])C([H])(C3=C([H])C2([H])C([H])([H])C14[H])C([H])([H])C1([H])C6([H])[N+]51[H]

$$$$
62:10:0
     RDKit          3D

 46 52  0  0  1  0  0  0  0  0999 V2000
    1.8872   -5.2913    0.1754 O   0  0  0  0  0  0  0  0  0  0  0  0
    2.4002   -4.2475   -0.2915 C   0  0  0  0  0  0  0  0  0  0  0  0
    1.8124   -3.7969   -1.5415 C   0  0  0  0  0  0  0  0  0  0  0  0
    2.2355   -2.8578   -2.6464 C   0  0  0  0  0  0  0  0  0  0  0  0
    2.7962   -3.4557   -3.7282 C   0  0  0  0  0  0  0  0  0  0  0  0
    4.3096   -3.3350   -3.8154 C   0  0  0  0  0  0  0  0  0  0  0  0
    4.6977   -3.2356   -2.3297 C   0  0  1  0  0  0  0  0  0  0  0  0
    6.1035   -2.9501   -1.7820 C   0  0  0  0  0  0  0  0  0  0  0  0
    5.8421   -2.3350   -0.3553 C   0  0  2  0  0  0  0  0  0  0  0  0
    5.1524   -0.9157   -0.7399 C   0  0  0  0  0  0  0  0  0  0  0  0
    4.2676   -0.8727   -2.0486 C   0  0  1  0  0  0  0  0  0  0  0  0
    3.8512   -2.1150   -1.7141 C   0  0  1  0  0  0  0  0  0  0  0  0
    2.8301   -1.4904   -2.3080 N   0  0  1  0  0  0  0  0  0  0  0  0
    4.9443   -2.8909    0.8032 C   0  0  0  0  0  0  0  0  0  0  0  0
    5.4565   -2.6333    2.0289 C   0  0  0  0  0  0  0  0  0  0  0  0
    4.6158   -3.0249    3.2020 C   0  0  1  0  0  0  0  0  0  0  0  0
    3.3476   -2.2054    2.9210 C   0  0  0  0  0  0  0  0  0  0  0  0
    2.6194   -3.2594    2.0881 C   0  0  2  0  0  0  0  0  0  0  0  0
    2.6076   -4.3275    3.2107 C   0  0  1  0  0  0  0  0  0  0  0  0
    1.8422   -5.4999    3.0233 O   0  0  0  0  0  0  0  0  0  0  0  0
    4.1072   -4.5159    3.0912 C   0  0  1  0  0  0  0  0  0  0  0  0
    4.1984   -4.9935    1.6183 C   0  0  0  0  0  0  0  0  0  0  0  0
    3.5465   -3.7754    0.8647 C   0  0  1  0  0  0  0  0  0  0  0  0
    1.0131   -4.4204   -1.9032 H   0  0  0  0  0  0  0  0  0  0  0  0
    2.4713   -4.4688   -3.9485 H   0  0  0  0  0  0  0  0  0  0  0  0
    4.7559   -4.2230   -4.2741 H   0  0  0  0  0  0  0  0  0  0  0  0
    4.5594   -2.4210   -4.3592 H   0  0  0  0  0  0  0  0  0  0  0  0
    4.4107   -4.1877   -1.8813 H   0  0  0  0  0  0  0  0  0  0  0  0
    6.7018   -3.8588   -1.7615 H   0  0  0  0  0  0  0  0  0  0  0  0
    6.6500   -2.2464   -2.4173 H   0  0  0  0  0  0  0  0  0  0  0  0
    5.5509   -3.3846   -0.2960 H   0  0  0  0  0  0  0  0  0  0  0  0
    4.6440   -0.4540    0.1134 H   0  0  0  0  0  0  0  0  0  0  0  0
    5.9870   -0.2551   -0.9100 H   0  0  0  0  0  0  0  0  0  0  0  0
    4.7770   -0.6994   -3.0041 H   0  0  0  0  0  0  0  0  0  0  0  0
    3.3449   -2.1381   -0.7703 H   0  0  0  0  0  0  0  0  0  0  0  0
    6.3574   -2.0790    2.1883 H   0  0  0  0  0  0  0  0  0  0  0  0
    5.0821   -2.7697    4.1532 H   0  0  0  0  0  0  0  0  0  0  0  0
    2.8095   -1.9463    3.8336 H   0  0  0  0  0  0  0  0  0  0  0  0
    3.5190   -1.2687    2.3840 H   0  0  0  0  0  0  0  0  0  0  0  0
    1.6374   -2.9042    1.7883 H   0  0  0  0  0  0  0  0  0  0  0  0
    2.3098   -3.9431    4.1928 H   0  0  0  0  0  0  0  0  0  0  0  0
    2.0778   -5.8536    2.1722 H   0  0  0  0  0  0  0  0  0  0  0  0
    4.5417   -5.2000    3.8219 H   0  0  0  0  0  0  0  0  0  0  0  0
    5.2304   -5.1854    1.3279 H   0  0  0  0  0  0  0  0  0  0  0  0
    3.7323   -5.9699    1.5095 H   0  0  0  0  0  0  0  0  0  0  0  0
    2.2089   -1.1193   -1.5706 H   0  0  0  0  0  0  0  0  0  0  0  0
  1  2  1  0
 23  2  1  6
  2  3  2  0
  3  4  1  0
  3 24  1  0
  4 13  1  0
  4  5  2  0
  5  6  1  0
  5 25  1  0
  6  7  1  0
  6 26  1  0
  6 27  1  0
  7 12  1  0
  7  8  1  0
  7 28  1  1
  8  9  1  0
  8 29  1  0
  8 30  1  0
  9 10  1  0
  9 14  1  0
  9 31  1  1
 10 11  1  0
 10 32  1  0
 10 33  1  0
 11 13  1  0
 11 12  1  0
 11 34  1  6
 12 13  1  0
 12 35  1  1
 13 46  1  1
 14 23  1  0
 14 15  2  0
 15 16  1  0
 15 36  1  0
 16 21  1  0
 16 17  1  0
 16 37  1  1
 17 18  1  0
 17 38  1  0
 17 39  1  0
 18 23  1  0
 18 19  1  0
 18 40  1  6
 19 20  1  0
 19 21  1  0
 19 41  1  1
 20 42  1  0
 21 22  1  0
 21 43  1  1
 22 23  1  0
 22 44  1  0
 22 45  1  0
M  CHG  2   1  -1  13   1
M  END
>  <i_m_ct_stereo_status>  (213) 
1

>  <s_m_source_file>  (213) 
/var/tmp/pbs.5076255.sched01/tmp0pz6dnip/90w4u7_w6b.sdf

>  <i_m_source_file_index>  (213) 
2

>  <i_lp_mmshare_version>  (213) 
48012

>  <i_f3d_flags>  (213) 
0

>  <s_epik_input>  (213) 
Tz1DMS9bQ0hdPUMoL1tDSDJdW0NIMl0yKU4zW0NIXShbQ0gyXTQpW0NIXTNbQ0BASF0yW0NIMl1bQ0BIXTRDKFtDQF0xNTYpPVtDSF1bQ0BASF03W0NASF0oW0NIMl02KVtDQEhdKFtPSF0pW0NASF01W0NIMl03

>  <s_epik_cmdline>  (213) 
J2VwaWtfcHl0aG9uJywgJy1waHQnLCAnMi4wJywgJy1waCcsICc3LjAnLCAnLXRuJywgJzgnLCAnLW1hJywgJzIwMCcsICctaW1hZScsICc8aW5maWxlLm1hZT4nLCAnLW9tYWUnLCAnPG91dGZpbGUubWFlPic=

>  <r_epik_Ionization_Penalty>  (213) 
1.20153

>  <r_epik_Ionization_Penalty_Charging>  (213) 
1.20153

>  <r_epik_Ionization_Penalty_Neutral>  (213) 
1.41829e-06

>  <r_epik_State_Penalty>  (213) 
2.38859

>  <r_epik_Charging_Adjusted_Penalty>  (213) 
3.59012

>  <i_epik_Tot_Q>  (213) 
0

>  <i_epik_Tot_abs_Q>  (213) 
2

>  <s_lp_Force_Field>  (213) 
OPLS3e

>  <r_lp_Energy>  (213) 
397.254

>  <b_lp_Chiralities_Consistent>  (213) 
1

>  <s_lp_Variant>  (213) 
62:0-11

>  <s_i_glide_gridfile>  (213) 
pfpi4k_grid

>  <i_i_glide_lignum>  (213) 
2

>  <i_i_glide_rotatable_bonds>  (213) 
1

>  <r_i_docking_score>  (213) 
-4.38817

>  <r_i_glide_ligand_efficiency>  (213) 
-0.19079

>  <r_i_glide_ligand_efficiency_sa>  (213) 
-0.542582

>  <r_i_glide_ligand_efficiency_ln>  (213) 
-1.0611

>  <r_i_glide_gscore>  (213) 
-4.38817

>  <r_i_glide_lipo>  (213) 
-0.572019

>  <r_i_glide_hbond>  (213) 
-0.287229

>  <r_i_glide_metal>  (213) 
-0

>  <r_i_glide_rewards>  (213) 
-2.09953

>  <r_i_glide_evdw>  (213) 
-20.1856

>  <r_i_glide_ecoul>  (213) 
-2.27476

>  <r_i_glide_erotb>  (213) 
0

>  <r_i_glide_esite>  (213) 
-0.0789008

>  <r_i_glide_emodel>  (213) 
-36.6199

>  <r_i_glide_energy>  (213) 
-22.4603

>  <r_i_glide_einternal>  (213) 
0.167064

>  <r_i_glide_intrahb_reward>  (213) 
-0.5

>  <i_i_glide_confnum>  (213) 
2

>  <i_i_glide_posenum>  (213) 
1

>  <r_i_glide_eff_state_penalty>  (213) 
0

>  <ligand_id>  (213) 
62

>  <original_smiles>  (213) 
O=C1C=C2CCC3CC(CC4C3N24)C2=CC3CC4C(O)C3CC124

>  <smiles>  (213) 
[H]OC1([H])C2([H])C([H])([H])C34C([O-])=C([H])C5=C([H])C([H])([H])C6([H])C([H])([H])C([H])(C3=C([H])C2([H])C([H])([H])C14[H])C([H])([H])C1([H])C6([H])[N+]51[H]

$$$$
62:10:1
     RDKit          3D

 46 52  0  0  1  0  0  0  0  0999 V2000
    1.8725   -5.3610    0.1065 O   0  0  0  0  0  0  0  0  0  0  0  0
    2.4594   -4.3037   -0.1881 C   0  0  0  0  0  0  0  0  0  0  0  0
    2.0083   -3.7246   -1.4485 C   0  0  0  0  0  0  0  0  0  0  0  0
    2.5315   -2.6869   -2.4057 C   0  0  0  0  0  0  0  0  0  0  0  0
    3.1826   -3.1859   -3.4881 C   0  0  0  0  0  0  0  0  0  0  0  0
    4.6974   -3.0778   -3.4063 C   0  0  0  0  0  0  0  0  0  0  0  0
    4.9399   -3.1299   -1.8882 C   0  0  1  0  0  0  0  0  0  0  0  0
    6.2977   -2.9186   -1.2027 C   0  0  0  0  0  0  0  0  0  0  0  0
    5.9161   -2.4419    0.2490 C   0  0  2  0  0  0  0  0  0  0  0  0
    5.2775   -0.9736   -0.0546 C   0  0  0  0  0  0  0  0  0  0  0  0
    4.4920   -0.7975   -1.4198 C   0  0  1  0  0  0  0  0  0  0  0  0
    4.0415   -2.0629   -1.2403 C   0  0  1  0  0  0  0  0  0  0  0  0
    3.0762   -1.3750   -1.8670 N   0  0  1  0  0  0  0  0  0  0  0  0
    4.9132   -3.1102    1.2764 C   0  0  0  0  0  0  0  0  0  0  0  0
    5.3097   -2.9968    2.5454 C   0  0  0  0  0  0  0  0  0  0  0  0
    4.3676   -3.4928    3.6075 C   0  0  1  0  0  0  0  0  0  0  0  0
    3.1362   -2.6256    3.3033 C   0  0  0  0  0  0  0  0  0  0  0  0
    2.4792   -3.5742    2.3058 C   0  0  2  0  0  0  0  0  0  0  0  0
    2.3548   -4.7483    3.3063 C   0  0  1  0  0  0  0  0  0  0  0  0
    1.5449   -5.8472    2.9418 O   0  0  0  0  0  0  0  0  0  0  0  0
    3.8570   -4.9575    3.2926 C   0  0  1  0  0  0  0  0  0  0  0  0
    4.0681   -5.2841    1.7913 C   0  0  0  0  0  0  0  0  0  0  0  0
    3.5033   -3.9799    1.1099 C   0  0  1  0  0  0  0  0  0  0  0  0
    1.2303   -4.3024   -1.9181 H   0  0  0  0  0  0  0  0  0  0  0  0
    2.8826   -4.1718   -3.8226 H   0  0  0  0  0  0  0  0  0  0  0  0
    5.1675   -3.9262   -3.9113 H   0  0  0  0  0  0  0  0  0  0  0  0
    5.0254   -2.1275   -3.8270 H   0  0  0  0  0  0  0  0  0  0  0  0
    4.6144   -4.1227   -1.5714 H   0  0  0  0  0  0  0  0  0  0  0  0
    6.8933   -3.8374   -1.2251 H   0  0  0  0  0  0  0  0  0  0  0  0
    6.8849   -2.1570   -1.7259 H   0  0  0  0  0  0  0  0  0  0  0  0
    5.6152   -3.4862    0.1851 H   0  0  0  0  0  0  0  0  0  0  0  0
    4.7005   -0.6106    0.7998 H   0  0  0  0  0  0  0  0  0  0  0  0
    6.1223   -0.2902   -0.0887 H   0  0  0  0  0  0  0  0  0  0  0  0
    5.0792   -0.5430   -2.3042 H   0  0  0  0  0  0  0  0  0  0  0  0
    3.4651   -2.1649   -0.3387 H   0  0  0  0  0  0  0  0  0  0  0  0
    6.2014   -2.4705    2.8486 H   0  0  0  0  0  0  0  0  0  0  0  0
    4.7469   -3.3442    4.6160 H   0  0  0  0  0  0  0  0  0  0  0  0
    2.5166   -2.4503    4.1855 H   0  0  0  0  0  0  0  0  0  0  0  0
    3.3535   -1.6433    2.8793 H   0  0  0  0  0  0  0  0  0  0  0  0
    1.5218   -3.1843    1.9740 H   0  0  0  0  0  0  0  0  0  0  0  0
    1.9885   -4.4691    4.2996 H   0  0  0  0  0  0  0  0  0  0  0  0
    1.7628   -6.5788    3.4973 H   0  0  0  0  0  0  0  0  0  0  0  0
    4.2244   -5.7187    3.9835 H   0  0  0  0  0  0  0  0  0  0  0  0
    5.1192   -5.4715    1.5726 H   0  0  0  0  0  0  0  0  0  0  0  0
    3.5821   -6.2266    1.5408 H   0  0  0  0  0  0  0  0  0  0  0  0
    2.3844   -1.0604   -1.1865 H   0  0  0  0  0  0  0  0  0  0  0  0
  1  2  1  0
 23  2  1  6
  2  3  2  0
  3  4  1  0
  3 24  1  0
  4 13  1  0
  4  5  2  0
  5  6  1  0
  5 25  1  0
  6  7  1  0
  6 26  1  0
  6 27  1  0
  7 12  1  0
  7  8  1  0
  7 28  1  1
  8  9  1  0
  8 29  1  0
  8 30  1  0
  9 10  1  0
  9 14  1  0
  9 31  1  1
 10 11  1  0
 10 32  1  0
 10 33  1  0
 11 13  1  0
 11 12  1  0
 11 34  1  6
 12 13  1  0
 12 35  1  1
 13 46  1  1
 14 23  1  0
 14 15  2  0
 15 16  1  0
 15 36  1  0
 16 21  1  0
 16 17  1  0
 16 37  1  1
 17 18  1  0
 17 38  1  0
 17 39  1  0
 18 23  1  0
 18 19  1  0
 18 40  1  6
 19 20  1  0
 19 21  1  0
 19 41  1  1
 20 42  1  0
 21 22  1  0
 21 43  1  1
 22 23  1  0
 22 44  1  0
 22 45  1  0
M  CHG  2   1  -1  13   1
M  END
>  <i_m_ct_stereo_status>  (214) 
1

>  <s_m_source_file>  (214) 
/var/tmp/pbs.5076255.sched01/tmp0pz6dnip/90w4u7_w6b.sdf

>  <i_m_source_file_index>  (214) 
2

>  <i_lp_mmshare_version>  (214) 
48012

>  <i_f3d_flags>  (214) 
0

>  <s_epik_input>  (214) 
Tz1DMS9bQ0hdPUMoL1tDSDJdW0NIMl0yKU4zW0NIXShbQ0gyXTQpW0NIXTNbQ0BASF0yW0NIMl1bQ0BIXTRDKFtDQF0xNTYpPVtDSF1bQ0BASF03W0NASF0oW0NIMl02KVtDQEhdKFtPSF0pW0NASF01W0NIMl03

>  <s_epik_cmdline>  (214) 
J2VwaWtfcHl0aG9uJywgJy1waHQnLCAnMi4wJywgJy1waCcsICc3LjAnLCAnLXRuJywgJzgnLCAnLW1hJywgJzIwMCcsICctaW1hZScsICc8aW5maWxlLm1hZT4nLCAnLW9tYWUnLCAnPG91dGZpbGUubWFlPic=

>  <r_epik_Ionization_Penalty>  (214) 
1.20153

>  <r_epik_Ionization_Penalty_Charging>  (214) 
1.20153

>  <r_epik_Ionization_Penalty_Neutral>  (214) 
1.41829e-06

>  <r_epik_State_Penalty>  (214) 
2.38859

>  <r_epik_Charging_Adjusted_Penalty>  (214) 
3.59012

>  <i_epik_Tot_Q>  (214) 
0

>  <i_epik_Tot_abs_Q>  (214) 
2

>  <s_lp_Force_Field>  (214) 
OPLS3e

>  <r_lp_Energy>  (214) 
397.254

>  <b_lp_Chiralities_Consistent>  (214) 
1

>  <s_lp_Variant>  (214) 
62:0-11

>  <s_i_glide_gridfile>  (214) 
pfpi4k_grid

>  <i_i_glide_lignum>  (214) 
2

>  <i_i_glide_rotatable_bonds>  (214) 
1

>  <r_i_docking_score>  (214) 
-4.13442

>  <r_i_glide_ligand_efficiency>  (214) 
-0.179757

>  <r_i_glide_ligand_efficiency_sa>  (214) 
-0.511206

>  <r_i_glide_ligand_efficiency_ln>  (214) 
-0.99974

>  <r_i_glide_gscore>  (214) 
-4.13442

>  <r_i_glide_lipo>  (214) 
-0.588364

>  <r_i_glide_hbond>  (214) 
-0.261946

>  <r_i_glide_metal>  (214) 
-0

>  <r_i_glide_rewards>  (214) 
-1.59953

>  <r_i_glide_evdw>  (214) 
-20.593

>  <r_i_glide_ecoul>  (214) 
-3.69952

>  <r_i_glide_erotb>  (214) 
0

>  <r_i_glide_esite>  (214) 
-0.1

>  <r_i_glide_emodel>  (214) 
-32.8436

>  <r_i_glide_energy>  (214) 
-24.2925

>  <r_i_glide_einternal>  (214) 
0.341965

>  <r_i_glide_intrahb_reward>  (214) 
-0

>  <i_i_glide_confnum>  (214) 
2

>  <i_i_glide_posenum>  (214) 
28

>  <r_i_glide_eff_state_penalty>  (214) 
0

>  <ligand_id>  (214) 
62

>  <original_smiles>  (214) 
O=C1C=C2CCC3CC(CC4C3N24)C2=CC3CC4C(O)C3CC124

>  <smiles>  (214) 
[H]OC1([H])C2([H])C([H])([H])C34C([O-])=C([H])C5=C([H])C([H])([H])C6([H])C([H])([H])C([H])(C3=C([H])C2([H])C([H])([H])C14[H])C([H])([H])C1([H])C6([H])[N+]51[H]

$$$$
62:10:2
     RDKit          3D

 46 52  0  0  1  0  0  0  0  0999 V2000
    4.8209   -1.7409    3.1285 O   0  0  0  0  0  0  0  0  0  0  0  0
    4.6903   -2.9690    2.9334 C   0  0  0  0  0  0  0  0  0  0  0  0
    4.4152   -3.7329    4.1370 C   0  0  0  0  0  0  0  0  0  0  0  0
    4.4408   -5.1833    4.5340 C   0  0  0  0  0  0  0  0  0  0  0  0
    5.5785   -5.5299    5.2031 C   0  0  0  0  0  0  0  0  0  0  0  0
    6.6180   -6.2971    4.3842 C   0  0  0  0  0  0  0  0  0  0  0  0
    6.3352   -5.7648    2.9632 C   0  0  1  0  0  0  0  0  0  0  0  0
    6.9999   -6.2559    1.6668 C   0  0  0  0  0  0  0  0  0  0  0  0
    5.9868   -5.8552    0.5296 C   0  0  2  0  0  0  0  0  0  0  0  0
    4.7222   -6.8398    0.8765 C   0  0  0  0  0  0  0  0  0  0  0  0
    4.4572   -7.1781    2.4218 C   0  0  1  0  0  0  0  0  0  0  0  0
    4.8163   -5.8989    2.6825 C   0  0  1  0  0  0  0  0  0  0  0  0
    3.8893   -6.2643    3.5893 N   0  0  1  0  0  0  0  0  0  0  0  0
    5.3104   -4.4468    0.2734 C   0  0  0  0  0  0  0  0  0  0  0  0
    5.1235   -4.1866   -1.0317 C   0  0  0  0  0  0  0  0  0  0  0  0
    4.3943   -2.9269   -1.3964 C   0  0  1  0  0  0  0  0  0  0  0  0
    3.0670   -3.1677   -0.6551 C   0  0  0  0  0  0  0  0  0  0  0  0
    3.4761   -2.5268    0.6808 C   0  0  2  0  0  0  0  0  0  0  0  0
    3.7843   -1.1395    0.0544 C   0  0  1  0  0  0  0  0  0  0  0  0
    3.9992   -0.0286    0.9012 O   0  0  0  0  0  0  0  0  0  0  0  0
    5.0106   -1.6785   -0.6483 C   0  0  1  0  0  0  0  0  0  0  0  0
    5.8342   -2.1343    0.5902 C   0  0  0  0  0  0  0  0  0  0  0  0
    4.8507   -3.1736    1.2576 C   0  0  1  0  0  0  0  0  0  0  0  0
    4.3585   -3.1196    5.0122 H   0  0  0  0  0  0  0  0  0  0  0  0
    6.0721   -4.7560    5.7788 H   0  0  0  0  0  0  0  0  0  0  0  0
    7.6346   -6.0305    4.7027 H   0  0  0  0  0  0  0  0  0  0  0  0
    6.4657   -7.3782    4.4514 H   0  0  0  0  0  0  0  0  0  0  0  0
    6.5838   -4.7046    2.9953 H   0  0  0  0  0  0  0  0  0  0  0  0
    7.9988   -5.8255    1.5516 H   0  0  0  0  0  0  0  0  0  0  0  0
    7.1268   -7.3398    1.7006 H   0  0  0  0  0  0  0  0  0  0  0  0
    6.3906   -4.9258    0.9144 H   0  0  0  0  0  0  0  0  0  0  0  0
    3.7927   -6.5056    0.3828 H   0  0  0  0  0  0  0  0  0  0  0  0
    4.9501   -7.7987    0.4101 H   0  0  0  0  0  0  0  0  0  0  0  0
    5.0292   -8.0153    2.8493 H   0  0  0  0  0  0  0  0  0  0  0  0
    4.1801   -5.1638    2.2064 H   0  0  0  0  0  0  0  0  0  0  0  0
    5.3604   -4.8869   -1.8156 H   0  0  0  0  0  0  0  0  0  0  0  0
    4.2700   -2.8077   -2.4732 H   0  0  0  0  0  0  0  0  0  0  0  0
    2.2240   -2.6743   -1.1461 H   0  0  0  0  0  0  0  0  0  0  0  0
    2.7796   -4.2174   -0.5623 H   0  0  0  0  0  0  0  0  0  0  0  0
    2.6512   -2.5113    1.3974 H   0  0  0  0  0  0  0  0  0  0  0  0
    3.0199   -0.7903   -0.6500 H   0  0  0  0  0  0  0  0  0  0  0  0
    3.1833    0.1607    1.3383 H   0  0  0  0  0  0  0  0  0  0  0  0
    5.5028   -0.9498   -1.2996 H   0  0  0  0  0  0  0  0  0  0  0  0
    6.7887   -2.5609    0.2822 H   0  0  0  0  0  0  0  0  0  0  0  0
    6.1266   -1.2643    1.1783 H   0  0  0  0  0  0  0  0  0  0  0  0
    2.9628   -5.9848    3.2813 H   0  0  0  0  0  0  0  0  0  0  0  0
  1  2  1  0
 23  2  1  1
  2  3  2  0
  3  4  1  0
  3 24  1  0
  4 13  1  0
  4  5  2  0
  5  6  1  0
  5 25  1  0
  6  7  1  0
  6 26  1  0
  6 27  1  0
  7 12  1  0
  7  8  1  0
  7 28  1  1
  8  9  1  0
  8 29  1  0
  8 30  1  0
  9 10  1  0
  9 14  1  0
  9 31  1  6
 10 11  1  0
 10 32  1  0
 10 33  1  0
 11 13  1  0
 11 12  1  0
 11 34  1  1
 12 13  1  0
 12 35  1  6
 13 46  1  6
 14 23  1  0
 14 15  2  0
 15 16  1  0
 15 36  1  0
 16 21  1  0
 16 17  1  0
 16 37  1  6
 17 18  1  0
 17 38  1  0
 17 39  1  0
 18 23  1  0
 18 19  1  0
 18 40  1  1
 19 20  1  0
 19 21  1  0
 19 41  1  6
 20 42  1  0
 21 22  1  0
 21 43  1  6
 22 23  1  0
 22 44  1  0
 22 45  1  0
M  CHG  2   1  -1  13   1
M  END
>  <i_m_ct_stereo_status>  (215) 
1

>  <s_m_source_file>  (215) 
/var/tmp/pbs.5076255.sched01/tmp0pz6dnip/90w4u7_w6b.sdf

>  <i_m_source_file_index>  (215) 
2

>  <i_lp_mmshare_version>  (215) 
48012

>  <i_f3d_flags>  (215) 
0

>  <s_epik_input>  (215) 
Tz1DMS9bQ0hdPUMoL1tDSDJdW0NIMl0yKU4zW0NIXShbQ0gyXTQpW0NIXTNbQ0BASF0yW0NIMl1bQ0BIXTRDKFtDQF0xNTYpPVtDSF1bQ0BASF03W0NASF0oW0NIMl02KVtDQEhdKFtPSF0pW0NASF01W0NIMl03

>  <s_epik_cmdline>  (215) 
J2VwaWtfcHl0aG9uJywgJy1waHQnLCAnMi4wJywgJy1waCcsICc3LjAnLCAnLXRuJywgJzgnLCAnLW1hJywgJzIwMCcsICctaW1hZScsICc8aW5maWxlLm1hZT4nLCAnLW9tYWUnLCAnPG91dGZpbGUubWFlPic=

>  <r_epik_Ionization_Penalty>  (215) 
1.20153

>  <r_epik_Ionization_Penalty_Charging>  (215) 
1.20153

>  <r_epik_Ionization_Penalty_Neutral>  (215) 
1.41829e-06

>  <r_epik_State_Penalty>  (215) 
2.38859

>  <r_epik_Charging_Adjusted_Penalty>  (215) 
3.59012

>  <i_epik_Tot_Q>  (215) 
0

>  <i_epik_Tot_abs_Q>  (215) 
2

>  <s_lp_Force_Field>  (215) 
OPLS3e

>  <r_lp_Energy>  (215) 
397.254

>  <b_lp_Chiralities_Consistent>  (215) 
1

>  <s_lp_Variant>  (215) 
62:0-11

>  <s_i_glide_gridfile>  (215) 
pfpi4k_grid

>  <i_i_glide_lignum>  (215) 
2

>  <i_i_glide_rotatable_bonds>  (215) 
1

>  <r_i_docking_score>  (215) 
-2.98638

>  <r_i_glide_ligand_efficiency>  (215) 
-0.129843

>  <r_i_glide_ligand_efficiency_sa>  (215) 
-0.369255

>  <r_i_glide_ligand_efficiency_ln>  (215) 
-0.722134

>  <r_i_glide_gscore>  (215) 
-2.98638

>  <r_i_glide_lipo>  (215) 
-0.481917

>  <r_i_glide_hbond>  (215) 
0

>  <r_i_glide_metal>  (215) 
-0

>  <r_i_glide_rewards>  (215) 
-1.29953

>  <r_i_glide_evdw>  (215) 
-19.9473

>  <r_i_glide_ecoul>  (215) 
-1.38379

>  <r_i_glide_erotb>  (215) 
0

>  <r_i_glide_esite>  (215) 
0

>  <r_i_glide_emodel>  (215) 
-27.3444

>  <r_i_glide_energy>  (215) 
-21.3311

>  <r_i_glide_einternal>  (215) 
0.337382

>  <r_i_glide_intrahb_reward>  (215) 
-0

>  <i_i_glide_confnum>  (215) 
1

>  <i_i_glide_posenum>  (215) 
2

>  <r_i_glide_eff_state_penalty>  (215) 
0

>  <ligand_id>  (215) 
62

>  <original_smiles>  (215) 
O=C1C=C2CCC3CC(CC4C3N24)C2=CC3CC4C(O)C3CC124

>  <smiles>  (215) 
[H]OC1([H])C2([H])C([H])([H])C34C([O-])=C([H])C5=C([H])C([H])([H])C6([H])C([H])([H])C([H])(C3=C([H])C2([H])C([H])([H])C14[H])C([H])([H])C1([H])C6([H])[N+]51[H]

$$$$
63:0:0
     RDKit          3D

 60 65  0  0  1  0  0  0  0  0999 V2000
   -0.8240    1.4249    2.3404 C   0  0  0  0  0  0  0  0  0  0  0  0
    0.3817    1.0536    3.2235 C   0  0  2  0  0  0  0  0  0  0  0  0
    1.2927   -0.0626    2.4549 C   0  0  0  0  0  0  0  0  0  0  0  0
    2.8140   -0.1336    2.9165 C   0  0  2  0  0  0  0  0  0  0  0  0
    3.7959   -0.1776    1.7513 C   0  0  0  0  0  0  0  0  0  0  0  0
    3.9332   -1.4868    1.2189 O   0  0  0  0  0  0  0  0  0  0  0  0
    4.9437   -1.7752    0.3748 C   0  0  0  0  0  0  0  0  0  0  0  0
    5.8099   -0.9863   -0.0177 O   0  0  0  0  0  0  0  0  0  0  0  0
    4.8482   -3.2424   -0.0878 C   0  0  2  0  0  0  0  0  0  0  0  0
    5.7421   -4.0970    0.6940 N   0  0  0  0  0  0  0  0  0  0  0  0
    5.1260   -3.4078   -1.6006 C   0  0  0  0  0  0  0  0  0  0  0  0
    4.1938   -2.6219   -2.4995 C   0  0  0  0  0  0  0  0  0  0  0  0
    3.1965   -3.0369   -3.3601 C   0  0  0  0  0  0  0  0  0  0  0  0
    2.6392   -1.8993   -3.9256 N   0  0  0  0  0  0  0  0  0  0  0  0
    3.2796   -0.8505   -3.4075 C   0  0  0  0  0  0  0  0  0  0  0  0
    4.2534   -1.2352   -2.5950 N   0  0  0  0  0  0  0  0  0  0  0  0
    3.2138   -0.9775    4.0927 C   0  0  0  0  0  0  0  0  0  0  0  0
    3.5068   -2.0805    4.5275 O   0  0  0  0  0  0  0  0  0  0  0  0
    3.1898    0.5367    4.2835 C   0  0  2  0  0  0  0  0  0  0  0  0
    1.9693    1.3378    4.7318 C   0  0  1  0  0  0  0  0  0  0  0  0
    1.1459    0.1428    4.8167 O   0  0  0  0  0  0  0  0  0  0  0  0
   -0.1279    0.6241    4.6959 C   0  0  1  0  0  0  0  0  0  0  0  0
    0.1089    1.4393    5.9651 C   0  0  0  0  0  0  0  0  0  0  0  0
   -0.4828    2.0407    7.1095 C   0  0  0  0  0  0  0  0  0  0  0  0
   -1.9123    1.9812    7.5469 C   0  0  0  0  0  0  0  0  0  0  0  0
   -2.5761    0.9419    6.8820 O   0  0  0  0  0  0  0  0  0  0  0  0
    0.5881    2.6763    7.7182 C   0  0  0  0  0  0  0  0  0  0  0  0
    1.7699    2.5779    7.0034 O   0  0  0  0  0  0  0  0  0  0  0  0
    1.4116    1.7267    6.0305 C   0  0  0  0  0  0  0  0  0  0  0  0
    1.3402    2.2103    3.5629 C   0  0  0  0  0  0  0  0  0  0  0  0
    2.3134    2.6728    2.4347 C   0  0  0  0  0  0  0  0  0  0  0  0
    0.5770    3.5261    3.9312 C   0  0  0  0  0  0  0  0  0  0  0  0
    1.8701   -1.8675   -4.5772 H   0  0  0  0  0  0  0  0  0  0  0  0
   -0.5032    1.8756    1.4036 H   0  0  0  0  0  0  0  0  0  0  0  0
   -1.4984    2.1215    2.8353 H   0  0  0  0  0  0  0  0  0  0  0  0
   -1.4136    0.5451    2.0901 H   0  0  0  0  0  0  0  0  0  0  0  0
    0.8527   -1.0542    2.5809 H   0  0  0  0  0  0  0  0  0  0  0  0
    1.2680    0.1224    1.3788 H   0  0  0  0  0  0  0  0  0  0  0  0
    3.4818    0.5107    0.9660 H   0  0  0  0  0  0  0  0  0  0  0  0
    4.7644    0.1655    2.1097 H   0  0  0  0  0  0  0  0  0  0  0  0
    3.8272   -3.5873    0.0936 H   0  0  0  0  0  0  0  0  0  0  0  0
    5.5703   -3.9878    1.6850 H   0  0  0  0  0  0  0  0  0  0  0  0
    5.6163   -5.0801    0.4901 H   0  0  0  0  0  0  0  0  0  0  0  0
    6.1597   -3.1648   -1.8506 H   0  0  0  0  0  0  0  0  0  0  0  0
    5.0056   -4.4579   -1.8640 H   0  0  0  0  0  0  0  0  0  0  0  0
    2.8332   -4.0170   -3.6372 H   0  0  0  0  0  0  0  0  0  0  0  0
    3.0112    0.1818   -3.5884 H   0  0  0  0  0  0  0  0  0  0  0  0
    4.1293    1.0657    4.3637 H   0  0  0  0  0  0  0  0  0  0  0  0
   -0.8718   -0.1644    4.7743 H   0  0  0  0  0  0  0  0  0  0  0  0
   -1.9683    1.8136    8.6252 H   0  0  0  0  0  0  0  0  0  0  0  0
   -2.4146    2.9284    7.3347 H   0  0  0  0  0  0  0  0  0  0  0  0
   -2.5822    1.1630    5.9582 H   0  0  0  0  0  0  0  0  0  0  0  0
    0.6794    3.2394    8.6376 H   0  0  0  0  0  0  0  0  0  0  0  0
    2.3101    3.7512    2.2828 H   0  0  0  0  0  0  0  0  0  0  0  0
    2.0383    2.2509    1.4710 H   0  0  0  0  0  0  0  0  0  0  0  0
    3.3528    2.4301    2.6393 H   0  0  0  0  0  0  0  0  0  0  0  0
    1.2147    4.2044    4.4991 H   0  0  0  0  0  0  0  0  0  0  0  0
   -0.3534    3.3923    4.4772 H   0  0  0  0  0  0  0  0  0  0  0  0
    0.2805    4.0583    3.0259 H   0  0  0  0  0  0  0  0  0  0  0  0
    4.8106   -0.6210   -2.0101 H   0  0  0  0  0  0  0  0  0  0  0  0
  2  1  1  6
  1 34  1  0
  1 35  1  0
  1 36  1  0
  2 22  1  0
  2 30  1  0
  2  3  1  0
  3  4  1  0
  3 37  1  0
  3 38  1  0
  4 19  1  0
  4  5  1  6
  4 17  1  0
  5  6  1  0
  5 39  1  0
  5 40  1  0
  6  7  1  0
  7  8  2  0
  7  9  1  0
  9 10  1  0
  9 11  1  0
  9 41  1  6
 10 42  1  0
 10 43  1  0
 11 12  1  0
 11 44  1  0
 11 45  1  0
 12 16  1  0
 12 13  2  0
 13 14  1  0
 13 46  1  0
 14 33  1  0
 14 15  1  0
 15 16  2  0
 15 47  1  0
 16 60  1  0
 17 18  2  0
 17 19  1  0
 19 20  1  0
 19 48  1  6
 20 29  1  1
 20 21  1  0
 20 30  1  0
 21 22  1  0
 22 23  1  0
 22 49  1  6
 23 29  2  0
 23 24  1  0
 24 25  1  0
 24 27  2  0
 25 26  1  0
 25 50  1  0
 25 51  1  0
 26 52  1  0
 27 28  1  0
 27 53  1  0
 28 29  1  0
 30 31  1  0
 30 32  1  0
 31 54  1  0
 31 55  1  0
 31 56  1  0
 32 57  1  0
 32 58  1  0
 32 59  1  0
M  CHG  1  16   1
M  END
>  <i_m_ct_stereo_status>  (216) 
1

>  <s_m_source_file>  (216) 
/var/tmp/pbs.5076255.sched01/tmp0pz6dnip/90w4u7_w6b.sdf

>  <i_m_source_file_index>  (216) 
3

>  <i_lp_mmshare_version>  (216) 
48012

>  <i_f3d_flags>  (216) 
0

>  <s_epik_input>  (216) 
W09IXVtDSDJdYzFbY0hdb2MyYzFbQ0BIXShPMylbQ0BAXShbQ0gzXSkoQzQoW0NIM10pW0NIM10pW0NIMl1DKEM1PU8pKFtDSF01W0NAXTIzNClbQ0gyXU9DKD1PKVtDQEhdKFtOSDJdKVtDSDJdYzZbY0hdW25IXVtjSF1uNg==

>  <s_epik_cmdline>  (216) 
J2VwaWtfcHl0aG9uJywgJy1waHQnLCAnMi4wJywgJy1waCcsICc3LjAnLCAnLXRuJywgJzgnLCAnLW1hJywgJzIwMCcsICctaW1hZScsICc8aW5maWxlLm1hZT4nLCAnLW9tYWUnLCAnPG91dGZpbGUubWFlPic=

>  <r_lp_tautomer_probability>  (216) 
1

>  <r_epik_Ionization_Penalty>  (216) 
0.470131

>  <r_epik_Ionization_Penalty_Charging>  (216) 
0

>  <r_epik_Ionization_Penalty_Neutral>  (216) 
0.470131

>  <r_epik_State_Penalty>  (216) 
0.630268

>  <r_epik_Charging_Adjusted_Penalty>  (216) 
0.630268

>  <i_epik_Tot_Q>  (216) 
1

>  <i_epik_Tot_abs_Q>  (216) 
1

>  <s_epik_Chemistry_Notes>  (216) 
This compound has an ester and may undergo hydrolysis at high or low pH.

>  <s_lp_Force_Field>  (216) 
OPLS3e

>  <r_lp_Energy>  (216) 
139.17

>  <b_lp_Chiralities_Consistent>  (216) 
1

>  <s_lp_Variant>  (216) 
63:0-1

>  <s_i_glide_gridfile>  (216) 
pfpi4k_grid

>  <i_i_glide_lignum>  (216) 
3

>  <i_i_glide_rotatable_bonds>  (216) 
8

>  <r_i_docking_score>  (216) 
-4.08368

>  <r_i_glide_ligand_efficiency>  (216) 
-0.127615

>  <r_i_glide_ligand_efficiency_sa>  (216) 
-0.405152

>  <r_i_glide_ligand_efficiency_ln>  (216) 
-0.914446

>  <r_i_glide_gscore>  (216) 
-4.08368

>  <r_i_glide_lipo>  (216) 
-0.334242

>  <r_i_glide_hbond>  (216) 
-0.16

>  <r_i_glide_metal>  (216) 
-0

>  <r_i_glide_rewards>  (216) 
-1.14723

>  <r_i_glide_evdw>  (216) 
-27.8342

>  <r_i_glide_ecoul>  (216) 
-10.879

>  <r_i_glide_erotb>  (216) 
0.612394

>  <r_i_glide_esite>  (216) 
-0.0310417

>  <r_i_glide_emodel>  (216) 
-53.5095

>  <r_i_glide_energy>  (216) 
-38.7131

>  <r_i_glide_einternal>  (216) 
3.74134

>  <r_i_glide_intrahb_reward>  (216) 
-0.5

>  <i_i_glide_confnum>  (216) 
4

>  <i_i_glide_posenum>  (216) 
13

>  <r_i_glide_eff_state_penalty>  (216) 
0

>  <ligand_id>  (216) 
63

>  <original_smiles>  (216) 
CC12CC3(COC(=O)C(N)Cc4c[nH]cn4)C(=O)C3C3(OC1c1c(CO)coc13)C2(C)C

>  <smiles>  (216) 
[H]OC([H])([H])c1c([H])oc2c1C1([H])OC23C2([H])C(=O)C2(C([H])([H])OC(=O)C([H])(N([H])[H])C([H])([H])c2c([H])n([H])c([H])[n+]2[H])C([H])([H])C1(C([H])([H])[H])C3(C([H])([H])[H])C([H])([H])[H]

$$$$
63:0:1
     RDKit          3D

 60 65  0  0  1  0  0  0  0  0999 V2000
   -0.0367    2.9097    3.1209 C   0  0  0  0  0  0  0  0  0  0  0  0
    0.2586    1.6826    3.9957 C   0  0  2  0  0  0  0  0  0  0  0  0
    0.7814    0.4599    3.0489 C   0  0  0  0  0  0  0  0  0  0  0  0
    1.6597   -0.6467    3.7834 C   0  0  2  0  0  0  0  0  0  0  0  0
    2.9329   -0.9970    3.0200 C   0  0  0  0  0  0  0  0  0  0  0  0
    2.6916   -1.9015    1.9519 O   0  0  0  0  0  0  0  0  0  0  0  0
    3.5220   -1.9396    0.8861 C   0  0  0  0  0  0  0  0  0  0  0  0
    4.4165   -1.1210    0.6483 O   0  0  0  0  0  0  0  0  0  0  0  0
    3.2024   -3.1680    0.0035 C   0  0  2  0  0  0  0  0  0  0  0  0
    3.2394   -4.3986    0.7999 N   0  0  0  0  0  0  0  0  0  0  0  0
    4.1625   -3.2930   -1.2056 C   0  0  0  0  0  0  0  0  0  0  0  0
    3.7708   -2.4349   -2.3801 C   0  0  0  0  0  0  0  0  0  0  0  0
    3.1976   -2.7821   -3.5863 C   0  0  0  0  0  0  0  0  0  0  0  0
    3.0132   -1.6182   -4.3065 N   0  0  0  0  0  0  0  0  0  0  0  0
    3.4387   -0.6144   -3.5436 C   0  0  0  0  0  0  0  0  0  0  0  0
    3.9358   -1.0544   -2.3898 N   0  0  0  0  0  0  0  0  0  0  0  0
    1.0093   -1.8002    4.4917 C   0  0  0  0  0  0  0  0  0  0  0  0
    0.4981   -2.9103    4.4240 O   0  0  0  0  0  0  0  0  0  0  0  0
    1.6009   -0.6871    5.3493 C   0  0  2  0  0  0  0  0  0  0  0  0
    0.8452    0.5682    5.7936 C   0  0  1  0  0  0  0  0  0  0  0  0
   -0.3748    0.1559    5.1133 O   0  0  0  0  0  0  0  0  0  0  0  0
   -1.0323    1.3398    4.9117 C   0  0  1  0  0  0  0  0  0  0  0  0
   -1.0859    1.5189    6.4285 C   0  0  0  0  0  0  0  0  0  0  0  0
   -1.7852    2.0725    7.5351 C   0  0  0  0  0  0  0  0  0  0  0  0
   -3.0741    2.8476    7.5442 C   0  0  0  0  0  0  0  0  0  0  0  0
   -3.2052    3.7244    8.6440 O   0  0  0  0  0  0  0  0  0  0  0  0
   -0.9801    1.7340    8.6134 C   0  0  0  0  0  0  0  0  0  0  0  0
    0.1878    1.0793    8.2557 O   0  0  0  0  0  0  0  0  0  0  0  0
   -0.0055    0.9142    6.9392 C   0  0  0  0  0  0  0  0  0  0  0  0
    1.3570    1.8826    5.0566 C   0  0  0  0  0  0  0  0  0  0  0  0
    2.8457    1.8849    4.5607 C   0  0  0  0  0  0  0  0  0  0  0  0
    1.2272    3.2617    5.7929 C   0  0  0  0  0  0  0  0  0  0  0  0
    2.5247   -1.5514   -5.2114 H   0  0  0  0  0  0  0  0  0  0  0  0
    0.8630    3.2691    2.6220 H   0  0  0  0  0  0  0  0  0  0  0  0
   -0.4551    3.7380    3.6904 H   0  0  0  0  0  0  0  0  0  0  0  0
   -0.7648    2.6609    2.3486 H   0  0  0  0  0  0  0  0  0  0  0  0
   -0.0710   -0.0336    2.5784 H   0  0  0  0  0  0  0  0  0  0  0  0
    1.3643    0.8611    2.2159 H   0  0  0  0  0  0  0  0  0  0  0  0
    3.4158   -0.0838    2.6735 H   0  0  0  0  0  0  0  0  0  0  0  0
    3.6296   -1.4799    3.7026 H   0  0  0  0  0  0  0  0  0  0  0  0
    2.1858   -3.0588   -0.3813 H   0  0  0  0  0  0  0  0  0  0  0  0
    2.6290   -4.3248    1.6030 H   0  0  0  0  0  0  0  0  0  0  0  0
    2.9459   -5.2110    0.2733 H   0  0  0  0  0  0  0  0  0  0  0  0
    5.1945   -3.0763   -0.9275 H   0  0  0  0  0  0  0  0  0  0  0  0
    4.1916   -4.3263   -1.5536 H   0  0  0  0  0  0  0  0  0  0  0  0
    2.9003   -3.7410   -3.9900 H   0  0  0  0  0  0  0  0  0  0  0  0
    3.3443    0.4299   -3.8017 H   0  0  0  0  0  0  0  0  0  0  0  0
    2.5040   -0.8969    5.9101 H   0  0  0  0  0  0  0  0  0  0  0  0
   -1.9887    1.1923    4.4115 H   0  0  0  0  0  0  0  0  0  0  0  0
   -3.1622    3.4069    6.6163 H   0  0  0  0  0  0  0  0  0  0  0  0
   -3.8979    2.1478    7.5721 H   0  0  0  0  0  0  0  0  0  0  0  0
   -3.1584    3.2278    9.4477 H   0  0  0  0  0  0  0  0  0  0  0  0
   -1.0762    1.9045    9.6754 H   0  0  0  0  0  0  0  0  0  0  0  0
    3.4176    2.7300    4.9434 H   0  0  0  0  0  0  0  0  0  0  0  0
    2.9205    1.9639    3.4767 H   0  0  0  0  0  0  0  0  0  0  0  0
    3.4149    1.0145    4.8834 H   0  0  0  0  0  0  0  0  0  0  0  0
    1.7432    3.2454    6.7546 H   0  0  0  0  0  0  0  0  0  0  0  0
    0.2101    3.6087    5.9627 H   0  0  0  0  0  0  0  0  0  0  0  0
    1.6865    4.0582    5.2015 H   0  0  0  0  0  0  0  0  0  0  0  0
    4.2595   -0.4924   -1.6130 H   0  0  0  0  0  0  0  0  0  0  0  0
  2  1  1  6
  1 34  1  0
  1 35  1  0
  1 36  1  0
  2 22  1  0
  2 30  1  0
  2  3  1  0
  3  4  1  0
  3 37  1  0
  3 38  1  0
  4 19  1  0
  4  5  1  1
  4 17  1  0
  5  6  1  0
  5 39  1  0
  5 40  1  0
  6  7  1  0
  7  8  2  0
  7  9  1  0
  9 10  1  0
  9 11  1  0
  9 41  1  6
 10 42  1  0
 10 43  1  0
 11 12  1  0
 11 44  1  0
 11 45  1  0
 12 16  1  0
 12 13  2  0
 13 14  1  0
 13 46  1  0
 14 33  1  0
 14 15  1  0
 15 16  2  0
 15 47  1  0
 16 60  1  0
 17 18  2  0
 17 19  1  0
 19 20  1  0
 19 48  1  1
 20 29  1  1
 20 21  1  0
 20 30  1  0
 21 22  1  0
 22 23  1  0
 22 49  1  6
 23 29  2  0
 23 24  1  0
 24 25  1  0
 24 27  2  0
 25 26  1  0
 25 50  1  0
 25 51  1  0
 26 52  1  0
 27 28  1  0
 27 53  1  0
 28 29  1  0
 30 31  1  0
 30 32  1  0
 31 54  1  0
 31 55  1  0
 31 56  1  0
 32 57  1  0
 32 58  1  0
 32 59  1  0
M  CHG  1  16   1
M  END
>  <i_m_ct_stereo_status>  (217) 
1

>  <s_m_source_file>  (217) 
/var/tmp/pbs.5076255.sched01/tmp0pz6dnip/90w4u7_w6b.sdf

>  <i_m_source_file_index>  (217) 
3

>  <i_lp_mmshare_version>  (217) 
48012

>  <i_f3d_flags>  (217) 
0

>  <s_epik_input>  (217) 
W09IXVtDSDJdYzFbY0hdb2MyYzFbQ0BIXShPMylbQ0BAXShbQ0gzXSkoQzQoW0NIM10pW0NIM10pW0NIMl1DKEM1PU8pKFtDSF01W0NAXTIzNClbQ0gyXU9DKD1PKVtDQEhdKFtOSDJdKVtDSDJdYzZbY0hdW25IXVtjSF1uNg==

>  <s_epik_cmdline>  (217) 
J2VwaWtfcHl0aG9uJywgJy1waHQnLCAnMi4wJywgJy1waCcsICc3LjAnLCAnLXRuJywgJzgnLCAnLW1hJywgJzIwMCcsICctaW1hZScsICc8aW5maWxlLm1hZT4nLCAnLW9tYWUnLCAnPG91dGZpbGUubWFlPic=

>  <r_lp_tautomer_probability>  (217) 
1

>  <r_epik_Ionization_Penalty>  (217) 
0.470131

>  <r_epik_Ionization_Penalty_Charging>  (217) 
0

>  <r_epik_Ionization_Penalty_Neutral>  (217) 
0.470131

>  <r_epik_State_Penalty>  (217) 
0.630268

>  <r_epik_Charging_Adjusted_Penalty>  (217) 
0.630268

>  <i_epik_Tot_Q>  (217) 
1

>  <i_epik_Tot_abs_Q>  (217) 
1

>  <s_epik_Chemistry_Notes>  (217) 
This compound has an ester and may undergo hydrolysis at high or low pH.

>  <s_lp_Force_Field>  (217) 
OPLS3e

>  <r_lp_Energy>  (217) 
139.17

>  <b_lp_Chiralities_Consistent>  (217) 
1

>  <s_lp_Variant>  (217) 
63:0-1

>  <s_i_glide_gridfile>  (217) 
pfpi4k_grid

>  <i_i_glide_lignum>  (217) 
3

>  <i_i_glide_rotatable_bonds>  (217) 
8

>  <r_i_docking_score>  (217) 
-3.80667

>  <r_i_glide_ligand_efficiency>  (217) 
-0.118958

>  <r_i_glide_ligand_efficiency_sa>  (217) 
-0.37767

>  <r_i_glide_ligand_efficiency_ln>  (217) 
-0.852418

>  <r_i_glide_gscore>  (217) 
-3.80667

>  <r_i_glide_lipo>  (217) 
-0.386755

>  <r_i_glide_hbond>  (217) 
0

>  <r_i_glide_metal>  (217) 
-0

>  <r_i_glide_rewards>  (217) 
-1.19934

>  <r_i_glide_evdw>  (217) 
-29.1252

>  <r_i_glide_ecoul>  (217) 
-8.67274

>  <r_i_glide_erotb>  (217) 
0.612394

>  <r_i_glide_esite>  (217) 
-0.0757985

>  <r_i_glide_emodel>  (217) 
-51.6103

>  <r_i_glide_energy>  (217) 
-37.798

>  <r_i_glide_einternal>  (217) 
4.3724

>  <r_i_glide_intrahb_reward>  (217) 
-0.5

>  <i_i_glide_confnum>  (217) 
4

>  <i_i_glide_posenum>  (217) 
30

>  <r_i_glide_eff_state_penalty>  (217) 
0

>  <ligand_id>  (217) 
63

>  <original_smiles>  (217) 
CC12CC3(COC(=O)C(N)Cc4c[nH]cn4)C(=O)C3C3(OC1c1c(CO)coc13)C2(C)C

>  <smiles>  (217) 
[H]OC([H])([H])c1c([H])oc2c1C1([H])OC23C2([H])C(=O)C2(C([H])([H])OC(=O)C([H])(N([H])[H])C([H])([H])c2c([H])n([H])c([H])[n+]2[H])C([H])([H])C1(C([H])([H])[H])C3(C([H])([H])[H])C([H])([H])[H]

$$$$
63:0:2
     RDKit          3D

 60 65  0  0  1  0  0  0  0  0999 V2000
    1.3816    1.3253    1.5137 C   0  0  0  0  0  0  0  0  0  0  0  0
    1.2055    0.4213    2.7388 C   0  0  2  0  0  0  0  0  0  0  0  0
    1.6782   -1.0817    2.3524 C   0  0  0  0  0  0  0  0  0  0  0  0
    2.1291   -1.9952    3.5744 C   0  0  2  0  0  0  0  0  0  0  0  0
    3.4493   -2.7195    3.3288 C   0  0  0  0  0  0  0  0  0  0  0  0
    3.4382   -3.5502    2.1719 O   0  0  0  0  0  0  0  0  0  0  0  0
    4.0887   -3.1653    1.0464 C   0  0  0  0  0  0  0  0  0  0  0  0
    4.6846   -2.0941    0.9002 O   0  0  0  0  0  0  0  0  0  0  0  0
    3.9508   -4.2371   -0.0498 C   0  0  2  0  0  0  0  0  0  0  0  0
    4.3816   -5.5420    0.4514 N   0  0  0  0  0  0  0  0  0  0  0  0
    4.7392   -3.8609   -1.3242 C   0  0  0  0  0  0  0  0  0  0  0  0
    3.9748   -2.9514   -2.2580 C   0  0  0  0  0  0  0  0  0  0  0  0
    3.3717   -3.2154   -3.4730 C   0  0  0  0  0  0  0  0  0  0  0  0
    2.7897   -2.0469   -3.9209 N   0  0  0  0  0  0  0  0  0  0  0  0
    3.0374   -1.1211   -3.0015 C   0  0  0  0  0  0  0  0  0  0  0  0
    3.7818   -1.5985   -2.0049 N   0  0  0  0  0  0  0  0  0  0  0  0
    1.1141   -2.7844    4.3532 C   0  0  0  0  0  0  0  0  0  0  0  0
    0.4479   -3.8047    4.4792 O   0  0  0  0  0  0  0  0  0  0  0  0
    1.6978   -1.5366    5.0079 C   0  0  2  0  0  0  0  0  0  0  0  0
    1.1238   -0.1282    4.8651 C   0  0  1  0  0  0  0  0  0  0  0  0
    0.0502   -0.5893    3.9989 O   0  0  0  0  0  0  0  0  0  0  0  0
   -0.3032    0.5372    3.2995 C   0  0  1  0  0  0  0  0  0  0  0  0
   -0.6750    1.1886    4.6243 C   0  0  0  0  0  0  0  0  0  0  0  0
   -1.4993    2.1432    5.2855 C   0  0  0  0  0  0  0  0  0  0  0  0
   -2.5623    3.0208    4.6928 C   0  0  0  0  0  0  0  0  0  0  0  0
   -2.0327    4.1548    4.0400 O   0  0  0  0  0  0  0  0  0  0  0  0
   -1.0576    2.0698    6.5967 C   0  0  0  0  0  0  0  0  0  0  0  0
    0.0115    1.2130    6.7880 O   0  0  0  0  0  0  0  0  0  0  0  0
    0.1020    0.6608    5.5686 C   0  0  0  0  0  0  0  0  0  0  0  0
    2.0407    0.8119    3.9715 C   0  0  0  0  0  0  0  0  0  0  0  0
    3.5765    0.4863    3.9301 C   0  0  0  0  0  0  0  0  0  0  0  0
    2.0215    2.3582    4.2217 C   0  0  0  0  0  0  0  0  0  0  0  0
    2.2281   -1.9334   -4.7712 H   0  0  0  0  0  0  0  0  0  0  0  0
    2.4283    1.3853    1.2223 H   0  0  0  0  0  0  0  0  0  0  0  0
    1.0189    2.3359    1.6896 H   0  0  0  0  0  0  0  0  0  0  0  0
    0.8182    0.9328    0.6703 H   0  0  0  0  0  0  0  0  0  0  0  0
    0.8903   -1.6013    1.8058 H   0  0  0  0  0  0  0  0  0  0  0  0
    2.4953   -1.0018    1.6434 H   0  0  0  0  0  0  0  0  0  0  0  0
    4.2710   -2.0063    3.2985 H   0  0  0  0  0  0  0  0  0  0  0  0
    3.6640   -3.3565    4.1828 H   0  0  0  0  0  0  0  0  0  0  0  0
    2.8923   -4.3269   -0.3114 H   0  0  0  0  0  0  0  0  0  0  0  0
    3.8718   -5.7874    1.2900 H   0  0  0  0  0  0  0  0  0  0  0  0
    4.2035   -6.2797   -0.2166 H   0  0  0  0  0  0  0  0  0  0  0  0
    5.7038   -3.4069   -1.0841 H   0  0  0  0  0  0  0  0  0  0  0  0
    4.9956   -4.7603   -1.8855 H   0  0  0  0  0  0  0  0  0  0  0  0
    3.2938   -4.1335   -4.0425 H   0  0  0  0  0  0  0  0  0  0  0  0
    2.6455   -0.1086   -3.0375 H   0  0  0  0  0  0  0  0  0  0  0  0
    2.3872   -1.6629    5.8319 H   0  0  0  0  0  0  0  0  0  0  0  0
   -1.1225    0.3629    2.6102 H   0  0  0  0  0  0  0  0  0  0  0  0
   -3.1241    2.4387    3.9664 H   0  0  0  0  0  0  0  0  0  0  0  0
   -3.2572    3.3361    5.4730 H   0  0  0  0  0  0  0  0  0  0  0  0
   -1.4516    3.8498    3.3556 H   0  0  0  0  0  0  0  0  0  0  0  0
   -1.3669    2.5893    7.4964 H   0  0  0  0  0  0  0  0  0  0  0  0
    4.1987    1.3371    4.2083 H   0  0  0  0  0  0  0  0  0  0  0  0
    3.9187    0.2023    2.9341 H   0  0  0  0  0  0  0  0  0  0  0  0
    3.8693   -0.2903    4.6338 H   0  0  0  0  0  0  0  0  0  0  0  0
    2.2826    2.5896    5.2556 H   0  0  0  0  0  0  0  0  0  0  0  0
    1.0830    2.8585    3.9893 H   0  0  0  0  0  0  0  0  0  0  0  0
    2.7568    2.8657    3.5880 H   0  0  0  0  0  0  0  0  0  0  0  0
    4.0340   -1.1067   -1.1521 H   0  0  0  0  0  0  0  0  0  0  0  0
  2  1  1  6
  1 34  1  0
  1 35  1  0
  1 36  1  0
  2 22  1  0
  2 30  1  0
  2  3  1  0
  3  4  1  0
  3 37  1  0
  3 38  1  0
  4 19  1  0
  4  5  1  1
  4 17  1  0
  5  6  1  0
  5 39  1  0
  5 40  1  0
  6  7  1  0
  7  8  2  0
  7  9  1  0
  9 10  1  0
  9 11  1  0
  9 41  1  6
 10 42  1  0
 10 43  1  0
 11 12  1  0
 11 44  1  0
 11 45  1  0
 12 16  1  0
 12 13  2  0
 13 14  1  0
 13 46  1  0
 14 33  1  0
 14 15  1  0
 15 16  2  0
 15 47  1  0
 16 60  1  0
 17 18  2  0
 17 19  1  0
 19 20  1  0
 19 48  1  1
 20 29  1  1
 20 21  1  0
 20 30  1  0
 21 22  1  0
 22 23  1  0
 22 49  1  6
 23 29  2  0
 23 24  1  0
 24 25  1  0
 24 27  2  0
 25 26  1  0
 25 50  1  0
 25 51  1  0
 26 52  1  0
 27 28  1  0
 27 53  1  0
 28 29  1  0
 30 31  1  0
 30 32  1  0
 31 54  1  0
 31 55  1  0
 31 56  1  0
 32 57  1  0
 32 58  1  0
 32 59  1  0
M  CHG  1  16   1
M  END
>  <i_m_ct_stereo_status>  (218) 
1

>  <s_m_source_file>  (218) 
/var/tmp/pbs.5076255.sched01/tmp0pz6dnip/90w4u7_w6b.sdf

>  <i_m_source_file_index>  (218) 
3

>  <i_lp_mmshare_version>  (218) 
48012

>  <i_f3d_flags>  (218) 
0

>  <s_epik_input>  (218) 
W09IXVtDSDJdYzFbY0hdb2MyYzFbQ0BIXShPMylbQ0BAXShbQ0gzXSkoQzQoW0NIM10pW0NIM10pW0NIMl1DKEM1PU8pKFtDSF01W0NAXTIzNClbQ0gyXU9DKD1PKVtDQEhdKFtOSDJdKVtDSDJdYzZbY0hdW25IXVtjSF1uNg==

>  <s_epik_cmdline>  (218) 
J2VwaWtfcHl0aG9uJywgJy1waHQnLCAnMi4wJywgJy1waCcsICc3LjAnLCAnLXRuJywgJzgnLCAnLW1hJywgJzIwMCcsICctaW1hZScsICc8aW5maWxlLm1hZT4nLCAnLW9tYWUnLCAnPG91dGZpbGUubWFlPic=

>  <r_lp_tautomer_probability>  (218) 
1

>  <r_epik_Ionization_Penalty>  (218) 
0.470131

>  <r_epik_Ionization_Penalty_Charging>  (218) 
0

>  <r_epik_Ionization_Penalty_Neutral>  (218) 
0.470131

>  <r_epik_State_Penalty>  (218) 
0.630268

>  <r_epik_Charging_Adjusted_Penalty>  (218) 
0.630268

>  <i_epik_Tot_Q>  (218) 
1

>  <i_epik_Tot_abs_Q>  (218) 
1

>  <s_epik_Chemistry_Notes>  (218) 
This compound has an ester and may undergo hydrolysis at high or low pH.

>  <s_lp_Force_Field>  (218) 
OPLS3e

>  <r_lp_Energy>  (218) 
139.17

>  <b_lp_Chiralities_Consistent>  (218) 
1

>  <s_lp_Variant>  (218) 
63:0-1

>  <s_i_glide_gridfile>  (218) 
pfpi4k_grid

>  <i_i_glide_lignum>  (218) 
3

>  <i_i_glide_rotatable_bonds>  (218) 
8

>  <r_i_docking_score>  (218) 
-3.41691

>  <r_i_glide_ligand_efficiency>  (218) 
-0.106778

>  <r_i_glide_ligand_efficiency_sa>  (218) 
-0.339

>  <r_i_glide_ligand_efficiency_ln>  (218) 
-0.765139

>  <r_i_glide_gscore>  (218) 
-3.41691

>  <r_i_glide_lipo>  (218) 
-0.177627

>  <r_i_glide_hbond>  (218) 
-0.0750614

>  <r_i_glide_metal>  (218) 
-0

>  <r_i_glide_rewards>  (218) 
-0.919154

>  <r_i_glide_evdw>  (218) 
-27.9715

>  <r_i_glide_ecoul>  (218) 
-9.24702

>  <r_i_glide_erotb>  (218) 
0.612394

>  <r_i_glide_esite>  (218) 
-0.0718329

>  <r_i_glide_emodel>  (218) 
-50.1051

>  <r_i_glide_energy>  (218) 
-37.2185

>  <r_i_glide_einternal>  (218) 
3.62286

>  <r_i_glide_intrahb_reward>  (218) 
-0.5

>  <i_i_glide_confnum>  (218) 
4

>  <i_i_glide_posenum>  (218) 
7

>  <r_i_glide_eff_state_penalty>  (218) 
0

>  <ligand_id>  (218) 
63

>  <original_smiles>  (218) 
CC12CC3(COC(=O)C(N)Cc4c[nH]cn4)C(=O)C3C3(OC1c1c(CO)coc13)C2(C)C

>  <smiles>  (218) 
[H]OC([H])([H])c1c([H])oc2c1C1([H])OC23C2([H])C(=O)C2(C([H])([H])OC(=O)C([H])(N([H])[H])C([H])([H])c2c([H])n([H])c([H])[n+]2[H])C([H])([H])C1(C([H])([H])[H])C3(C([H])([H])[H])C([H])([H])[H]

$$$$
63:1:0
     RDKit          3D

 59 64  0  0  1  0  0  0  0  0999 V2000
    3.8979   -6.2727    6.1388 C   0  0  0  0  0  0  0  0  0  0  0  0
    2.7594   -5.4707    5.4788 C   0  0  2  0  0  0  0  0  0  0  0  0
    2.5718   -4.0500    6.2547 C   0  0  0  0  0  0  0  0  0  0  0  0
    1.8984   -2.9004    5.3875 C   0  0  2  0  0  0  0  0  0  0  0  0
    2.6491   -1.5744    5.4939 C   0  0  0  0  0  0  0  0  0  0  0  0
    2.3755   -0.7511    4.3748 O   0  0  0  0  0  0  0  0  0  0  0  0
    3.2444    0.1824    3.9555 C   0  0  0  0  0  0  0  0  0  0  0  0
    4.3579    0.3962    4.4368 O   0  0  0  0  0  0  0  0  0  0  0  0
    2.6386    0.9816    2.7810 C   0  0  2  0  0  0  0  0  0  0  0  0
    1.4402    1.7115    3.1976 N   0  0  0  0  0  0  0  0  0  0  0  0
    2.3317    0.0800    1.5638 C   0  0  0  0  0  0  0  0  0  0  0  0
    3.5298   -0.5500    0.8790 C   0  0  0  0  0  0  0  0  0  0  0  0
    4.8815   -0.5926    1.1773 C   0  0  0  0  0  0  0  0  0  0  0  0
    5.5743   -1.2930    0.1881 N   0  0  0  0  0  0  0  0  0  0  0  0
    4.6239   -1.6632   -0.6682 C   0  0  0  0  0  0  0  0  0  0  0  0
    3.4170   -1.2522   -0.3041 N   0  0  0  0  0  0  0  0  0  0  0  0
    0.4003   -2.7854    5.3649 C   0  0  0  0  0  0  0  0  0  0  0  0
   -0.6340   -2.3691    5.8955 O   0  0  0  0  0  0  0  0  0  0  0  0
    1.1007   -3.3152    4.1153 C   0  0  2  0  0  0  0  0  0  0  0  0
    1.4243   -4.7810    3.8516 C   0  0  1  0  0  0  0  0  0  0  0  0
    0.8302   -5.1790    5.1181 O   0  0  0  0  0  0  0  0  0  0  0  0
    1.4289   -6.3859    5.3902 C   0  0  1  0  0  0  0  0  0  0  0  0
    0.8420   -6.9313    4.0963 C   0  0  0  0  0  0  0  0  0  0  0  0
    0.3710   -8.0707    3.3943 C   0  0  0  0  0  0  0  0  0  0  0  0
    0.2433   -9.4641    3.9092 C   0  0  0  0  0  0  0  0  0  0  0  0
   -0.1838   -9.4550    5.2424 O   0  0  0  0  0  0  0  0  0  0  0  0
    0.0490   -7.5729    2.1443 C   0  0  0  0  0  0  0  0  0  0  0  0
    0.3648   -6.2386    1.9861 O   0  0  0  0  0  0  0  0  0  0  0  0
    0.7211   -5.9158    3.2408 C   0  0  0  0  0  0  0  0  0  0  0  0
    2.9728   -5.0952    3.9963 C   0  0  0  0  0  0  0  0  0  0  0  0
    3.9762   -3.9270    3.6950 C   0  0  0  0  0  0  0  0  0  0  0  0
    3.5741   -6.2867    3.1747 C   0  0  0  0  0  0  0  0  0  0  0  0
    2.4981   -1.3646   -0.7807 H   0  0  0  0  0  0  0  0  0  0  0  0
    4.8564   -5.7635    6.0512 H   0  0  0  0  0  0  0  0  0  0  0  0
    4.0022   -7.2634    5.6984 H   0  0  0  0  0  0  0  0  0  0  0  0
    3.6976   -6.4251    7.1995 H   0  0  0  0  0  0  0  0  0  0  0  0
    1.9794   -4.1976    7.1620 H   0  0  0  0  0  0  0  0  0  0  0  0
    3.5411   -3.6981    6.6119 H   0  0  0  0  0  0  0  0  0  0  0  0
    2.3463   -1.0368    6.3920 H   0  0  0  0  0  0  0  0  0  0  0  0
    3.7190   -1.7721    5.5726 H   0  0  0  0  0  0  0  0  0  0  0  0
    3.3577    1.7357    2.4573 H   0  0  0  0  0  0  0  0  0  0  0  0
    1.6742    2.3795    3.9158 H   0  0  0  0  0  0  0  0  0  0  0  0
    1.0038    2.2427    2.4517 H   0  0  0  0  0  0  0  0  0  0  0  0
    1.6326   -0.7165    1.8278 H   0  0  0  0  0  0  0  0  0  0  0  0
    1.7905    0.6656    0.8200 H   0  0  0  0  0  0  0  0  0  0  0  0
    5.3972   -0.1690    2.0221 H   0  0  0  0  0  0  0  0  0  0  0  0
    4.8457   -2.2387   -1.5563 H   0  0  0  0  0  0  0  0  0  0  0  0
    1.1679   -2.6914    3.2392 H   0  0  0  0  0  0  0  0  0  0  0  0
    1.0454   -6.8382    6.2999 H   0  0  0  0  0  0  0  0  0  0  0  0
   -0.4770  -10.0203    3.3038 H   0  0  0  0  0  0  0  0  0  0  0  0
    1.2032   -9.9803    3.8297 H   0  0  0  0  0  0  0  0  0  0  0  0
   -0.9063  -10.0970    5.2798 H   0  0  0  0  0  0  0  0  0  0  0  0
   -0.3838   -8.0360    1.2704 H   0  0  0  0  0  0  0  0  0  0  0  0
    4.7062   -4.1848    2.9282 H   0  0  0  0  0  0  0  0  0  0  0  0
    4.5657   -3.6500    4.5694 H   0  0  0  0  0  0  0  0  0  0  0  0
    3.4949   -3.0313    3.3071 H   0  0  0  0  0  0  0  0  0  0  0  0
    3.3886   -6.1590    2.1059 H   0  0  0  0  0  0  0  0  0  0  0  0
    3.2249   -7.2786    3.4600 H   0  0  0  0  0  0  0  0  0  0  0  0
    4.6597   -6.3400    3.3044 H   0  0  0  0  0  0  0  0  0  0  0  0
  2  1  1  1
  1 34  1  0
  1 35  1  0
  1 36  1  0
  2 22  1  0
  2 30  1  0
  2  3  1  0
  3  4  1  0
  3 37  1  0
  3 38  1  0
  4 19  1  0
  4  5  1  6
  4 17  1  0
  5  6  1  0
  5 39  1  0
  5 40  1  0
  6  7  1  0
  7  8  2  0
  7  9  1  0
  9 10  1  0
  9 11  1  0
  9 41  1  6
 10 42  1  0
 10 43  1  0
 11 44  1  0
 11 45  1  0
 11 12  1  0
 12 13  2  0
 12 16  1  0
 13 46  1  0
 13 14  1  0
 14 15  2  0
 15 16  1  0
 15 47  1  0
 16 33  1  0
 17 18  2  0
 17 19  1  0
 19 20  1  0
 19 48  1  6
 20 29  1  6
 20 21  1  0
 20 30  1  0
 21 22  1  0
 22 23  1  0
 22 49  1  1
 23 29  2  0
 23 24  1  0
 24 25  1  0
 24 27  2  0
 25 26  1  0
 25 50  1  0
 25 51  1  0
 26 52  1  0
 27 28  1  0
 27 53  1  0
 28 29  1  0
 30 31  1  0
 30 32  1  0
 31 54  1  0
 31 55  1  0
 31 56  1  0
 32 57  1  0
 32 58  1  0
 32 59  1  0
M  END
>  <i_m_ct_stereo_status>  (219) 
1

>  <s_m_source_file>  (219) 
/var/tmp/pbs.5076255.sched01/tmp0pz6dnip/90w4u7_w6b.sdf

>  <i_m_source_file_index>  (219) 
4

>  <i_lp_mmshare_version>  (219) 
48012

>  <i_f3d_flags>  (219) 
0

>  <s_epik_input>  (219) 
W09IXVtDSDJdYzFbY0hdb2MyYzFbQ0BIXShPMylbQ0BAXShbQ0gzXSkoQzQoW0NIM10pW0NIM10pW0NIMl1DKEM1PU8pKFtDSF01W0NAXTIzNClbQ0gyXU9DKD1PKVtDQEhdKFtOSDJdKVtDSDJdYzZbY0hdW25IXVtjSF1uNg==

>  <s_epik_cmdline>  (219) 
J2VwaWtfcHl0aG9uJywgJy1waHQnLCAnMi4wJywgJy1waCcsICc3LjAnLCAnLXRuJywgJzgnLCAnLW1hJywgJzIwMCcsICctaW1hZScsICc8aW5maWxlLm1hZT4nLCAnLW9tYWUnLCAnPG91dGZpbGUubWFlPic=

>  <r_lp_tautomer_probability>  (219) 
0.5

>  <r_epik_Ionization_Penalty>  (219) 
0.797724

>  <r_epik_Ionization_Penalty_Charging>  (219) 
0.587254

>  <r_epik_Ionization_Penalty_Neutral>  (219) 
0.21047

>  <r_epik_State_Penalty>  (219) 
0.911074

>  <r_epik_Charging_Adjusted_Penalty>  (219) 
1.49833

>  <i_epik_Tot_Q>  (219) 
0

>  <i_epik_Tot_abs_Q>  (219) 
0

>  <s_epik_Chemistry_Notes>  (219) 
This compound has an ester and may undergo hydrolysis at high or low pH.

>  <s_lp_Force_Field>  (219) 
OPLS3e

>  <r_lp_Energy>  (219) 
135.191

>  <b_lp_Chiralities_Consistent>  (219) 
1

>  <s_lp_Variant>  (219) 
63:0-2

>  <s_i_glide_gridfile>  (219) 
pfpi4k_grid

>  <i_i_glide_lignum>  (219) 
4

>  <i_i_glide_rotatable_bonds>  (219) 
8

>  <r_i_docking_score>  (219) 
-3.71605

>  <r_i_glide_ligand_efficiency>  (219) 
-0.116126

>  <r_i_glide_ligand_efficiency_sa>  (219) 
-0.368678

>  <r_i_glide_ligand_efficiency_ln>  (219) 
-0.832124

>  <r_i_glide_gscore>  (219) 
-3.71605

>  <r_i_glide_lipo>  (219) 
-0.178503

>  <r_i_glide_hbond>  (219) 
-0.508199

>  <r_i_glide_metal>  (219) 
-0

>  <r_i_glide_rewards>  (219) 
-0.399021

>  <r_i_glide_evdw>  (219) 
-23.3049

>  <r_i_glide_ecoul>  (219) 
-12.9412

>  <r_i_glide_erotb>  (219) 
0.614935

>  <r_i_glide_esite>  (219) 
-0.138842

>  <r_i_glide_emodel>  (219) 
-44.9535

>  <r_i_glide_energy>  (219) 
-36.246

>  <r_i_glide_einternal>  (219) 
3.15115

>  <r_i_glide_intrahb_reward>  (219) 
-0

>  <i_i_glide_confnum>  (219) 
5

>  <i_i_glide_posenum>  (219) 
10

>  <r_i_glide_eff_state_penalty>  (219) 
0

>  <ligand_id>  (219) 
63

>  <original_smiles>  (219) 
CC12CC3(COC(=O)C(N)Cc4c[nH]cn4)C(=O)C3C3(OC1c1c(CO)coc13)C2(C)C

>  <smiles>  (219) 
[H]OC([H])([H])c1c([H])oc2c1C1([H])OC23C2([H])C(=O)C2(C([H])([H])OC(=O)C([H])(N([H])[H])C([H])([H])c2c([H])nc([H])n2[H])C([H])([H])C1(C([H])([H])[H])C3(C([H])([H])[H])C([H])([H])[H]

$$$$
63:1:1
     RDKit          3D

 59 64  0  0  1  0  0  0  0  0999 V2000
    4.1384   -6.4098    6.6259 C   0  0  0  0  0  0  0  0  0  0  0  0
    2.8545   -5.7130    6.1364 C   0  0  2  0  0  0  0  0  0  0  0  0
    2.8859   -4.1404    6.5711 C   0  0  0  0  0  0  0  0  0  0  0  0
    1.9847   -3.1821    5.6788 C   0  0  2  0  0  0  0  0  0  0  0  0
    2.7141   -1.9149    5.2523 C   0  0  0  0  0  0  0  0  0  0  0  0
    2.2903   -1.5039    3.9590 O   0  0  0  0  0  0  0  0  0  0  0  0
    2.1054   -0.2127    3.6771 C   0  0  0  0  0  0  0  0  0  0  0  0
    2.3343    0.7212    4.4486 O   0  0  0  0  0  0  0  0  0  0  0  0
    1.5573   -0.0716    2.2398 C   0  0  2  0  0  0  0  0  0  0  0  0
    2.6083   -0.3467    1.2621 N   0  0  0  0  0  0  0  0  0  0  0  0
    0.8782    1.2920    1.9676 C   0  0  0  0  0  0  0  0  0  0  0  0
   -0.2344    1.6946    2.9262 C   0  0  0  0  0  0  0  0  0  0  0  0
   -0.8485    1.0507    3.9895 C   0  0  0  0  0  0  0  0  0  0  0  0
   -1.7816    1.8939    4.5918 N   0  0  0  0  0  0  0  0  0  0  0  0
   -1.7307    3.0037    3.8691 C   0  0  0  0  0  0  0  0  0  0  0  0
   -0.8300    2.9401    2.8715 N   0  0  0  0  0  0  0  0  0  0  0  0
    0.5377   -2.9833    6.0381 C   0  0  0  0  0  0  0  0  0  0  0  0
   -0.3085   -2.3939    6.7080 O   0  0  0  0  0  0  0  0  0  0  0  0
    0.8686   -3.8280    4.8103 C   0  0  2  0  0  0  0  0  0  0  0  0
    1.1043   -5.3275    4.8277 C   0  0  1  0  0  0  0  0  0  0  0  0
    0.9035   -5.3862    6.2708 O   0  0  0  0  0  0  0  0  0  0  0  0
    1.5589   -6.5382    6.6370 C   0  0  1  0  0  0  0  0  0  0  0  0
    0.6170   -7.3105    5.7313 C   0  0  0  0  0  0  0  0  0  0  0  0
   -0.0160   -8.5471    5.4826 C   0  0  0  0  0  0  0  0  0  0  0  0
    0.0709   -9.7990    6.3104 C   0  0  0  0  0  0  0  0  0  0  0  0
    1.2468   -9.8414    7.0874 O   0  0  0  0  0  0  0  0  0  0  0  0
   -0.6918   -8.3273    4.2880 C   0  0  0  0  0  0  0  0  0  0  0  0
   -0.4527   -7.0718    3.7349 O   0  0  0  0  0  0  0  0  0  0  0  0
    0.2473   -6.5080    4.7290 C   0  0  0  0  0  0  0  0  0  0  0  0
    2.6362   -5.7047    4.6089 C   0  0  0  0  0  0  0  0  0  0  0  0
    3.5088   -4.7058    3.7735 C   0  0  0  0  0  0  0  0  0  0  0  0
    2.9850   -7.0900    3.9632 C   0  0  0  0  0  0  0  0  0  0  0  0
   -0.5748    3.6540    2.1749 H   0  0  0  0  0  0  0  0  0  0  0  0
    5.0297   -5.9955    6.1578 H   0  0  0  0  0  0  0  0  0  0  0  0
    4.1199   -7.4798    6.4239 H   0  0  0  0  0  0  0  0  0  0  0  0
    4.2489   -6.3010    7.7046 H   0  0  0  0  0  0  0  0  0  0  0  0
    2.5766   -4.0400    7.6152 H   0  0  0  0  0  0  0  0  0  0  0  0
    3.9170   -3.7786    6.5526 H   0  0  0  0  0  0  0  0  0  0  0  0
    2.5629   -1.1509    6.0183 H   0  0  0  0  0  0  0  0  0  0  0  0
    3.7874   -2.0903    5.1893 H   0  0  0  0  0  0  0  0  0  0  0  0
    0.7897   -0.8328    2.0765 H   0  0  0  0  0  0  0  0  0  0  0  0
    2.9198   -1.3016    1.3522 H   0  0  0  0  0  0  0  0  0  0  0  0
    2.2297   -0.2997    0.3157 H   0  0  0  0  0  0  0  0  0  0  0  0
    1.6394    2.0728    1.9739 H   0  0  0  0  0  0  0  0  0  0  0  0
    0.4548    1.3083    0.9592 H   0  0  0  0  0  0  0  0  0  0  0  0
   -0.6480    0.0730    4.3871 H   0  0  0  0  0  0  0  0  0  0  0  0
   -2.3527    3.8530    4.0719 H   0  0  0  0  0  0  0  0  0  0  0  0
    0.6742   -3.4331    3.8279 H   0  0  0  0  0  0  0  0  0  0  0  0
    1.4538   -6.7476    7.6997 H   0  0  0  0  0  0  0  0  0  0  0  0
   -0.7983   -9.8261    6.9667 H   0  0  0  0  0  0  0  0  0  0  0  0
    0.0268  -10.6876    5.6781 H   0  0  0  0  0  0  0  0  0  0  0  0
    1.3864  -10.7890    7.3032 H   0  0  0  0  0  0  0  0  0  0  0  0
   -1.3333   -8.9646    3.6983 H   0  0  0  0  0  0  0  0  0  0  0  0
    3.9941   -5.1797    2.9212 H   0  0  0  0  0  0  0  0  0  0  0  0
    4.3148   -4.2635    4.3586 H   0  0  0  0  0  0  0  0  0  0  0  0
    2.9274   -3.9047    3.3251 H   0  0  0  0  0  0  0  0  0  0  0  0
    2.5048   -7.2018    2.9882 H   0  0  0  0  0  0  0  0  0  0  0  0
    2.7357   -7.9645    4.5636 H   0  0  0  0  0  0  0  0  0  0  0  0
    4.0629   -7.1784    3.7953 H   0  0  0  0  0  0  0  0  0  0  0  0
  2  1  1  6
  1 34  1  0
  1 35  1  0
  1 36  1  0
  2 22  1  0
  2 30  1  0
  2  3  1  0
  3  4  1  0
  3 37  1  0
  3 38  1  0
  4 19  1  0
  4  5  1  6
  4 17  1  0
  5  6  1  0
  5 39  1  0
  5 40  1  0
  6  7  1  0
  7  8  2  0
  7  9  1  0
  9 10  1  0
  9 11  1  0
  9 41  1  1
 10 42  1  0
 10 43  1  0
 11 44  1  0
 11 45  1  0
 11 12  1  0
 12 13  2  0
 12 16  1  0
 13 46  1  0
 13 14  1  0
 14 15  2  0
 15 16  1  0
 15 47  1  0
 16 33  1  0
 17 18  2  0
 17 19  1  0
 19 20  1  0
 19 48  1  6
 20 29  1  6
 20 21  1  0
 20 30  1  0
 21 22  1  0
 22 23  1  0
 22 49  1  1
 23 29  2  0
 23 24  1  0
 24 25  1  0
 24 27  2  0
 25 26  1  0
 25 50  1  0
 25 51  1  0
 26 52  1  0
 27 28  1  0
 27 53  1  0
 28 29  1  0
 30 31  1  0
 30 32  1  0
 31 54  1  0
 31 55  1  0
 31 56  1  0
 32 57  1  0
 32 58  1  0
 32 59  1  0
M  END
>  <i_m_ct_stereo_status>  (220) 
1

>  <s_m_source_file>  (220) 
/var/tmp/pbs.5076255.sched01/tmp0pz6dnip/90w4u7_w6b.sdf

>  <i_m_source_file_index>  (220) 
4

>  <i_lp_mmshare_version>  (220) 
48012

>  <i_f3d_flags>  (220) 
0

>  <s_epik_input>  (220) 
W09IXVtDSDJdYzFbY0hdb2MyYzFbQ0BIXShPMylbQ0BAXShbQ0gzXSkoQzQoW0NIM10pW0NIM10pW0NIMl1DKEM1PU8pKFtDSF01W0NAXTIzNClbQ0gyXU9DKD1PKVtDQEhdKFtOSDJdKVtDSDJdYzZbY0hdW25IXVtjSF1uNg==

>  <s_epik_cmdline>  (220) 
J2VwaWtfcHl0aG9uJywgJy1waHQnLCAnMi4wJywgJy1waCcsICc3LjAnLCAnLXRuJywgJzgnLCAnLW1hJywgJzIwMCcsICctaW1hZScsICc8aW5maWxlLm1hZT4nLCAnLW9tYWUnLCAnPG91dGZpbGUubWFlPic=

>  <r_lp_tautomer_probability>  (220) 
0.5

>  <r_epik_Ionization_Penalty>  (220) 
0.797724

>  <r_epik_Ionization_Penalty_Charging>  (220) 
0.587254

>  <r_epik_Ionization_Penalty_Neutral>  (220) 
0.21047

>  <r_epik_State_Penalty>  (220) 
0.911074

>  <r_epik_Charging_Adjusted_Penalty>  (220) 
1.49833

>  <i_epik_Tot_Q>  (220) 
0

>  <i_epik_Tot_abs_Q>  (220) 
0

>  <s_epik_Chemistry_Notes>  (220) 
This compound has an ester and may undergo hydrolysis at high or low pH.

>  <s_lp_Force_Field>  (220) 
OPLS3e

>  <r_lp_Energy>  (220) 
135.191

>  <b_lp_Chiralities_Consistent>  (220) 
1

>  <s_lp_Variant>  (220) 
63:0-2

>  <s_i_glide_gridfile>  (220) 
pfpi4k_grid

>  <i_i_glide_lignum>  (220) 
4

>  <i_i_glide_rotatable_bonds>  (220) 
8

>  <r_i_docking_score>  (220) 
-3.61913

>  <r_i_glide_ligand_efficiency>  (220) 
-0.113098

>  <r_i_glide_ligand_efficiency_sa>  (220) 
-0.359064

>  <r_i_glide_ligand_efficiency_ln>  (220) 
-0.810423

>  <r_i_glide_gscore>  (220) 
-3.61913

>  <r_i_glide_lipo>  (220) 
-0.00530344

>  <r_i_glide_hbond>  (220) 
-0.411428

>  <r_i_glide_metal>  (220) 
-0

>  <r_i_glide_rewards>  (220) 
-0.399021

>  <r_i_glide_evdw>  (220) 
-21.7002

>  <r_i_glide_ecoul>  (220) 
-14.5691

>  <r_i_glide_erotb>  (220) 
0.614935

>  <r_i_glide_esite>  (220) 
-0.147939

>  <r_i_glide_emodel>  (220) 
-44.9193

>  <r_i_glide_energy>  (220) 
-36.2693

>  <r_i_glide_einternal>  (220) 
2.47182

>  <r_i_glide_intrahb_reward>  (220) 
-0

>  <i_i_glide_confnum>  (220) 
4

>  <i_i_glide_posenum>  (220) 
6

>  <r_i_glide_eff_state_penalty>  (220) 
0

>  <ligand_id>  (220) 
63

>  <original_smiles>  (220) 
CC12CC3(COC(=O)C(N)Cc4c[nH]cn4)C(=O)C3C3(OC1c1c(CO)coc13)C2(C)C

>  <smiles>  (220) 
[H]OC([H])([H])c1c([H])oc2c1C1([H])OC23C2([H])C(=O)C2(C([H])([H])OC(=O)C([H])(N([H])[H])C([H])([H])c2c([H])nc([H])n2[H])C([H])([H])C1(C([H])([H])[H])C3(C([H])([H])[H])C([H])([H])[H]

$$$$
63:1:2
     RDKit          3D

 59 64  0  0  1  0  0  0  0  0999 V2000
    5.0621   -7.7949    4.6359 C   0  0  0  0  0  0  0  0  0  0  0  0
    3.9872   -6.6964    4.7385 C   0  0  2  0  0  0  0  0  0  0  0  0
    4.6912   -5.2850    5.1580 C   0  0  0  0  0  0  0  0  0  0  0  0
    3.8828   -3.9843    4.7439 C   0  0  2  0  0  0  0  0  0  0  0  0
    4.7587   -2.9251    4.0867 C   0  0  0  0  0  0  0  0  0  0  0  0
    4.0612   -2.3331    3.0124 O   0  0  0  0  0  0  0  0  0  0  0  0
    4.4809   -1.2102    2.4355 C   0  0  0  0  0  0  0  0  0  0  0  0
    5.4466   -0.5362    2.7892 O   0  0  0  0  0  0  0  0  0  0  0  0
    3.5714   -0.8787    1.2325 C   0  0  2  0  0  0  0  0  0  0  0  0
    2.1856   -0.6901    1.6791 N   0  0  0  0  0  0  0  0  0  0  0  0
    3.6601   -1.9442    0.0956 C   0  0  0  0  0  0  0  0  0  0  0  0
    5.0319   -2.1984   -0.5169 C   0  0  0  0  0  0  0  0  0  0  0  0
    6.2921   -1.7216   -0.2121 C   0  0  0  0  0  0  0  0  0  0  0  0
    7.2466   -2.2825   -1.0551 N   0  0  0  0  0  0  0  0  0  0  0  0
    6.5419   -3.0559   -1.8711 C   0  0  0  0  0  0  0  0  0  0  0  0
    5.2307   -3.0459   -1.5979 N   0  0  0  0  0  0  0  0  0  0  0  0
    2.8298   -3.4398    5.6720 C   0  0  0  0  0  0  0  0  0  0  0  0
    2.5522   -2.7602    6.6513 O   0  0  0  0  0  0  0  0  0  0  0  0
    2.3705   -4.1465    4.3963 C   0  0  2  0  0  0  0  0  0  0  0  0
    2.0945   -5.6382    4.2836 C   0  0  1  0  0  0  0  0  0  0  0  0
    2.4576   -5.8556    5.6763 O   0  0  0  0  0  0  0  0  0  0  0  0
    2.7962   -7.1845    5.7149 C   0  0  1  0  0  0  0  0  0  0  0  0
    1.3815   -7.5139    5.2618 C   0  0  0  0  0  0  0  0  0  0  0  0
    0.3402   -8.4632    5.2850 C   0  0  0  0  0  0  0  0  0  0  0  0
    0.3197   -9.7807    6.0162 C   0  0  0  0  0  0  0  0  0  0  0  0
    1.3143   -9.8561    7.0190 O   0  0  0  0  0  0  0  0  0  0  0  0
   -0.6278   -7.8942    4.4655 C   0  0  0  0  0  0  0  0  0  0  0  0
   -0.2303   -6.6940    3.8831 O   0  0  0  0  0  0  0  0  0  0  0  0
    0.9352   -6.4933    4.5181 C   0  0  0  0  0  0  0  0  0  0  0  0
    3.2117   -6.3967    3.4411 C   0  0  0  0  0  0  0  0  0  0  0  0
    3.9610   -5.5763    2.3393 C   0  0  0  0  0  0  0  0  0  0  0  0
    2.8125   -7.7046    2.6782 C   0  0  0  0  0  0  0  0  0  0  0  0
    4.5241   -3.5842   -2.0838 H   0  0  0  0  0  0  0  0  0  0  0  0
    5.7836   -7.5817    3.8490 H   0  0  0  0  0  0  0  0  0  0  0  0
    4.6225   -8.7707    4.4354 H   0  0  0  0  0  0  0  0  0  0  0  0
    5.6083   -7.8860    5.5738 H   0  0  0  0  0  0  0  0  0  0  0  0
    4.8561   -5.2572    6.2377 H   0  0  0  0  0  0  0  0  0  0  0  0
    5.6918   -5.2346    4.7199 H   0  0  0  0  0  0  0  0  0  0  0  0
    5.0445   -2.1763    4.8265 H   0  0  0  0  0  0  0  0  0  0  0  0
    5.6661   -3.3724    3.6818 H   0  0  0  0  0  0  0  0  0  0  0  0
    3.8876    0.0698    0.7938 H   0  0  0  0  0  0  0  0  0  0  0  0
    2.1000    0.1231    2.2675 H   0  0  0  0  0  0  0  0  0  0  0  0
    1.5515   -0.5451    0.8861 H   0  0  0  0  0  0  0  0  0  0  0  0
    3.2539   -2.8969    0.4388 H   0  0  0  0  0  0  0  0  0  0  0  0
    3.0209   -1.6390   -0.7342 H   0  0  0  0  0  0  0  0  0  0  0  0
    6.6084   -1.0251    0.5507 H   0  0  0  0  0  0  0  0  0  0  0  0
    7.0029   -3.6274   -2.6518 H   0  0  0  0  0  0  0  0  0  0  0  0
    1.9489   -3.5655    3.5918 H   0  0  0  0  0  0  0  0  0  0  0  0
    3.0487   -7.5100    6.7211 H   0  0  0  0  0  0  0  0  0  0  0  0
   -0.6465   -9.8966    6.4971 H   0  0  0  0  0  0  0  0  0  0  0  0
    0.4255  -10.6002    5.3010 H   0  0  0  0  0  0  0  0  0  0  0  0
    1.4099  -10.7787    7.2724 H   0  0  0  0  0  0  0  0  0  0  0  0
   -1.6164   -8.2158    4.1819 H   0  0  0  0  0  0  0  0  0  0  0  0
    3.9007   -6.0336    1.3527 H   0  0  0  0  0  0  0  0  0  0  0  0
    5.0246   -5.4612    2.5507 H   0  0  0  0  0  0  0  0  0  0  0  0
    3.5255   -4.5964    2.1836 H   0  0  0  0  0  0  0  0  0  0  0  0
    1.9844   -7.5233    1.9892 H   0  0  0  0  0  0  0  0  0  0  0  0
    2.5493   -8.5520    3.3107 H   0  0  0  0  0  0  0  0  0  0  0  0
    3.6525   -8.0670    2.0788 H   0  0  0  0  0  0  0  0  0  0  0  0
  2  1  1  6
  1 34  1  0
  1 35  1  0
  1 36  1  0
  2 22  1  0
  2 30  1  0
  2  3  1  0
  3  4  1  0
  3 37  1  0
  3 38  1  0
  4 19  1  0
  4  5  1  6
  4 17  1  0
  5  6  1  0
  5 39  1  0
  5 40  1  0
  6  7  1  0
  7  8  2  0
  7  9  1  0
  9 10  1  0
  9 11  1  0
  9 41  1  6
 10 42  1  0
 10 43  1  0
 11 44  1  0
 11 45  1  0
 11 12  1  0
 12 13  2  0
 12 16  1  0
 13 46  1  0
 13 14  1  0
 14 15  2  0
 15 16  1  0
 15 47  1  0
 16 33  1  0
 17 18  2  0
 17 19  1  0
 19 20  1  0
 19 48  1  6
 20 29  1  1
 20 21  1  0
 20 30  1  0
 21 22  1  0
 22 23  1  0
 22 49  1  1
 23 29  2  0
 23 24  1  0
 24 25  1  0
 24 27  2  0
 25 26  1  0
 25 50  1  0
 25 51  1  0
 26 52  1  0
 27 28  1  0
 27 53  1  0
 28 29  1  0
 30 31  1  0
 30 32  1  0
 31 54  1  0
 31 55  1  0
 31 56  1  0
 32 57  1  0
 32 58  1  0
 32 59  1  0
M  END
>  <i_m_ct_stereo_status>  (221) 
1

>  <s_m_source_file>  (221) 
/var/tmp/pbs.5076255.sched01/tmp0pz6dnip/90w4u7_w6b.sdf

>  <i_m_source_file_index>  (221) 
4

>  <i_lp_mmshare_version>  (221) 
48012

>  <i_f3d_flags>  (221) 
0

>  <s_epik_input>  (221) 
W09IXVtDSDJdYzFbY0hdb2MyYzFbQ0BIXShPMylbQ0BAXShbQ0gzXSkoQzQoW0NIM10pW0NIM10pW0NIMl1DKEM1PU8pKFtDSF01W0NAXTIzNClbQ0gyXU9DKD1PKVtDQEhdKFtOSDJdKVtDSDJdYzZbY0hdW25IXVtjSF1uNg==

>  <s_epik_cmdline>  (221) 
J2VwaWtfcHl0aG9uJywgJy1waHQnLCAnMi4wJywgJy1waCcsICc3LjAnLCAnLXRuJywgJzgnLCAnLW1hJywgJzIwMCcsICctaW1hZScsICc8aW5maWxlLm1hZT4nLCAnLW9tYWUnLCAnPG91dGZpbGUubWFlPic=

>  <r_lp_tautomer_probability>  (221) 
0.5

>  <r_epik_Ionization_Penalty>  (221) 
0.797724

>  <r_epik_Ionization_Penalty_Charging>  (221) 
0.587254

>  <r_epik_Ionization_Penalty_Neutral>  (221) 
0.21047

>  <r_epik_State_Penalty>  (221) 
0.911074

>  <r_epik_Charging_Adjusted_Penalty>  (221) 
1.49833

>  <i_epik_Tot_Q>  (221) 
0

>  <i_epik_Tot_abs_Q>  (221) 
0

>  <s_epik_Chemistry_Notes>  (221) 
This compound has an ester and may undergo hydrolysis at high or low pH.

>  <s_lp_Force_Field>  (221) 
OPLS3e

>  <r_lp_Energy>  (221) 
135.191

>  <b_lp_Chiralities_Consistent>  (221) 
1

>  <s_lp_Variant>  (221) 
63:0-2

>  <s_i_glide_gridfile>  (221) 
pfpi4k_grid

>  <i_i_glide_lignum>  (221) 
4

>  <i_i_glide_rotatable_bonds>  (221) 
8

>  <r_i_docking_score>  (221) 
-3.55077

>  <r_i_glide_ligand_efficiency>  (221) 
-0.110961

>  <r_i_glide_ligand_efficiency_sa>  (221) 
-0.352281

>  <r_i_glide_ligand_efficiency_ln>  (221) 
-0.795113

>  <r_i_glide_gscore>  (221) 
-3.55077

>  <r_i_glide_lipo>  (221) 
-0.0307955

>  <r_i_glide_hbond>  (221) 
-0.456

>  <r_i_glide_metal>  (221) 
-0

>  <r_i_glide_rewards>  (221) 
-0.51921

>  <r_i_glide_evdw>  (221) 
-22.6425

>  <r_i_glide_ecoul>  (221) 
-13.5171

>  <r_i_glide_erotb>  (221) 
0.614935

>  <r_i_glide_esite>  (221) 
0

>  <r_i_glide_emodel>  (221) 
-44.9229

>  <r_i_glide_energy>  (221) 
-36.1596

>  <r_i_glide_einternal>  (221) 
1.94711

>  <r_i_glide_intrahb_reward>  (221) 
-0

>  <i_i_glide_confnum>  (221) 
5

>  <i_i_glide_posenum>  (221) 
8

>  <r_i_glide_eff_state_penalty>  (221) 
0

>  <ligand_id>  (221) 
63

>  <original_smiles>  (221) 
CC12CC3(COC(=O)C(N)Cc4c[nH]cn4)C(=O)C3C3(OC1c1c(CO)coc13)C2(C)C

>  <smiles>  (221) 
[H]OC([H])([H])c1c([H])oc2c1C1([H])OC23C2([H])C(=O)C2(C([H])([H])OC(=O)C([H])(N([H])[H])C([H])([H])c2c([H])nc([H])n2[H])C([H])([H])C1(C([H])([H])[H])C3(C([H])([H])[H])C([H])([H])[H]

$$$$
63:2:0
     RDKit          3D

 60 65  0  0  1  0  0  0  0  0999 V2000
    1.7040   -4.7992    4.9609 C   0  0  0  0  0  0  0  0  0  0  0  0
    2.2914   -4.8521    3.5378 C   0  0  2  0  0  0  0  0  0  0  0  0
    2.0809   -3.4057    2.8408 C   0  0  0  0  0  0  0  0  0  0  0  0
    3.0707   -3.0567    1.6387 C   0  0  2  0  0  0  0  0  0  0  0  0
    3.6559   -1.6486    1.7505 C   0  0  0  0  0  0  0  0  0  0  0  0
    2.6814   -0.6094    1.6487 O   0  0  0  0  0  0  0  0  0  0  0  0
    2.1893   -0.0327    2.7609 C   0  0  0  0  0  0  0  0  0  0  0  0
    2.5975   -0.2451    3.9062 O   0  0  0  0  0  0  0  0  0  0  0  0
    1.0789    0.9696    2.4156 C   0  0  2  0  0  0  0  0  0  0  0  0
    1.7703    2.2153    2.0695 N   0  0  0  0  0  0  0  0  0  0  0  0
    0.1112    1.1721    3.6039 C   0  0  0  0  0  0  0  0  0  0  0  0
   -0.8638    2.3202    3.4832 C   0  0  0  0  0  0  0  0  0  0  0  0
   -0.7056    3.6787    3.6816 C   0  0  0  0  0  0  0  0  0  0  0  0
   -1.9132    4.3400    3.4497 N   0  0  0  0  0  0  0  0  0  0  0  0
   -2.7415    3.3651    3.0875 C   0  0  0  0  0  0  0  0  0  0  0  0
   -2.1854    2.1501    3.0956 N   0  0  0  0  0  0  0  0  0  0  0  0
    2.7996   -3.5305    0.2329 C   0  0  0  0  0  0  0  0  0  0  0  0
    2.2266   -3.3815   -0.8423 O   0  0  0  0  0  0  0  0  0  0  0  0
    3.8816   -4.2443    1.0170 C   0  0  2  0  0  0  0  0  0  0  0  0
    3.6288   -5.4640    1.8976 C   0  0  1  0  0  0  0  0  0  0  0  0
    2.1914   -5.4436    1.6421 O   0  0  0  0  0  0  0  0  0  0  0  0
    1.6710   -6.1012    2.7259 C   0  0  1  0  0  0  0  0  0  0  0  0
    2.4626   -7.3293    2.3066 C   0  0  0  0  0  0  0  0  0  0  0  0
    2.5212   -8.7469    2.3152 C   0  0  0  0  0  0  0  0  0  0  0  0
    1.5075   -9.7157    2.8569 C   0  0  0  0  0  0  0  0  0  0  0  0
    0.1956   -9.3641    2.4833 O   0  0  0  0  0  0  0  0  0  0  0  0
    3.7372   -9.0049    1.7009 C   0  0  0  0  0  0  0  0  0  0  0  0
    4.4610   -7.8662    1.3828 O   0  0  0  0  0  0  0  0  0  0  0  0
    3.5663   -6.9142    1.6804 C   0  0  0  0  0  0  0  0  0  0  0  0
    3.8033   -5.1268    3.4408 C   0  0  0  0  0  0  0  0  0  0  0  0
    4.7737   -3.9483    3.8076 C   0  0  0  0  0  0  0  0  0  0  0  0
    4.2478   -6.2627    4.4193 C   0  0  0  0  0  0  0  0  0  0  0  0
   -2.6911    1.2904    2.8822 H   0  0  0  0  0  0  0  0  0  0  0  0
    2.2237   -4.0754    5.5874 H   0  0  0  0  0  0  0  0  0  0  0  0
    1.7542   -5.7684    5.4529 H   0  0  0  0  0  0  0  0  0  0  0  0
    0.6525   -4.5132    4.9326 H   0  0  0  0  0  0  0  0  0  0  0  0
    1.0560   -3.2978    2.4892 H   0  0  0  0  0  0  0  0  0  0  0  0
    2.1812   -2.6627    3.6253 H   0  0  0  0  0  0  0  0  0  0  0  0
    4.2397   -1.5590    2.6668 H   0  0  0  0  0  0  0  0  0  0  0  0
    4.3815   -1.5082    0.9532 H   0  0  0  0  0  0  0  0  0  0  0  0
    0.5234    0.6144    1.5420 H   0  0  0  0  0  0  0  0  0  0  0  0
    2.3875    2.0206    1.3029 H   0  0  0  0  0  0  0  0  0  0  0  0
    2.3212    2.5150    2.8595 H   0  0  0  0  0  0  0  0  0  0  0  0
   -0.4475    0.2493    3.7713 H   0  0  0  0  0  0  0  0  0  0  0  0
    0.6673    1.3440    4.5281 H   0  0  0  0  0  0  0  0  0  0  0  0
    0.1818    4.2247    3.9678 H   0  0  0  0  0  0  0  0  0  0  0  0
   -3.7787    3.5283    2.8298 H   0  0  0  0  0  0  0  0  0  0  0  0
    4.9118   -4.0980    0.7203 H   0  0  0  0  0  0  0  0  0  0  0  0
    0.5902   -6.1900    2.6633 H   0  0  0  0  0  0  0  0  0  0  0  0
    1.7192  -10.7216    2.4894 H   0  0  0  0  0  0  0  0  0  0  0  0
    1.5775   -9.7433    3.9457 H   0  0  0  0  0  0  0  0  0  0  0  0
    0.1393   -9.4562    1.5320 H   0  0  0  0  0  0  0  0  0  0  0  0
    4.2340   -9.9279    1.4304 H   0  0  0  0  0  0  0  0  0  0  0  0
    5.5677   -4.2571    4.4861 H   0  0  0  0  0  0  0  0  0  0  0  0
    4.2608   -3.1335    4.3184 H   0  0  0  0  0  0  0  0  0  0  0  0
    5.3101   -3.5384    2.9538 H   0  0  0  0  0  0  0  0  0  0  0  0
    5.1937   -6.7049    4.1013 H   0  0  0  0  0  0  0  0  0  0  0  0
    3.5268   -7.0656    4.5591 H   0  0  0  0  0  0  0  0  0  0  0  0
    4.4032   -5.8618    5.4247 H   0  0  0  0  0  0  0  0  0  0  0  0
    1.1056    2.9270    1.7831 H   0  0  0  0  0  0  0  0  0  0  0  0
  2  1  1  1
  1 34  1  0
  1 35  1  0
  1 36  1  0
  2 22  1  0
  2 30  1  0
  2  3  1  0
  3  4  1  0
  3 37  1  0
  3 38  1  0
  4 19  1  0
  4  5  1  6
  4 17  1  0
  5  6  1  0
  5 39  1  0
  5 40  1  0
  6  7  1  0
  7  8  2  0
  7  9  1  0
  9 10  1  0
  9 11  1  0
  9 41  1  6
 10 42  1  0
 10 43  1  0
 10 60  1  0
 11 44  1  0
 11 45  1  0
 11 12  1  0
 12 13  2  0
 12 16  1  0
 13 46  1  0
 13 14  1  0
 14 15  2  0
 15 16  1  0
 15 47  1  0
 16 33  1  0
 17 18  2  0
 17 19  1  0
 19 20  1  0
 19 48  1  6
 20 29  1  6
 20 21  1  0
 20 30  1  0
 21 22  1  0
 22 23  1  0
 22 49  1  6
 23 29  2  0
 23 24  1  0
 24 25  1  0
 24 27  2  0
 25 26  1  0
 25 50  1  0
 25 51  1  0
 26 52  1  0
 27 28  1  0
 27 53  1  0
 28 29  1  0
 30 31  1  0
 30 32  1  0
 31 54  1  0
 31 55  1  0
 31 56  1  0
 32 57  1  0
 32 58  1  0
 32 59  1  0
M  CHG  1  10   1
M  END
>  <i_m_ct_stereo_status>  (222) 
1

>  <s_m_source_file>  (222) 
/var/tmp/pbs.5076255.sched01/tmp0pz6dnip/90w4u7_w6b.sdf

>  <i_m_source_file_index>  (222) 
5

>  <i_lp_mmshare_version>  (222) 
48012

>  <i_f3d_flags>  (222) 
0

>  <s_epik_input>  (222) 
W09IXVtDSDJdYzFbY0hdb2MyYzFbQ0BIXShPMylbQ0BAXShbQ0gzXSkoQzQoW0NIM10pW0NIM10pW0NIMl1DKEM1PU8pKFtDSF01W0NAXTIzNClbQ0gyXU9DKD1PKVtDQEhdKFtOSDJdKVtDSDJdYzZbY0hdW25IXVtjSF1uNg==

>  <s_epik_cmdline>  (222) 
J2VwaWtfcHl0aG9uJywgJy1waHQnLCAnMi4wJywgJy1waCcsICc3LjAnLCAnLXRuJywgJzgnLCAnLW1hJywgJzIwMCcsICctaW1hZScsICc8aW5maWxlLm1hZT4nLCAnLW9tYWUnLCAnPG91dGZpbGUubWFlPic=

>  <r_epik_Ionization_Penalty>  (222) 
0.762307

>  <r_epik_Ionization_Penalty_Charging>  (222) 
0.762306

>  <r_epik_Ionization_Penalty_Neutral>  (222) 
1.34863e-06

>  <r_epik_State_Penalty>  (222) 
1.12653

>  <r_epik_Charging_Adjusted_Penalty>  (222) 
1.88883

>  <i_epik_Tot_Q>  (222) 
1

>  <i_epik_Tot_abs_Q>  (222) 
1

>  <s_epik_Chemistry_Notes>  (222) 
This compound has an ester and may undergo hydrolysis at high or low pH.

>  <s_lp_Force_Field>  (222) 
OPLS3e

>  <r_lp_Energy>  (222) 
137.958

>  <b_lp_Chiralities_Consistent>  (222) 
1

>  <s_lp_Variant>  (222) 
63:0-3

>  <s_i_glide_gridfile>  (222) 
pfpi4k_grid

>  <i_i_glide_lignum>  (222) 
5

>  <i_i_glide_rotatable_bonds>  (222) 
8

>  <r_i_docking_score>  (222) 
-4.66984

>  <r_i_glide_ligand_efficiency>  (222) 
-0.145933

>  <r_i_glide_ligand_efficiency_sa>  (222) 
-0.463307

>  <r_i_glide_ligand_efficiency_ln>  (222) 
-1.04571

>  <r_i_glide_gscore>  (222) 
-4.66984

>  <r_i_glide_lipo>  (222) 
-0.148391

>  <r_i_glide_hbond>  (222) 
-0.933471

>  <r_i_glide_metal>  (222) 
-0

>  <r_i_glide_rewards>  (222) 
-0.392148

>  <r_i_glide_evdw>  (222) 
-29.9302

>  <r_i_glide_ecoul>  (222) 
-14.3853

>  <r_i_glide_erotb>  (222) 
0.612394

>  <r_i_glide_esite>  (222) 
-0.153928

>  <r_i_glide_emodel>  (222) 
-57.7017

>  <r_i_glide_energy>  (222) 
-44.3155

>  <r_i_glide_einternal>  (222) 
3.32082

>  <r_i_glide_intrahb_reward>  (222) 
-0

>  <i_i_glide_confnum>  (222) 
2

>  <i_i_glide_posenum>  (222) 
23

>  <r_i_glide_eff_state_penalty>  (222) 
0

>  <ligand_id>  (222) 
63

>  <original_smiles>  (222) 
CC12CC3(COC(=O)C(N)Cc4c[nH]cn4)C(=O)C3C3(OC1c1c(CO)coc13)C2(C)C

>  <smiles>  (222) 
[H]OC([H])([H])c1c([H])oc2c1C1([H])OC23C2([H])C(=O)C2(C([H])([H])OC(=O)C([H])(C([H])([H])c2c([H])nc([H])n2[H])[N+]([H])([H])[H])C([H])([H])C1(C([H])([H])[H])C3(C([H])([H])[H])C([H])([H])[H]

$$$$
63:3:0
     RDKit          3D

 60 65  0  0  1  0  0  0  0  0999 V2000
    2.3526    0.5640    1.7861 C   0  0  0  0  0  0  0  0  0  0  0  0
    1.7057   -0.0209    3.0555 C   0  0  2  0  0  0  0  0  0  0  0  0
    2.0137   -1.6213    3.1387 C   0  0  0  0  0  0  0  0  0  0  0  0
    1.9412   -2.2578    4.5984 C   0  0  2  0  0  0  0  0  0  0  0  0
    3.1397   -3.1439    4.9262 C   0  0  0  0  0  0  0  0  0  0  0  0
    3.1228   -4.3733    4.2120 O   0  0  0  0  0  0  0  0  0  0  0  0
    2.8465   -5.5429    4.8342 C   0  0  0  0  0  0  0  0  0  0  0  0
    2.6279   -5.6903    6.0368 O   0  0  0  0  0  0  0  0  0  0  0  0
    2.8353   -6.6991    3.8323 C   0  0  2  0  0  0  0  0  0  0  0  0
    4.1604   -6.7276    3.1914 N   0  0  0  0  0  0  0  0  0  0  0  0
    1.6862   -6.5476    2.8041 C   0  0  0  0  0  0  0  0  0  0  0  0
    0.4600   -7.3787    3.0962 C   0  0  0  0  0  0  0  0  0  0  0  0
    0.3236   -8.4922    3.9076 C   0  0  0  0  0  0  0  0  0  0  0  0
   -0.9868   -8.9062    3.7936 N   0  0  0  0  0  0  0  0  0  0  0  0
   -1.5807   -8.0630    2.9470 C   0  0  0  0  0  0  0  0  0  0  0  0
   -0.7744   -7.1080    2.4957 N   0  0  0  0  0  0  0  0  0  0  0  0
    0.6385   -2.7329    5.1649 C   0  0  0  0  0  0  0  0  0  0  0  0
   -0.1873   -3.6312    5.2668 O   0  0  0  0  0  0  0  0  0  0  0  0
    1.2093   -1.4333    5.7078 C   0  0  2  0  0  0  0  0  0  0  0  0
    0.9389   -0.0474    5.1197 C   0  0  1  0  0  0  0  0  0  0  0  0
    0.0867   -0.5879    4.0723 O   0  0  0  0  0  0  0  0  0  0  0  0
    0.1377    0.3779    3.1015 C   0  0  1  0  0  0  0  0  0  0  0  0
   -0.4756    1.3518    4.0981 C   0  0  0  0  0  0  0  0  0  0  0  0
   -1.2874    2.5050    4.2803 C   0  0  0  0  0  0  0  0  0  0  0  0
   -2.0214    3.2999    3.2436 C   0  0  0  0  0  0  0  0  0  0  0  0
   -3.3880    2.9440    3.1771 O   0  0  0  0  0  0  0  0  0  0  0  0
   -1.2406    2.7034    5.6522 C   0  0  0  0  0  0  0  0  0  0  0  0
   -0.4198    1.8104    6.3220 O   0  0  0  0  0  0  0  0  0  0  0  0
   -0.0864    0.9809    5.3216 C   0  0  0  0  0  0  0  0  0  0  0  0
    2.2106    0.5642    4.3879 C   0  0  0  0  0  0  0  0  0  0  0  0
    3.6188    0.0904    4.8880 C   0  0  0  0  0  0  0  0  0  0  0  0
    2.3673    2.1233    4.3270 C   0  0  0  0  0  0  0  0  0  0  0  0
   -1.4212   -9.6979    4.2778 H   0  0  0  0  0  0  0  0  0  0  0  0
    3.4380    0.4801    1.8072 H   0  0  0  0  0  0  0  0  0  0  0  0
    2.1000    1.6149    1.6531 H   0  0  0  0  0  0  0  0  0  0  0  0
    1.9965    0.0472    0.8950 H   0  0  0  0  0  0  0  0  0  0  0  0
    1.3203   -2.1644    2.4924 H   0  0  0  0  0  0  0  0  0  0  0  0
    3.0026   -1.8230    2.7232 H   0  0  0  0  0  0  0  0  0  0  0  0
    4.0618   -2.6304    4.6620 H   0  0  0  0  0  0  0  0  0  0  0  0
    3.1825   -3.2954    6.0043 H   0  0  0  0  0  0  0  0  0  0  0  0
    2.7416   -7.6368    4.3783 H   0  0  0  0  0  0  0  0  0  0  0  0
    4.8617   -6.8365    3.9083 H   0  0  0  0  0  0  0  0  0  0  0  0
    4.3060   -5.8532    2.7113 H   0  0  0  0  0  0  0  0  0  0  0  0
    1.3555   -5.5082    2.7393 H   0  0  0  0  0  0  0  0  0  0  0  0
    2.0245   -6.8006    1.7989 H   0  0  0  0  0  0  0  0  0  0  0  0
    1.0271   -9.0265    4.5286 H   0  0  0  0  0  0  0  0  0  0  0  0
   -2.6137   -8.1476    2.6666 H   0  0  0  0  0  0  0  0  0  0  0  0
    1.6201   -1.4294    6.7097 H   0  0  0  0  0  0  0  0  0  0  0  0
   -0.4820    0.1377    2.2426 H   0  0  0  0  0  0  0  0  0  0  0  0
   -1.9348    4.3677    3.4515 H   0  0  0  0  0  0  0  0  0  0  0  0
   -1.5644    3.1213    2.2728 H   0  0  0  0  0  0  0  0  0  0  0  0
   -3.4435    2.0236    2.9339 H   0  0  0  0  0  0  0  0  0  0  0  0
   -1.7132    3.4290    6.2964 H   0  0  0  0  0  0  0  0  0  0  0  0
    4.2558    0.9191    5.1968 H   0  0  0  0  0  0  0  0  0  0  0  0
    4.1792   -0.4249    4.1082 H   0  0  0  0  0  0  0  0  0  0  0  0
    3.5790   -0.5503    5.7669 H   0  0  0  0  0  0  0  0  0  0  0  0
    2.3583    2.5585    5.3279 H   0  0  0  0  0  0  0  0  0  0  0  0
    1.6250    2.6472    3.7270 H   0  0  0  0  0  0  0  0  0  0  0  0
    3.3207    2.3997    3.8678 H   0  0  0  0  0  0  0  0  0  0  0  0
    4.2165   -7.5018    2.5462 H   0  0  0  0  0  0  0  0  0  0  0  0
  2  1  1  6
  1 34  1  0
  1 35  1  0
  1 36  1  0
  2 22  1  0
  2 30  1  0
  2  3  1  0
  3  4  1  0
  3 37  1  0
  3 38  1  0
  4 19  1  0
  4  5  1  1
  4 17  1  0
  5  6  1  0
  5 39  1  0
  5 40  1  0
  6  7  1  0
  7  8  2  0
  7  9  1  0
  9 10  1  0
  9 11  1  0
  9 41  1  1
 10 42  1  0
 10 43  1  0
 10 60  1  0
 11 12  1  0
 11 44  1  0
 11 45  1  0
 12 16  1  0
 12 13  2  0
 13 14  1  0
 13 46  1  0
 14 33  1  0
 14 15  1  0
 15 16  2  0
 15 47  1  0
 17 18  2  0
 17 19  1  0
 19 20  1  0
 19 48  1  1
 20 29  1  1
 20 21  1  0
 20 30  1  0
 21 22  1  0
 22 23  1  0
 22 49  1  6
 23 29  2  0
 23 24  1  0
 24 25  1  0
 24 27  2  0
 25 26  1  0
 25 50  1  0
 25 51  1  0
 26 52  1  0
 27 28  1  0
 27 53  1  0
 28 29  1  0
 30 31  1  0
 30 32  1  0
 31 54  1  0
 31 55  1  0
 31 56  1  0
 32 57  1  0
 32 58  1  0
 32 59  1  0
M  CHG  1  10   1
M  END
>  <i_m_ct_stereo_status>  (223) 
1

>  <s_m_source_file>  (223) 
/var/tmp/pbs.5076255.sched01/tmp0pz6dnip/90w4u7_w6b.sdf

>  <i_m_source_file_index>  (223) 
6

>  <i_lp_mmshare_version>  (223) 
48012

>  <i_f3d_flags>  (223) 
0

>  <s_epik_input>  (223) 
W09IXVtDSDJdYzFbY0hdb2MyYzFbQ0BIXShPMylbQ0BAXShbQ0gzXSkoQzQoW0NIM10pW0NIM10pW0NIMl1DKEM1PU8pKFtDSF01W0NAXTIzNClbQ0gyXU9DKD1PKVtDQEhdKFtOSDJdKVtDSDJdYzZbY0hdW25IXVtjSF1uNg==

>  <s_epik_cmdline>  (223) 
J2VwaWtfcHl0aG9uJywgJy1waHQnLCAnMi4wJywgJy1waCcsICc3LjAnLCAnLXRuJywgJzgnLCAnLW1hJywgJzIwMCcsICctaW1hZScsICc8aW5maWxlLm1hZT4nLCAnLW9tYWUnLCAnPG91dGZpbGUubWFlPic=

>  <r_epik_Ionization_Penalty>  (223) 
0.751875

>  <r_epik_Ionization_Penalty_Charging>  (223) 
0.751873

>  <r_epik_Ionization_Penalty_Neutral>  (223) 
1.54521e-06

>  <r_epik_State_Penalty>  (223) 
1.17966

>  <r_epik_Charging_Adjusted_Penalty>  (223) 
1.93153

>  <i_epik_Tot_Q>  (223) 
1

>  <i_epik_Tot_abs_Q>  (223) 
1

>  <s_epik_Chemistry_Notes>  (223) 
This compound has an ester and may undergo hydrolysis at high or low pH.

>  <s_lp_Force_Field>  (223) 
OPLS3e

>  <r_lp_Energy>  (223) 
135.179

>  <b_lp_Chiralities_Consistent>  (223) 
1

>  <s_lp_Variant>  (223) 
63:0-4

>  <s_i_glide_gridfile>  (223) 
pfpi4k_grid

>  <i_i_glide_lignum>  (223) 
6

>  <i_i_glide_rotatable_bonds>  (223) 
8

>  <r_i_docking_score>  (223) 
-3.56442

>  <r_i_glide_ligand_efficiency>  (223) 
-0.111388

>  <r_i_glide_ligand_efficiency_sa>  (223) 
-0.353635

>  <r_i_glide_ligand_efficiency_ln>  (223) 
-0.798171

>  <r_i_glide_gscore>  (223) 
-3.56442

>  <r_i_glide_lipo>  (223) 
-0.0130873

>  <r_i_glide_hbond>  (223) 
-0.603792

>  <r_i_glide_metal>  (223) 
-0

>  <r_i_glide_rewards>  (223) 
-0.392148

>  <r_i_glide_evdw>  (223) 
-29.0286

>  <r_i_glide_ecoul>  (223) 
-10.5403

>  <r_i_glide_erotb>  (223) 
0.612394

>  <r_i_glide_esite>  (223) 
-0.135314

>  <r_i_glide_emodel>  (223) 
-48.9777

>  <r_i_glide_energy>  (223) 
-39.5689

>  <r_i_glide_einternal>  (223) 
3.76773

>  <r_i_glide_intrahb_reward>  (223) 
-0

>  <i_i_glide_confnum>  (223) 
8

>  <i_i_glide_posenum>  (223) 
16

>  <r_i_glide_eff_state_penalty>  (223) 
0

>  <ligand_id>  (223) 
63

>  <original_smiles>  (223) 
CC12CC3(COC(=O)C(N)Cc4c[nH]cn4)C(=O)C3C3(OC1c1c(CO)coc13)C2(C)C

>  <smiles>  (223) 
[H]OC([H])([H])c1c([H])oc2c1C1([H])OC23C2([H])C(=O)C2(C([H])([H])OC(=O)C([H])(C([H])([H])c2nc([H])n([H])c2[H])[N+]([H])([H])[H])C([H])([H])C1(C([H])([H])[H])C3(C([H])([H])[H])C([H])([H])[H]

$$$$
63:3:1
     RDKit          3D

 60 65  0  0  1  0  0  0  0  0999 V2000
   -0.9828    1.6433    2.1942 C   0  0  0  0  0  0  0  0  0  0  0  0
    0.1119    1.1059    3.1232 C   0  0  2  0  0  0  0  0  0  0  0  0
    0.9446   -0.0654    2.3533 C   0  0  0  0  0  0  0  0  0  0  0  0
    2.4163   -0.3317    2.8919 C   0  0  2  0  0  0  0  0  0  0  0  0
    3.4580   -0.4201    1.7766 C   0  0  0  0  0  0  0  0  0  0  0  0
    3.1546   -1.4588    0.8643 O   0  0  0  0  0  0  0  0  0  0  0  0
    4.0699   -1.9237   -0.0152 C   0  0  0  0  0  0  0  0  0  0  0  0
    5.2334   -1.5384   -0.1267 O   0  0  0  0  0  0  0  0  0  0  0  0
    3.4407   -2.9888   -0.9317 C   0  0  2  0  0  0  0  0  0  0  0  0
    2.6243   -2.2666   -1.9208 N   0  0  0  0  0  0  0  0  0  0  0  0
    2.6238   -4.0509   -0.1510 C   0  0  0  0  0  0  0  0  0  0  0  0
    3.4459   -5.1578    0.4629 C   0  0  0  0  0  0  0  0  0  0  0  0
    4.8145   -5.3481    0.4495 C   0  0  0  0  0  0  0  0  0  0  0  0
    5.0469   -6.5253    1.1353 N   0  0  0  0  0  0  0  0  0  0  0  0
    3.8607   -6.9872    1.5318 C   0  0  0  0  0  0  0  0  0  0  0  0
    2.8504   -6.2080    1.1673 N   0  0  0  0  0  0  0  0  0  0  0  0
    2.6376   -1.2745    4.0408 C   0  0  0  0  0  0  0  0  0  0  0  0
    2.7760   -2.4238    4.4332 O   0  0  0  0  0  0  0  0  0  0  0  0
    2.7706    0.2232    4.3105 C   0  0  2  0  0  0  0  0  0  0  0  0
    1.6184    1.1397    4.7227 C   0  0  1  0  0  0  0  0  0  0  0  0
    0.6603    0.0437    4.7067 O   0  0  0  0  0  0  0  0  0  0  0  0
   -0.5431    0.6771    4.5350 C   0  0  1  0  0  0  0  0  0  0  0  0
   -0.3033    1.4096    5.8500 C   0  0  0  0  0  0  0  0  0  0  0  0
   -0.8875    2.0367    6.9842 C   0  0  0  0  0  0  0  0  0  0  0  0
   -2.3393    2.1629    7.3541 C   0  0  0  0  0  0  0  0  0  0  0  0
   -2.5616    2.1700    8.7475 O   0  0  0  0  0  0  0  0  0  0  0  0
    0.2174    2.5134    7.6713 C   0  0  0  0  0  0  0  0  0  0  0  0
    1.4218    2.3025    7.0222 O   0  0  0  0  0  0  0  0  0  0  0  0
    1.0182    1.5404    5.9978 C   0  0  0  0  0  0  0  0  0  0  0  0
    1.1692    2.1303    3.5643 C   0  0  0  0  0  0  0  0  0  0  0  0
    2.2506    2.5249    2.5106 C   0  0  0  0  0  0  0  0  0  0  0  0
    0.5414    3.5113    3.9503 C   0  0  0  0  0  0  0  0  0  0  0  0
    5.9439   -6.9548    1.3110 H   0  0  0  0  0  0  0  0  0  0  0  0
   -0.5480    2.0993    1.3075 H   0  0  0  0  0  0  0  0  0  0  0  0
   -1.6076    2.3893    2.6816 H   0  0  0  0  0  0  0  0  0  0  0  0
   -1.6480    0.8497    1.8571 H   0  0  0  0  0  0  0  0  0  0  0  0
    0.3928   -1.0046    2.4170 H   0  0  0  0  0  0  0  0  0  0  0  0
    1.0001    0.1626    1.2864 H   0  0  0  0  0  0  0  0  0  0  0  0
    3.4894    0.5098    1.2137 H   0  0  0  0  0  0  0  0  0  0  0  0
    4.4387   -0.5764    2.2250 H   0  0  0  0  0  0  0  0  0  0  0  0
    4.2245   -3.5014   -1.4959 H   0  0  0  0  0  0  0  0  0  0  0  0
    3.1925   -1.6022   -2.4136 H   0  0  0  0  0  0  0  0  0  0  0  0
    1.8800   -1.7390   -1.4228 H   0  0  0  0  0  0  0  0  0  0  0  0
    2.0539   -3.6123    0.6681 H   0  0  0  0  0  0  0  0  0  0  0  0
    1.8771   -4.5095   -0.7987 H   0  0  0  0  0  0  0  0  0  0  0  0
    5.6139   -4.7662    0.0162 H   0  0  0  0  0  0  0  0  0  0  0  0
    3.7387   -7.9005    2.0953 H   0  0  0  0  0  0  0  0  0  0  0  0
    3.7562    0.6384    4.4676 H   0  0  0  0  0  0  0  0  0  0  0  0
   -1.3750   -0.0221    4.5283 H   0  0  0  0  0  0  0  0  0  0  0  0
   -2.7583    3.0737    6.9265 H   0  0  0  0  0  0  0  0  0  0  0  0
   -2.8683    1.3147    6.9279 H   0  0  0  0  0  0  0  0  0  0  0  0
   -2.1279    2.9203    9.1257 H   0  0  0  0  0  0  0  0  0  0  0  0
    0.3186    3.0295    8.6155 H   0  0  0  0  0  0  0  0  0  0  0  0
    2.3951    3.6013    2.4275 H   0  0  0  0  0  0  0  0  0  0  0  0
    1.9838    2.1935    1.5091 H   0  0  0  0  0  0  0  0  0  0  0  0
    3.2427    2.1502    2.7527 H   0  0  0  0  0  0  0  0  0  0  0  0
    1.2156    4.0863    4.5876 H   0  0  0  0  0  0  0  0  0  0  0  0
   -0.4326    3.4663    4.4312 H   0  0  0  0  0  0  0  0  0  0  0  0
    0.3690    4.1132    3.0552 H   0  0  0  0  0  0  0  0  0  0  0  0
    2.2001   -2.9143   -2.5630 H   0  0  0  0  0  0  0  0  0  0  0  0
  2  1  1  6
  1 34  1  0
  1 35  1  0
  1 36  1  0
  2 22  1  0
  2 30  1  0
  2  3  1  0
  3  4  1  0
  3 37  1  0
  3 38  1  0
  4 19  1  0
  4  5  1  6
  4 17  1  0
  5  6  1  0
  5 39  1  0
  5 40  1  0
  6  7  1  0
  7  8  2  0
  7  9  1  0
  9 10  1  0
  9 11  1  0
  9 41  1  6
 10 42  1  0
 10 43  1  0
 10 60  1  0
 11 12  1  0
 11 44  1  0
 11 45  1  0
 12 16  1  0
 12 13  2  0
 13 14  1  0
 13 46  1  0
 14 33  1  0
 14 15  1  0
 15 16  2  0
 15 47  1  0
 17 18  2  0
 17 19  1  0
 19 20  1  0
 19 48  1  6
 20 29  1  1
 20 21  1  0
 20 30  1  0
 21 22  1  0
 22 23  1  0
 22 49  1  6
 23 29  2  0
 23 24  1  0
 24 25  1  0
 24 27  2  0
 25 26  1  0
 25 50  1  0
 25 51  1  0
 26 52  1  0
 27 28  1  0
 27 53  1  0
 28 29  1  0
 30 31  1  0
 30 32  1  0
 31 54  1  0
 31 55  1  0
 31 56  1  0
 32 57  1  0
 32 58  1  0
 32 59  1  0
M  CHG  1  10   1
M  END
>  <i_m_ct_stereo_status>  (224) 
1

>  <s_m_source_file>  (224) 
/var/tmp/pbs.5076255.sched01/tmp0pz6dnip/90w4u7_w6b.sdf

>  <i_m_source_file_index>  (224) 
6

>  <i_lp_mmshare_version>  (224) 
48012

>  <i_f3d_flags>  (224) 
0

>  <s_epik_input>  (224) 
W09IXVtDSDJdYzFbY0hdb2MyYzFbQ0BIXShPMylbQ0BAXShbQ0gzXSkoQzQoW0NIM10pW0NIM10pW0NIMl1DKEM1PU8pKFtDSF01W0NAXTIzNClbQ0gyXU9DKD1PKVtDQEhdKFtOSDJdKVtDSDJdYzZbY0hdW25IXVtjSF1uNg==

>  <s_epik_cmdline>  (224) 
J2VwaWtfcHl0aG9uJywgJy1waHQnLCAnMi4wJywgJy1waCcsICc3LjAnLCAnLXRuJywgJzgnLCAnLW1hJywgJzIwMCcsICctaW1hZScsICc8aW5maWxlLm1hZT4nLCAnLW9tYWUnLCAnPG91dGZpbGUubWFlPic=

>  <r_epik_Ionization_Penalty>  (224) 
0.751875

>  <r_epik_Ionization_Penalty_Charging>  (224) 
0.751873

>  <r_epik_Ionization_Penalty_Neutral>  (224) 
1.54521e-06

>  <r_epik_State_Penalty>  (224) 
1.17966

>  <r_epik_Charging_Adjusted_Penalty>  (224) 
1.93153

>  <i_epik_Tot_Q>  (224) 
1

>  <i_epik_Tot_abs_Q>  (224) 
1

>  <s_epik_Chemistry_Notes>  (224) 
This compound has an ester and may undergo hydrolysis at high or low pH.

>  <s_lp_Force_Field>  (224) 
OPLS3e

>  <r_lp_Energy>  (224) 
135.179

>  <b_lp_Chiralities_Consistent>  (224) 
1

>  <s_lp_Variant>  (224) 
63:0-4

>  <s_i_glide_gridfile>  (224) 
pfpi4k_grid

>  <i_i_glide_lignum>  (224) 
6

>  <i_i_glide_rotatable_bonds>  (224) 
8

>  <r_i_docking_score>  (224) 
-3.13781

>  <r_i_glide_ligand_efficiency>  (224) 
-0.0980567

>  <r_i_glide_ligand_efficiency_sa>  (224) 
-0.311311

>  <r_i_glide_ligand_efficiency_ln>  (224) 
-0.702642

>  <r_i_glide_gscore>  (224) 
-3.13781

>  <r_i_glide_lipo>  (224) 
-0.0796846

>  <r_i_glide_hbond>  (224) 
-0.177745

>  <r_i_glide_metal>  (224) 
-0

>  <r_i_glide_rewards>  (224) 
-0.479687

>  <r_i_glide_evdw>  (224) 
-29.7433

>  <r_i_glide_ecoul>  (224) 
-9.47527

>  <r_i_glide_erotb>  (224) 
0.612394

>  <r_i_glide_esite>  (224) 
-0.104637

>  <r_i_glide_emodel>  (224) 
-47.7661

>  <r_i_glide_energy>  (224) 
-39.2186

>  <r_i_glide_einternal>  (224) 
2.32814

>  <r_i_glide_intrahb_reward>  (224) 
-0

>  <i_i_glide_confnum>  (224) 
8

>  <i_i_glide_posenum>  (224) 
2

>  <r_i_glide_eff_state_penalty>  (224) 
0

>  <ligand_id>  (224) 
63

>  <original_smiles>  (224) 
CC12CC3(COC(=O)C(N)Cc4c[nH]cn4)C(=O)C3C3(OC1c1c(CO)coc13)C2(C)C

>  <smiles>  (224) 
[H]OC([H])([H])c1c([H])oc2c1C1([H])OC23C2([H])C(=O)C2(C([H])([H])OC(=O)C([H])(C([H])([H])c2nc([H])n([H])c2[H])[N+]([H])([H])[H])C([H])([H])C1(C([H])([H])[H])C3(C([H])([H])[H])C([H])([H])[H]

$$$$
63:3:2
     RDKit          3D

 60 65  0  0  1  0  0  0  0  0999 V2000
   -0.9608    1.5431    2.3315 C   0  0  0  0  0  0  0  0  0  0  0  0
    0.1956    1.0293    3.1976 C   0  0  2  0  0  0  0  0  0  0  0  0
    1.0618   -0.0626    2.3469 C   0  0  0  0  0  0  0  0  0  0  0  0
    2.5713   -0.2650    2.8167 C   0  0  2  0  0  0  0  0  0  0  0  0
    3.5717   -0.2441    1.6573 C   0  0  0  0  0  0  0  0  0  0  0  0
    3.3106   -1.2809    0.7307 O   0  0  0  0  0  0  0  0  0  0  0  0
    4.1971   -1.6138   -0.2305 C   0  0  0  0  0  0  0  0  0  0  0  0
    5.2763   -1.0561   -0.4527 O   0  0  0  0  0  0  0  0  0  0  0  0
    3.6696   -2.8036   -1.0484 C   0  0  2  0  0  0  0  0  0  0  0  0
    2.6161   -2.2729   -1.9351 N   0  0  0  0  0  0  0  0  0  0  0  0
    3.1418   -3.9493   -0.1493 C   0  0  0  0  0  0  0  0  0  0  0  0
    4.2171   -4.7206    0.5794 C   0  0  0  0  0  0  0  0  0  0  0  0
    4.6570   -6.0082    0.3529 C   0  0  0  0  0  0  0  0  0  0  0  0
    5.6484   -6.2510    1.2889 N   0  0  0  0  0  0  0  0  0  0  0  0
    5.7687   -5.1464    2.0251 C   0  0  0  0  0  0  0  0  0  0  0  0
    4.9363   -4.1828    1.6526 N   0  0  0  0  0  0  0  0  0  0  0  0
    2.9018   -1.2298    3.9153 C   0  0  0  0  0  0  0  0  0  0  0  0
    3.1233   -2.3885    4.2581 O   0  0  0  0  0  0  0  0  0  0  0  0
    2.9497    0.2559    4.2440 C   0  0  2  0  0  0  0  0  0  0  0  0
    1.7604    1.0873    4.7400 C   0  0  1  0  0  0  0  0  0  0  0  0
    0.8670   -0.0645    4.7211 O   0  0  0  0  0  0  0  0  0  0  0  0
   -0.3746    0.5065    4.6174 C   0  0  1  0  0  0  0  0  0  0  0  0
   -0.1202    1.1965    5.9533 C   0  0  0  0  0  0  0  0  0  0  0  0
   -0.7051    1.7417    7.1300 C   0  0  0  0  0  0  0  0  0  0  0  0
   -2.1482    1.7780    7.5395 C   0  0  0  0  0  0  0  0  0  0  0  0
   -2.6984    3.0767    7.5383 O   0  0  0  0  0  0  0  0  0  0  0  0
    0.3941    2.2435    7.8151 C   0  0  0  0  0  0  0  0  0  0  0  0
    1.5855    2.1318    7.1166 O   0  0  0  0  0  0  0  0  0  0  0  0
    1.1949    1.4022    6.0600 C   0  0  0  0  0  0  0  0  0  0  0  0
    1.2079    2.0990    3.6394 C   0  0  0  0  0  0  0  0  0  0  0  0
    2.2282    2.5992    2.5674 C   0  0  0  0  0  0  0  0  0  0  0  0
    0.5166    3.4243    4.1081 C   0  0  0  0  0  0  0  0  0  0  0  0
    6.1761   -7.1042    1.4064 H   0  0  0  0  0  0  0  0  0  0  0  0
   -0.5713    2.0606    1.4577 H   0  0  0  0  0  0  0  0  0  0  0  0
   -1.6124    2.2293    2.8703 H   0  0  0  0  0  0  0  0  0  0  0  0
   -1.5899    0.7265    1.9796 H   0  0  0  0  0  0  0  0  0  0  0  0
    0.5666   -1.0348    2.3842 H   0  0  0  0  0  0  0  0  0  0  0  0
    1.0622    0.2108    1.2878 H   0  0  0  0  0  0  0  0  0  0  0  0
    3.5275    0.7085    1.1322 H   0  0  0  0  0  0  0  0  0  0  0  0
    4.5799   -0.3535    2.0599 H   0  0  0  0  0  0  0  0  0  0  0  0
    4.4682   -3.1929   -1.6850 H   0  0  0  0  0  0  0  0  0  0  0  0
    3.0022   -1.5374   -2.5084 H   0  0  0  0  0  0  0  0  0  0  0  0
    1.8641   -1.8414   -1.3835 H   0  0  0  0  0  0  0  0  0  0  0  0
    2.4361   -3.5811    0.5956 H   0  0  0  0  0  0  0  0  0  0  0  0
    2.5713   -4.6576   -0.7457 H   0  0  0  0  0  0  0  0  0  0  0  0
    4.3489   -6.7444   -0.3754 H   0  0  0  0  0  0  0  0  0  0  0  0
    6.4688   -5.0467    2.8412 H   0  0  0  0  0  0  0  0  0  0  0  0
    3.9179    0.7170    4.3911 H   0  0  0  0  0  0  0  0  0  0  0  0
   -1.1652   -0.2423    4.6050 H   0  0  0  0  0  0  0  0  0  0  0  0
   -2.7203    1.1513    6.8593 H   0  0  0  0  0  0  0  0  0  0  0  0
   -2.2502    1.3606    8.5420 H   0  0  0  0  0  0  0  0  0  0  0  0
   -2.2573    3.5834    8.2022 H   0  0  0  0  0  0  0  0  0  0  0  0
    0.4955    2.7360    8.7709 H   0  0  0  0  0  0  0  0  0  0  0  0
    2.3105    3.6845    2.5247 H   0  0  0  0  0  0  0  0  0  0  0  0
    1.9446    2.2959    1.5622 H   0  0  0  0  0  0  0  0  0  0  0  0
    3.2483    2.2725    2.7592 H   0  0  0  0  0  0  0  0  0  0  0  0
    1.1820    4.0084    4.7460 H   0  0  0  0  0  0  0  0  0  0  0  0
   -0.4308    3.2988    4.6262 H   0  0  0  0  0  0  0  0  0  0  0  0
    0.2739    4.0536    3.2494 H   0  0  0  0  0  0  0  0  0  0  0  0
    2.2435   -2.9992   -2.5277 H   0  0  0  0  0  0  0  0  0  0  0  0
  2  1  1  6
  1 34  1  0
  1 35  1  0
  1 36  1  0
  2 22  1  0
  2 30  1  0
  2  3  1  0
  3  4  1  0
  3 37  1  0
  3 38  1  0
  4 19  1  0
  4  5  1  6
  4 17  1  0
  5  6  1  0
  5 39  1  0
  5 40  1  0
  6  7  1  0
  7  8  2  0
  7  9  1  0
  9 10  1  0
  9 11  1  0
  9 41  1  6
 10 42  1  0
 10 43  1  0
 10 60  1  0
 11 12  1  0
 11 44  1  0
 11 45  1  0
 12 16  1  0
 12 13  2  0
 13 14  1  0
 13 46  1  0
 14 33  1  0
 14 15  1  0
 15 16  2  0
 15 47  1  0
 17 18  2  0
 17 19  1  0
 19 20  1  0
 19 48  1  6
 20 29  1  1
 20 21  1  0
 20 30  1  0
 21 22  1  0
 22 23  1  0
 22 49  1  6
 23 29  2  0
 23 24  1  0
 24 25  1  0
 24 27  2  0
 25 26  1  0
 25 50  1  0
 25 51  1  0
 26 52  1  0
 27 28  1  0
 27 53  1  0
 28 29  1  0
 30 31  1  0
 30 32  1  0
 31 54  1  0
 31 55  1  0
 31 56  1  0
 32 57  1  0
 32 58  1  0
 32 59  1  0
M  CHG  1  10   1
M  END
>  <i_m_ct_stereo_status>  (225) 
1

>  <s_m_source_file>  (225) 
/var/tmp/pbs.5076255.sched01/tmp0pz6dnip/90w4u7_w6b.sdf

>  <i_m_source_file_index>  (225) 
6

>  <i_lp_mmshare_version>  (225) 
48012

>  <i_f3d_flags>  (225) 
0

>  <s_epik_input>  (225) 
W09IXVtDSDJdYzFbY0hdb2MyYzFbQ0BIXShPMylbQ0BAXShbQ0gzXSkoQzQoW0NIM10pW0NIM10pW0NIMl1DKEM1PU8pKFtDSF01W0NAXTIzNClbQ0gyXU9DKD1PKVtDQEhdKFtOSDJdKVtDSDJdYzZbY0hdW25IXVtjSF1uNg==

>  <s_epik_cmdline>  (225) 
J2VwaWtfcHl0aG9uJywgJy1waHQnLCAnMi4wJywgJy1waCcsICc3LjAnLCAnLXRuJywgJzgnLCAnLW1hJywgJzIwMCcsICctaW1hZScsICc8aW5maWxlLm1hZT4nLCAnLW9tYWUnLCAnPG91dGZpbGUubWFlPic=

>  <r_epik_Ionization_Penalty>  (225) 
0.751875

>  <r_epik_Ionization_Penalty_Charging>  (225) 
0.751873

>  <r_epik_Ionization_Penalty_Neutral>  (225) 
1.54521e-06

>  <r_epik_State_Penalty>  (225) 
1.17966

>  <r_epik_Charging_Adjusted_Penalty>  (225) 
1.93153

>  <i_epik_Tot_Q>  (225) 
1

>  <i_epik_Tot_abs_Q>  (225) 
1

>  <s_epik_Chemistry_Notes>  (225) 
This compound has an ester and may undergo hydrolysis at high or low pH.

>  <s_lp_Force_Field>  (225) 
OPLS3e

>  <r_lp_Energy>  (225) 
135.179

>  <b_lp_Chiralities_Consistent>  (225) 
1

>  <s_lp_Variant>  (225) 
63:0-4

>  <s_i_glide_gridfile>  (225) 
pfpi4k_grid

>  <i_i_glide_lignum>  (225) 
6

>  <i_i_glide_rotatable_bonds>  (225) 
8

>  <r_i_docking_score>  (225) 
-3.04125

>  <r_i_glide_ligand_efficiency>  (225) 
-0.0950391

>  <r_i_glide_ligand_efficiency_sa>  (225) 
-0.30173

>  <r_i_glide_ligand_efficiency_ln>  (225) 
-0.681019

>  <r_i_glide_gscore>  (225) 
-3.04125

>  <r_i_glide_lipo>  (225) 
-0.158302

>  <r_i_glide_hbond>  (225) 
-0.190893

>  <r_i_glide_metal>  (225) 
-0

>  <r_i_glide_rewards>  (225) 
-0.444332

>  <r_i_glide_evdw>  (225) 
-31.2188

>  <r_i_glide_ecoul>  (225) 
-7.92981

>  <r_i_glide_erotb>  (225) 
0.612394

>  <r_i_glide_esite>  (225) 
-0.109711

>  <r_i_glide_emodel>  (225) 
-47.6017

>  <r_i_glide_energy>  (225) 
-39.1486

>  <r_i_glide_einternal>  (225) 
2.21736

>  <r_i_glide_intrahb_reward>  (225) 
-0

>  <i_i_glide_confnum>  (225) 
8

>  <i_i_glide_posenum>  (225) 
13

>  <r_i_glide_eff_state_penalty>  (225) 
0

>  <ligand_id>  (225) 
63

>  <original_smiles>  (225) 
CC12CC3(COC(=O)C(N)Cc4c[nH]cn4)C(=O)C3C3(OC1c1c(CO)coc13)C2(C)C

>  <smiles>  (225) 
[H]OC([H])([H])c1c([H])oc2c1C1([H])OC23C2([H])C(=O)C2(C([H])([H])OC(=O)C([H])(C([H])([H])c2nc([H])n([H])c2[H])[N+]([H])([H])[H])C([H])([H])C1(C([H])([H])[H])C3(C([H])([H])[H])C([H])([H])[H]

$$$$
63:4:0
     RDKit          3D

 59 64  0  0  1  0  0  0  0  0999 V2000
    0.9990   -3.9622    3.8047 C   0  0  0  0  0  0  0  0  0  0  0  0
    1.9923   -4.9256    3.1481 C   0  0  2  0  0  0  0  0  0  0  0  0
    3.0783   -4.0586    2.2747 C   0  0  0  0  0  0  0  0  0  0  0  0
    4.4804   -4.7822    2.0035 C   0  0  2  0  0  0  0  0  0  0  0  0
    5.7079   -3.9264    2.3313 C   0  0  0  0  0  0  0  0  0  0  0  0
    6.3780   -3.4153    1.1929 O   0  0  0  0  0  0  0  0  0  0  0  0
    7.2946   -4.1450    0.5192 C   0  0  0  0  0  0  0  0  0  0  0  0
    7.7917   -5.2014    0.9184 O   0  0  0  0  0  0  0  0  0  0  0  0
    7.6346   -3.4747   -0.8328 C   0  0  2  0  0  0  0  0  0  0  0  0
    8.4342   -2.2566   -0.6983 N   0  0  0  0  0  0  0  0  0  0  0  0
    6.3902   -3.2381   -1.7562 C   0  0  0  0  0  0  0  0  0  0  0  0
    5.2943   -2.3357   -1.2228 C   0  0  0  0  0  0  0  0  0  0  0  0
    3.9271   -2.5343   -1.1967 C   0  0  0  0  0  0  0  0  0  0  0  0
    3.4122   -1.4661   -0.4823 N   0  0  0  0  0  0  0  0  0  0  0  0
    4.4232   -0.6813   -0.1300 C   0  0  0  0  0  0  0  0  0  0  0  0
    5.5723   -1.0973   -0.6340 N   0  0  0  0  0  0  0  0  0  0  0  0
    4.6263   -5.7650    0.8710 C   0  0  0  0  0  0  0  0  0  0  0  0
    4.7187   -5.9472   -0.3236 O   0  0  0  0  0  0  0  0  0  0  0  0
    4.5354   -6.3178    2.2717 C   0  0  2  0  0  0  0  0  0  0  0  0
    3.2286   -6.7267    2.9323 C   0  0  1  0  0  0  0  0  0  0  0  0
    2.4155   -6.3124    1.7929 O   0  0  0  0  0  0  0  0  0  0  0  0
    1.1928   -6.0839    2.3311 C   0  0  1  0  0  0  0  0  0  0  0  0
    1.1782   -7.5522    2.6911 C   0  0  0  0  0  0  0  0  0  0  0  0
    0.3524   -8.6753    2.9344 C   0  0  0  0  0  0  0  0  0  0  0  0
   -1.1373   -8.7944    2.8249 C   0  0  0  0  0  0  0  0  0  0  0  0
   -1.7669   -8.6591    4.0742 O   0  0  0  0  0  0  0  0  0  0  0  0
    1.2539   -9.6433    3.3187 C   0  0  0  0  0  0  0  0  0  0  0  0
    2.5596   -9.1880    3.4215 O   0  0  0  0  0  0  0  0  0  0  0  0
    2.4224   -7.9494    2.9213 C   0  0  0  0  0  0  0  0  0  0  0  0
    2.8332   -5.7615    4.1311 C   0  0  0  0  0  0  0  0  0  0  0  0
    4.0168   -5.0408    4.8628 C   0  0  0  0  0  0  0  0  0  0  0  0
    1.9798   -6.3542    5.2923 C   0  0  0  0  0  0  0  0  0  0  0  0
    2.4157   -1.2584   -0.3665 H   0  0  0  0  0  0  0  0  0  0  0  0
    1.4832   -3.2987    4.5176 H   0  0  0  0  0  0  0  0  0  0  0  0
    0.2101   -4.5061    4.3188 H   0  0  0  0  0  0  0  0  0  0  0  0
    0.5310   -3.3348    3.0500 H   0  0  0  0  0  0  0  0  0  0  0  0
    2.6510   -3.8041    1.3009 H   0  0  0  0  0  0  0  0  0  0  0  0
    3.2626   -3.0936    2.7654 H   0  0  0  0  0  0  0  0  0  0  0  0
    5.3816   -3.0657    2.9115 H   0  0  0  0  0  0  0  0  0  0  0  0
    6.3818   -4.5073    2.9592 H   0  0  0  0  0  0  0  0  0  0  0  0
    8.2860   -4.1819   -1.3455 H   0  0  0  0  0  0  0  0  0  0  0  0
    9.2796   -2.4670   -0.1808 H   0  0  0  0  0  0  0  0  0  0  0  0
    8.7915   -1.9778   -1.6007 H   0  0  0  0  0  0  0  0  0  0  0  0
    6.7252   -2.8446   -2.7157 H   0  0  0  0  0  0  0  0  0  0  0  0
    5.9130   -4.1898   -2.0040 H   0  0  0  0  0  0  0  0  0  0  0  0
    3.3082   -3.3414   -1.5757 H   0  0  0  0  0  0  0  0  0  0  0  0
    4.3282    0.2266    0.4519 H   0  0  0  0  0  0  0  0  0  0  0  0
    5.4282   -6.7415    2.7098 H   0  0  0  0  0  0  0  0  0  0  0  0
    0.4971   -5.7957    1.5434 H   0  0  0  0  0  0  0  0  0  0  0  0
   -1.4969   -8.0078    2.1638 H   0  0  0  0  0  0  0  0  0  0  0  0
   -1.4044   -9.7655    2.3869 H   0  0  0  0  0  0  0  0  0  0  0  0
   -1.7938   -9.5384    4.4616 H   0  0  0  0  0  0  0  0  0  0  0  0
    1.1631  -10.6723    3.6021 H   0  0  0  0  0  0  0  0  0  0  0  0
    4.0164   -5.2427    5.9323 H   0  0  0  0  0  0  0  0  0  0  0  0
    3.9520   -3.9587    4.7639 H   0  0  0  0  0  0  0  0  0  0  0  0
    5.0097   -5.3538    4.5380 H   0  0  0  0  0  0  0  0  0  0  0  0
    2.4781   -7.2151    5.7423 H   0  0  0  0  0  0  0  0  0  0  0  0
    0.9696   -6.6419    5.0135 H   0  0  0  0  0  0  0  0  0  0  0  0
    1.8600   -5.5972    6.0679 H   0  0  0  0  0  0  0  0  0  0  0  0
  2  1  1  1
  1 34  1  0
  1 35  1  0
  1 36  1  0
  2 22  1  0
  2 30  1  0
  2  3  1  0
  3  4  1  0
  3 37  1  0
  3 38  1  0
  4 19  1  0
  4  5  1  1
  4 17  1  0
  5  6  1  0
  5 39  1  0
  5 40  1  0
  6  7  1  0
  7  8  2  0
  7  9  1  0
  9 10  1  0
  9 11  1  0
  9 41  1  6
 10 42  1  0
 10 43  1  0
 11 12  1  0
 11 44  1  0
 11 45  1  0
 12 16  1  0
 12 13  2  0
 13 14  1  0
 13 46  1  0
 14 33  1  0
 14 15  1  0
 15 16  2  0
 15 47  1  0
 17 18  2  0
 17 19  1  0
 19 20  1  0
 19 48  1  1
 20 29  1  1
 20 21  1  0
 20 30  1  0
 21 22  1  0
 22 23  1  0
 22 49  1  6
 23 29  2  0
 23 24  1  0
 24 25  1  0
 24 27  2  0
 25 26  1  0
 25 50  1  0
 25 51  1  0
 26 52  1  0
 27 28  1  0
 27 53  1  0
 28 29  1  0
 30 31  1  0
 30 32  1  0
 31 54  1  0
 31 55  1  0
 31 56  1  0
 32 57  1  0
 32 58  1  0
 32 59  1  0
M  END
>  <i_m_ct_stereo_status>  (226) 
1

>  <s_m_source_file>  (226) 
/var/tmp/pbs.5076255.sched01/tmp0pz6dnip/90w4u7_w6b.sdf

>  <i_m_source_file_index>  (226) 
7

>  <i_lp_mmshare_version>  (226) 
48012

>  <i_f3d_flags>  (226) 
0

>  <s_epik_input>  (226) 
W09IXVtDSDJdYzFbY0hdb2MyYzFbQ0BIXShPMylbQ0BAXShbQ0gzXSkoQzQoW0NIM10pW0NIM10pW0NIMl1DKEM1PU8pKFtDSF01W0NAXTIzNClbQ0gyXU9DKD1PKVtDQEhdKFtOSDJdKVtDSDJdYzZbY0hdW25IXVtjSF1uNg==

>  <s_epik_cmdline>  (226) 
J2VwaWtfcHl0aG9uJywgJy1waHQnLCAnMi4wJywgJy1waCcsICc3LjAnLCAnLXRuJywgJzgnLCAnLW1hJywgJzIwMCcsICctaW1hZScsICc8aW5maWxlLm1hZT4nLCAnLW9tYWUnLCAnPG91dGZpbGUubWFlPic=

>  <r_lp_tautomer_probability>  (226) 
0.5

>  <r_epik_Ionization_Penalty>  (226) 
1.55275

>  <r_epik_Ionization_Penalty_Charging>  (226) 
1.34228

>  <r_epik_Ionization_Penalty_Neutral>  (226) 
0.21047

>  <r_epik_State_Penalty>  (226) 
1.18177

>  <r_epik_Charging_Adjusted_Penalty>  (226) 
2.52405

>  <i_epik_Tot_Q>  (226) 
0

>  <i_epik_Tot_abs_Q>  (226) 
0

>  <s_epik_Chemistry_Notes>  (226) 
This compound has an ester and may undergo hydrolysis at high or low pH.

>  <s_lp_Force_Field>  (226) 
OPLS3e

>  <r_lp_Energy>  (226) 
133.031

>  <b_lp_Chiralities_Consistent>  (226) 
1

>  <s_lp_Variant>  (226) 
63:0-5

>  <s_i_glide_gridfile>  (226) 
pfpi4k_grid

>  <i_i_glide_lignum>  (226) 
7

>  <i_i_glide_rotatable_bonds>  (226) 
8

>  <r_i_docking_score>  (226) 
-3.87355

>  <r_i_glide_ligand_efficiency>  (226) 
-0.121048

>  <r_i_glide_ligand_efficiency_sa>  (226) 
-0.384304

>  <r_i_glide_ligand_efficiency_ln>  (226) 
-0.867392

>  <r_i_glide_gscore>  (226) 
-3.87355

>  <r_i_glide_lipo>  (226) 
-0.318556

>  <r_i_glide_hbond>  (226) 
-0.434139

>  <r_i_glide_metal>  (226) 
-0

>  <r_i_glide_rewards>  (226) 
-0.707619

>  <r_i_glide_evdw>  (226) 
-28.0191

>  <r_i_glide_ecoul>  (226) 
-10.1536

>  <r_i_glide_erotb>  (226) 
0.614935

>  <r_i_glide_esite>  (226) 
-0.104171

>  <r_i_glide_emodel>  (226) 
-43.2955

>  <r_i_glide_energy>  (226) 
-38.1727

>  <r_i_glide_einternal>  (226) 
7.37642

>  <r_i_glide_intrahb_reward>  (226) 
-0

>  <i_i_glide_confnum>  (226) 
7

>  <i_i_glide_posenum>  (226) 
38

>  <r_i_glide_eff_state_penalty>  (226) 
0

>  <ligand_id>  (226) 
63

>  <original_smiles>  (226) 
CC12CC3(COC(=O)C(N)Cc4c[nH]cn4)C(=O)C3C3(OC1c1c(CO)coc13)C2(C)C

>  <smiles>  (226) 
[H]OC([H])([H])c1c([H])oc2c1C1([H])OC23C2([H])C(=O)C2(C([H])([H])OC(=O)C([H])(N([H])[H])C([H])([H])c2nc([H])n([H])c2[H])C([H])([H])C1(C([H])([H])[H])C3(C([H])([H])[H])C([H])([H])[H]

$$$$
63:5:0
     RDKit          3D

 61 66  0  0  1  0  0  0  0  0999 V2000
    2.9051   -4.8664    5.8195 C   0  0  0  0  0  0  0  0  0  0  0  0
    2.9211   -5.5547    4.4422 C   0  0  2  0  0  0  0  0  0  0  0  0
    3.3481   -4.4730    3.2967 C   0  0  0  0  0  0  0  0  0  0  0  0
    3.9649   -5.1094    1.9787 C   0  0  2  0  0  0  0  0  0  0  0  0
    5.2017   -4.3754    1.4891 C   0  0  0  0  0  0  0  0  0  0  0  0
    4.8630   -3.4229    0.4859 O   0  0  0  0  0  0  0  0  0  0  0  0
    5.3655   -2.1717    0.4786 C   0  0  0  0  0  0  0  0  0  0  0  0
    6.1997   -1.7189    1.2600 O   0  0  0  0  0  0  0  0  0  0  0  0
    4.6128   -1.3257   -0.5625 C   0  0  2  0  0  0  0  0  0  0  0  0
    3.1966   -1.3670   -0.1235 N   0  0  0  0  0  0  0  0  0  0  0  0
    4.7907   -1.8219   -2.0204 C   0  0  0  0  0  0  0  0  0  0  0  0
    4.0175   -1.1010   -3.0918 C   0  0  0  0  0  0  0  0  0  0  0  0
    3.0094   -1.5603   -3.9040 C   0  0  0  0  0  0  0  0  0  0  0  0
    2.6385   -0.5057   -4.7078 N   0  0  0  0  0  0  0  0  0  0  0  0
    3.4195    0.5246   -4.4563 C   0  0  0  0  0  0  0  0  0  0  0  0
    4.2068    0.2326   -3.4265 N   0  0  0  0  0  0  0  0  0  0  0  0
    3.0255   -5.5358    0.9104 C   0  0  0  0  0  0  0  0  0  0  0  0
    2.2500   -5.1730    0.0423 O   0  0  0  0  0  0  0  0  0  0  0  0
    3.7103   -6.6464    1.7049 C   0  0  2  0  0  0  0  0  0  0  0  0
    3.1286   -7.2029    3.0000 C   0  0  1  0  0  0  0  0  0  0  0  0
    1.9610   -6.3493    2.9209 O   0  0  0  0  0  0  0  0  0  0  0  0
    1.4945   -6.2823    4.1932 C   0  0  1  0  0  0  0  0  0  0  0  0
    1.3087   -7.7883    4.1361 C   0  0  0  0  0  0  0  0  0  0  0  0
    0.5926   -8.8979    4.6473 C   0  0  0  0  0  0  0  0  0  0  0  0
   -0.5802   -8.8780    5.5394 C   0  0  0  0  0  0  0  0  0  0  0  0
   -1.7297   -8.6541    4.7710 O   0  0  0  0  0  0  0  0  0  0  0  0
    1.1982   -9.9830    4.0544 C   0  0  0  0  0  0  0  0  0  0  0  0
    2.2799   -9.6258    3.2824 O   0  0  0  0  0  0  0  0  0  0  0  0
    2.1953   -8.2880    3.2764 C   0  0  0  0  0  0  0  0  0  0  0  0
    3.9037   -6.7314    4.3033 C   0  0  0  0  0  0  0  0  0  0  0  0
    5.4106   -6.3690    4.1180 C   0  0  0  0  0  0  0  0  0  0  0  0
    3.8996   -7.6619    5.5527 C   0  0  0  0  0  0  0  0  0  0  0  0
    1.9298   -0.5624   -5.4226 H   0  0  0  0  0  0  0  0  0  0  0  0
    3.8960   -4.5229    6.1073 H   0  0  0  0  0  0  0  0  0  0  0  0
    2.5456   -5.5269    6.6059 H   0  0  0  0  0  0  0  0  0  0  0  0
    2.2443   -4.0011    5.8209 H   0  0  0  0  0  0  0  0  0  0  0  0
    2.4803   -3.8699    3.0116 H   0  0  0  0  0  0  0  0  0  0  0  0
    4.0617   -3.7729    3.7229 H   0  0  0  0  0  0  0  0  0  0  0  0
    5.6763   -3.9003    2.3372 H   0  0  0  0  0  0  0  0  0  0  0  0
    5.9286   -5.1051    1.1517 H   0  0  0  0  0  0  0  0  0  0  0  0
    4.9554   -0.2917   -0.4847 H   0  0  0  0  0  0  0  0  0  0  0  0
    3.0813   -1.0187    0.8188 H   0  0  0  0  0  0  0  0  0  0  0  0
    2.7914   -2.2907   -0.2180 H   0  0  0  0  0  0  0  0  0  0  0  0
    5.8406   -1.6992   -2.2785 H   0  0  0  0  0  0  0  0  0  0  0  0
    4.5469   -2.8892   -2.1049 H   0  0  0  0  0  0  0  0  0  0  0  0
    2.4623   -2.4900   -3.9417 H   0  0  0  0  0  0  0  0  0  0  0  0
    3.3449    1.5031   -4.9262 H   0  0  0  0  0  0  0  0  0  0  0  0
    4.5293   -7.2398    1.2968 H   0  0  0  0  0  0  0  0  0  0  0  0
    0.5742   -5.7101    4.2916 H   0  0  0  0  0  0  0  0  0  0  0  0
   -0.6327   -9.8095    6.1204 H   0  0  0  0  0  0  0  0  0  0  0  0
   -0.4219   -8.1163    6.2877 H   0  0  0  0  0  0  0  0  0  0  0  0
   -2.0186   -9.5839    4.7257 H   0  0  0  0  0  0  0  0  0  0  0  0
    0.9673  -11.0430    4.0447 H   0  0  0  0  0  0  0  0  0  0  0  0
    6.0439   -6.9563    4.7725 H   0  0  0  0  0  0  0  0  0  0  0  0
    5.6155   -5.3300    4.3632 H   0  0  0  0  0  0  0  0  0  0  0  0
    5.8022   -6.5696    3.1235 H   0  0  0  0  0  0  0  0  0  0  0  0
    4.2884   -8.6465    5.3125 H   0  0  0  0  0  0  0  0  0  0  0  0
    2.9422   -7.7917    6.0420 H   0  0  0  0  0  0  0  0  0  0  0  0
    4.5394   -7.2490    6.3249 H   0  0  0  0  0  0  0  0  0  0  0  0
    4.8639    0.8855   -3.0102 H   0  0  0  0  0  0  0  0  0  0  0  0
    2.6148   -0.7858   -0.7008 H   0  0  0  0  0  0  0  0  0  0  0  0
  2  1  1  1
  1 34  1  0
  1 35  1  0
  1 36  1  0
  2 22  1  0
  2 30  1  0
  2  3  1  0
  3  4  1  0
  3 37  1  0
  3 38  1  0
  4 19  1  0
  4  5  1  6
  4 17  1  0
  5  6  1  0
  5 39  1  0
  5 40  1  0
  6  7  1  0
  7  8  2  0
  7  9  1  0
  9 10  1  0
  9 11  1  0
  9 41  1  6
 10 42  1  0
 10 43  1  0
 10 61  1  0
 11 12  1  0
 11 44  1  0
 11 45  1  0
 12 16  1  0
 12 13  2  0
 13 14  1  0
 13 46  1  0
 14 33  1  0
 14 15  1  0
 15 16  2  0
 15 47  1  0
 16 60  1  0
 17 18  2  0
 17 19  1  0
 19 20  1  0
 19 48  1  6
 20 29  1  6
 20 21  1  0
 20 30  1  0
 21 22  1  0
 22 23  1  0
 22 49  1  6
 23 29  2  0
 23 24  1  0
 24 25  1  0
 24 27  2  0
 25 26  1  0
 25 50  1  0
 25 51  1  0
 26 52  1  0
 27 28  1  0
 27 53  1  0
 28 29  1  0
 30 31  1  0
 30 32  1  0
 31 54  1  0
 31 55  1  0
 31 56  1  0
 32 57  1  0
 32 58  1  0
 32 59  1  0
M  CHG  2  10   1  16   1
M  END
>  <i_m_ct_stereo_status>  (227) 
1

>  <s_m_source_file>  (227) 
/var/tmp/pbs.5076255.sched01/tmp0pz6dnip/90w4u7_w6b.sdf

>  <i_m_source_file_index>  (227) 
8

>  <i_lp_mmshare_version>  (227) 
48012

>  <i_f3d_flags>  (227) 
0

>  <s_epik_input>  (227) 
W09IXVtDSDJdYzFbY0hdb2MyYzFbQ0BIXShPMylbQ0BAXShbQ0gzXSkoQzQoW0NIM10pW0NIM10pW0NIMl1DKEM1PU8pKFtDSF01W0NAXTIzNClbQ0gyXU9DKD1PKVtDQEhdKFtOSDJdKVtDSDJdYzZbY0hdW25IXVtjSF1uNg==

>  <s_epik_cmdline>  (227) 
J2VwaWtfcHl0aG9uJywgJy1waHQnLCAnMi4wJywgJy1waCcsICc3LjAnLCAnLXRuJywgJzgnLCAnLW1hJywgJzIwMCcsICctaW1hZScsICc8aW5maWxlLm1hZT4nLCAnLW9tYWUnLCAnPG91dGZpbGUubWFlPic=

>  <r_lp_tautomer_probability>  (227) 
1

>  <r_epik_Ionization_Penalty>  (227) 
4.15493

>  <r_epik_Ionization_Penalty_Charging>  (227) 
0.960905

>  <r_epik_Ionization_Penalty_Neutral>  (227) 
3.19402

>  <r_epik_State_Penalty>  (227) 
2.38062

>  <r_epik_Charging_Adjusted_Penalty>  (227) 
3.34152

>  <i_epik_Tot_Q>  (227) 
2

>  <i_epik_Tot_abs_Q>  (227) 
2

>  <s_epik_Chemistry_Notes>  (227) 
This compound has an ester and may undergo hydrolysis at high or low pH.

>  <s_lp_Force_Field>  (227) 
OPLS3e

>  <r_lp_Energy>  (227) 
148.427

>  <b_lp_Chiralities_Consistent>  (227) 
1

>  <s_lp_Variant>  (227) 
63:0-6

>  <s_i_glide_gridfile>  (227) 
pfpi4k_grid

>  <i_i_glide_lignum>  (227) 
8

>  <i_i_glide_rotatable_bonds>  (227) 
8

>  <r_i_docking_score>  (227) 
-3.53431

>  <r_i_glide_ligand_efficiency>  (227) 
-0.110447

>  <r_i_glide_ligand_efficiency_sa>  (227) 
-0.350648

>  <r_i_glide_ligand_efficiency_ln>  (227) 
-0.791428

>  <r_i_glide_gscore>  (227) 
-3.53431

>  <r_i_glide_lipo>  (227) 
-0.27978

>  <r_i_glide_hbond>  (227) 
-0.249719

>  <r_i_glide_metal>  (227) 
-0

>  <r_i_glide_rewards>  (227) 
-0.44455

>  <r_i_glide_evdw>  (227) 
-18.5731

>  <r_i_glide_ecoul>  (227) 
-14.0547

>  <r_i_glide_erotb>  (227) 
0.609869

>  <r_i_glide_esite>  (227) 
-0.133271

>  <r_i_glide_emodel>  (227) 
-37.0451

>  <r_i_glide_energy>  (227) 
-32.6278

>  <r_i_glide_einternal>  (227) 
7.17984

>  <r_i_glide_intrahb_reward>  (227) 
-0

>  <i_i_glide_confnum>  (227) 
6

>  <i_i_glide_posenum>  (227) 
3

>  <r_i_glide_eff_state_penalty>  (227) 
0

>  <ligand_id>  (227) 
63

>  <original_smiles>  (227) 
CC12CC3(COC(=O)C(N)Cc4c[nH]cn4)C(=O)C3C3(OC1c1c(CO)coc13)C2(C)C

>  <smiles>  (227) 
[H]OC([H])([H])c1c([H])oc2c1C1([H])OC23C2([H])C(=O)C2(C([H])([H])OC(=O)C([H])(C([H])([H])c2c([H])n([H])c([H])[n+]2[H])[N+]([H])([H])[H])C([H])([H])C1(C([H])([H])[H])C3(C([H])([H])[H])C([H])([H])[H]

$$$$
63:5:1
     RDKit          3D

 61 66  0  0  1  0  0  0  0  0999 V2000
    1.2056   -5.4644    5.5492 C   0  0  0  0  0  0  0  0  0  0  0  0
    1.8744   -5.5447    4.1633 C   0  0  2  0  0  0  0  0  0  0  0  0
    1.9924   -4.0485    3.5207 C   0  0  0  0  0  0  0  0  0  0  0  0
    3.1289   -3.8547    2.4211 C   0  0  2  0  0  0  0  0  0  0  0  0
    3.9788   -2.6133    2.6493 C   0  0  0  0  0  0  0  0  0  0  0  0
    3.2414   -1.4018    2.5086 O   0  0  0  0  0  0  0  0  0  0  0  0
    3.7991   -0.3228    1.9021 C   0  0  0  0  0  0  0  0  0  0  0  0
    4.9061   -0.2921    1.3796 O   0  0  0  0  0  0  0  0  0  0  0  0
    2.8667    0.9077    2.0201 C   0  0  2  0  0  0  0  0  0  0  0  0
    3.1305    1.5059    3.3223 N   0  0  0  0  0  0  0  0  0  0  0  0
    1.3524    0.6148    1.7668 C   0  0  0  0  0  0  0  0  0  0  0  0
    0.3146    1.4892    2.4640 C   0  0  0  0  0  0  0  0  0  0  0  0
    0.3857    2.3272    3.5709 C   0  0  0  0  0  0  0  0  0  0  0  0
   -0.8986    2.7805    3.8349 N   0  0  0  0  0  0  0  0  0  0  0  0
   -1.7101    2.2367    2.9164 C   0  0  0  0  0  0  0  0  0  0  0  0
   -1.0216    1.4524    2.0882 N   0  0  0  0  0  0  0  0  0  0  0  0
    2.8893   -4.1956    0.9741 C   0  0  0  0  0  0  0  0  0  0  0  0
    2.3803   -3.9014   -0.1023 O   0  0  0  0  0  0  0  0  0  0  0  0
    3.7591   -5.1469    1.8063 C   0  0  2  0  0  0  0  0  0  0  0  0
    3.1869   -6.3333    2.5937 C   0  0  1  0  0  0  0  0  0  0  0  0
    1.7956   -6.0657    2.2098 O   0  0  0  0  0  0  0  0  0  0  0  0
    1.1035   -6.6342    3.2441 C   0  0  1  0  0  0  0  0  0  0  0  0
    1.6989   -7.9700    2.8328 C   0  0  0  0  0  0  0  0  0  0  0  0
    1.4967   -9.3743    2.7599 C   0  0  0  0  0  0  0  0  0  0  0  0
    0.2865  -10.1683    3.1594 C   0  0  0  0  0  0  0  0  0  0  0  0
   -0.8383   -9.7390    2.4184 O   0  0  0  0  0  0  0  0  0  0  0  0
    2.6853   -9.8294    2.2298 C   0  0  0  0  0  0  0  0  0  0  0  0
    3.6393   -8.8402    2.0127 O   0  0  0  0  0  0  0  0  0  0  0  0
    2.9193   -7.7493    2.3201 C   0  0  0  0  0  0  0  0  0  0  0  0
    3.3105   -6.1022    4.1652 C   0  0  0  0  0  0  0  0  0  0  0  0
    4.4599   -5.1538    4.6600 C   0  0  0  0  0  0  0  0  0  0  0  0
    3.4722   -7.3560    5.1043 C   0  0  0  0  0  0  0  0  0  0  0  0
   -1.1624    3.3998    4.5861 H   0  0  0  0  0  0  0  0  0  0  0  0
    1.8045   -4.8858    6.2524 H   0  0  0  0  0  0  0  0  0  0  0  0
    1.0407   -6.4534    5.9801 H   0  0  0  0  0  0  0  0  0  0  0  0
    0.2305   -4.9883    5.4651 H   0  0  0  0  0  0  0  0  0  0  0  0
    1.0379   -3.7748    3.0707 H   0  0  0  0  0  0  0  0  0  0  0  0
    2.1640   -3.3217    4.3226 H   0  0  0  0  0  0  0  0  0  0  0  0
    4.4004   -2.6294    3.6604 H   0  0  0  0  0  0  0  0  0  0  0  0
    4.8065   -2.6443    1.9355 H   0  0  0  0  0  0  0  0  0  0  0  0
    3.1881    1.6615    1.3075 H   0  0  0  0  0  0  0  0  0  0  0  0
    4.1247    1.6978    3.3763 H   0  0  0  0  0  0  0  0  0  0  0  0
    2.8899    0.8617    4.0519 H   0  0  0  0  0  0  0  0  0  0  0  0
    1.1930    0.7075    0.6913 H   0  0  0  0  0  0  0  0  0  0  0  0
    1.0816   -0.4168    1.9916 H   0  0  0  0  0  0  0  0  0  0  0  0
    1.2141    2.6348    4.2114 H   0  0  0  0  0  0  0  0  0  0  0  0
   -2.7857    2.4261    2.8701 H   0  0  0  0  0  0  0  0  0  0  0  0
    4.8303   -5.2071    1.5979 H   0  0  0  0  0  0  0  0  0  0  0  0
    0.0316   -6.5159    3.1065 H   0  0  0  0  0  0  0  0  0  0  0  0
    0.4464  -11.2298    2.9623 H   0  0  0  0  0  0  0  0  0  0  0  0
    0.1165  -10.0746    4.2347 H   0  0  0  0  0  0  0  0  0  0  0  0
   -0.6558   -9.8505    1.5055 H   0  0  0  0  0  0  0  0  0  0  0  0
    3.0432  -10.8135    1.9657 H   0  0  0  0  0  0  0  0  0  0  0  0
    5.1319   -5.6357    5.3737 H   0  0  0  0  0  0  0  0  0  0  0  0
    4.0591   -4.2836    5.1784 H   0  0  0  0  0  0  0  0  0  0  0  0
    5.1255   -4.8132    3.8673 H   0  0  0  0  0  0  0  0  0  0  0  0
    4.3501   -7.9553    4.8274 H   0  0  0  0  0  0  0  0  0  0  0  0
    2.6047   -8.0206    5.1448 H   0  0  0  0  0  0  0  0  0  0  0  0
    3.6175   -7.0312    6.1426 H   0  0  0  0  0  0  0  0  0  0  0  0
   -1.3861    0.9740    1.2495 H   0  0  0  0  0  0  0  0  0  0  0  0
    2.6332    2.3956    3.3357 H   0  0  0  0  0  0  0  0  0  0  0  0
  2  1  1  1
  1 34  1  0
  1 35  1  0
  1 36  1  0
  2 22  1  0
  2 30  1  0
  2  3  1  0
  3  4  1  0
  3 37  1  0
  3 38  1  0
  4 19  1  0
  4  5  1  6
  4 17  1  0
  5  6  1  0
  5 39  1  0
  5 40  1  0
  6  7  1  0
  7  8  2  0
  7  9  1  0
  9 10  1  0
  9 11  1  0
  9 41  1  6
 10 42  1  0
 10 43  1  0
 10 61  1  0
 11 12  1  0
 11 44  1  0
 11 45  1  0
 12 16  1  0
 12 13  2  0
 13 14  1  0
 13 46  1  0
 14 33  1  0
 14 15  1  0
 15 16  2  0
 15 47  1  0
 16 60  1  0
 17 18  2  0
 17 19  1  0
 19 20  1  0
 19 48  1  6
 20 29  1  6
 20 21  1  0
 20 30  1  0
 21 22  1  0
 22 23  1  0
 22 49  1  6
 23 29  2  0
 23 24  1  0
 24 25  1  0
 24 27  2  0
 25 26  1  0
 25 50  1  0
 25 51  1  0
 26 52  1  0
 27 28  1  0
 27 53  1  0
 28 29  1  0
 30 31  1  0
 30 32  1  0
 31 54  1  0
 31 55  1  0
 31 56  1  0
 32 57  1  0
 32 58  1  0
 32 59  1  0
M  CHG  2  10   1  16   1
M  END
>  <i_m_ct_stereo_status>  (228) 
1

>  <s_m_source_file>  (228) 
/var/tmp/pbs.5076255.sched01/tmp0pz6dnip/90w4u7_w6b.sdf

>  <i_m_source_file_index>  (228) 
8

>  <i_lp_mmshare_version>  (228) 
48012

>  <i_f3d_flags>  (228) 
0

>  <s_epik_input>  (228) 
W09IXVtDSDJdYzFbY0hdb2MyYzFbQ0BIXShPMylbQ0BAXShbQ0gzXSkoQzQoW0NIM10pW0NIM10pW0NIMl1DKEM1PU8pKFtDSF01W0NAXTIzNClbQ0gyXU9DKD1PKVtDQEhdKFtOSDJdKVtDSDJdYzZbY0hdW25IXVtjSF1uNg==

>  <s_epik_cmdline>  (228) 
J2VwaWtfcHl0aG9uJywgJy1waHQnLCAnMi4wJywgJy1waCcsICc3LjAnLCAnLXRuJywgJzgnLCAnLW1hJywgJzIwMCcsICctaW1hZScsICc8aW5maWxlLm1hZT4nLCAnLW9tYWUnLCAnPG91dGZpbGUubWFlPic=

>  <r_lp_tautomer_probability>  (228) 
1

>  <r_epik_Ionization_Penalty>  (228) 
4.15493

>  <r_epik_Ionization_Penalty_Charging>  (228) 
0.960905

>  <r_epik_Ionization_Penalty_Neutral>  (228) 
3.19402

>  <r_epik_State_Penalty>  (228) 
2.38062

>  <r_epik_Charging_Adjusted_Penalty>  (228) 
3.34152

>  <i_epik_Tot_Q>  (228) 
2

>  <i_epik_Tot_abs_Q>  (228) 
2

>  <s_epik_Chemistry_Notes>  (228) 
This compound has an ester and may undergo hydrolysis at high or low pH.

>  <s_lp_Force_Field>  (228) 
OPLS3e

>  <r_lp_Energy>  (228) 
148.427

>  <b_lp_Chiralities_Consistent>  (228) 
1

>  <s_lp_Variant>  (228) 
63:0-6

>  <s_i_glide_gridfile>  (228) 
pfpi4k_grid

>  <i_i_glide_lignum>  (228) 
8

>  <i_i_glide_rotatable_bonds>  (228) 
8

>  <r_i_docking_score>  (228) 
-3.2307

>  <r_i_glide_ligand_efficiency>  (228) 
-0.100959

>  <r_i_glide_ligand_efficiency_sa>  (228) 
-0.320526

>  <r_i_glide_ligand_efficiency_ln>  (228) 
-0.723443

>  <r_i_glide_gscore>  (228) 
-3.2307

>  <r_i_glide_lipo>  (228) 
-0.0989516

>  <r_i_glide_hbond>  (228) 
-0.492868

>  <r_i_glide_metal>  (228) 
-0

>  <r_i_glide_rewards>  (228) 
-0.431073

>  <r_i_glide_evdw>  (228) 
-24.4304

>  <r_i_glide_ecoul>  (228) 
-9.52411

>  <r_i_glide_erotb>  (228) 
0.609869

>  <r_i_glide_esite>  (228) 
-0.167546

>  <r_i_glide_emodel>  (228) 
-39.3659

>  <r_i_glide_energy>  (228) 
-33.9545

>  <r_i_glide_einternal>  (228) 
5.21984

>  <r_i_glide_intrahb_reward>  (228) 
-0

>  <i_i_glide_confnum>  (228) 
7

>  <i_i_glide_posenum>  (228) 
9

>  <r_i_glide_eff_state_penalty>  (228) 
0

>  <ligand_id>  (228) 
63

>  <original_smiles>  (228) 
CC12CC3(COC(=O)C(N)Cc4c[nH]cn4)C(=O)C3C3(OC1c1c(CO)coc13)C2(C)C

>  <smiles>  (228) 
[H]OC([H])([H])c1c([H])oc2c1C1([H])OC23C2([H])C(=O)C2(C([H])([H])OC(=O)C([H])(C([H])([H])c2c([H])n([H])c([H])[n+]2[H])[N+]([H])([H])[H])C([H])([H])C1(C([H])([H])[H])C3(C([H])([H])[H])C([H])([H])[H]

$$$$
63:5:2
     RDKit          3D

 61 66  0  0  1  0  0  0  0  0999 V2000
    1.2913   -5.0825    5.3175 C   0  0  0  0  0  0  0  0  0  0  0  0
    1.9390   -5.2415    3.9265 C   0  0  2  0  0  0  0  0  0  0  0  0
    2.1681   -3.7687    3.2793 C   0  0  0  0  0  0  0  0  0  0  0  0
    3.3050   -3.6688    2.1720 C   0  0  2  0  0  0  0  0  0  0  0  0
    4.2232   -2.4631    2.3804 C   0  0  0  0  0  0  0  0  0  0  0  0
    3.5306   -1.2778    2.7904 O   0  0  0  0  0  0  0  0  0  0  0  0
    4.2174   -0.2627    3.3557 C   0  0  0  0  0  0  0  0  0  0  0  0
    5.4484   -0.2149    3.4745 O   0  0  0  0  0  0  0  0  0  0  0  0
    3.2706    0.8345    3.8794 C   0  0  2  0  0  0  0  0  0  0  0  0
    2.3005    0.2043    4.8025 N   0  0  0  0  0  0  0  0  0  0  0  0
    2.5668    1.6059    2.7349 C   0  0  0  0  0  0  0  0  0  0  0  0
    2.1643    3.0431    3.0452 C   0  0  0  0  0  0  0  0  0  0  0  0
    1.0002    3.5715    3.5708 C   0  0  0  0  0  0  0  0  0  0  0  0
    1.1598    4.9495    3.6393 N   0  0  0  0  0  0  0  0  0  0  0  0
    2.3557    5.2241    3.1248 C   0  0  0  0  0  0  0  0  0  0  0  0
    3.0089    4.1108    2.8137 N   0  0  0  0  0  0  0  0  0  0  0  0
    3.0121   -3.9836    0.7312 C   0  0  0  0  0  0  0  0  0  0  0  0
    2.5187   -3.6373   -0.3343 O   0  0  0  0  0  0  0  0  0  0  0  0
    3.8059   -5.0157    1.5316 C   0  0  2  0  0  0  0  0  0  0  0  0
    3.1716   -6.1481    2.3391 C   0  0  1  0  0  0  0  0  0  0  0  0
    1.8172   -5.7240    2.0023 O   0  0  0  0  0  0  0  0  0  0  0  0
    1.0665   -6.2567    3.0218 C   0  0  1  0  0  0  0  0  0  0  0  0
    1.5267   -7.6377    2.5968 C   0  0  0  0  0  0  0  0  0  0  0  0
    1.2076   -9.0254    2.5595 C   0  0  0  0  0  0  0  0  0  0  0  0
   -0.0478   -9.7004    3.0349 C   0  0  0  0  0  0  0  0  0  0  0  0
   -0.6308   -9.0707    4.1581 O   0  0  0  0  0  0  0  0  0  0  0  0
    2.3564   -9.5783    2.0048 C   0  0  0  0  0  0  0  0  0  0  0  0
    3.3714   -8.6641    1.7729 O   0  0  0  0  0  0  0  0  0  0  0  0
    2.7390   -7.5188    2.0518 C   0  0  0  0  0  0  0  0  0  0  0  0
    3.3221   -5.9176    3.9058 C   0  0  0  0  0  0  0  0  0  0  0  0
    4.5446   -5.0620    4.3882 C   0  0  0  0  0  0  0  0  0  0  0  0
    3.3770   -7.1608    4.8601 C   0  0  0  0  0  0  0  0  0  0  0  0
    0.4516    5.6360    3.8397 H   0  0  0  0  0  0  0  0  0  0  0  0
    1.9451   -4.5547    6.0114 H   0  0  0  0  0  0  0  0  0  0  0  0
    1.0427   -6.0457    5.7620 H   0  0  0  0  0  0  0  0  0  0  0  0
    0.3599   -4.5210    5.2470 H   0  0  0  0  0  0  0  0  0  0  0  0
    1.2371   -3.4041    2.8438 H   0  0  0  0  0  0  0  0  0  0  0  0
    2.3999   -3.0765    4.0857 H   0  0  0  0  0  0  0  0  0  0  0  0
    4.9736   -2.7194    3.1289 H   0  0  0  0  0  0  0  0  0  0  0  0
    4.7830   -2.2683    1.4631 H   0  0  0  0  0  0  0  0  0  0  0  0
    3.8775    1.5323    4.4537 H   0  0  0  0  0  0  0  0  0  0  0  0
    2.7943   -0.2732    5.5371 H   0  0  0  0  0  0  0  0  0  0  0  0
    1.7484   -0.4658    4.2926 H   0  0  0  0  0  0  0  0  0  0  0  0
    3.2100    1.6387    1.8538 H   0  0  0  0  0  0  0  0  0  0  0  0
    1.6695    1.0733    2.4256 H   0  0  0  0  0  0  0  0  0  0  0  0
    0.0772    3.0990    3.8688 H   0  0  0  0  0  0  0  0  0  0  0  0
    2.7219    6.2280    2.9532 H   0  0  0  0  0  0  0  0  0  0  0  0
    4.8598   -5.1585    1.3148 H   0  0  0  0  0  0  0  0  0  0  0  0
    0.0055   -6.0644    2.9045 H   0  0  0  0  0  0  0  0  0  0  0  0
   -0.7642   -9.6944    2.2167 H   0  0  0  0  0  0  0  0  0  0  0  0
    0.1538  -10.7463    3.2743 H   0  0  0  0  0  0  0  0  0  0  0  0
   -1.2439   -9.6937    4.5412 H   0  0  0  0  0  0  0  0  0  0  0  0
    2.6316  -10.5981    1.7387 H   0  0  0  0  0  0  0  0  0  0  0  0
    5.1761   -5.5916    5.1008 H   0  0  0  0  0  0  0  0  0  0  0  0
    4.2391   -4.1464    4.8949 H   0  0  0  0  0  0  0  0  0  0  0  0
    5.2333   -4.8099    3.5862 H   0  0  0  0  0  0  0  0  0  0  0  0
    4.1901   -7.8355    4.5826 H   0  0  0  0  0  0  0  0  0  0  0  0
    2.4607   -7.7476    4.9224 H   0  0  0  0  0  0  0  0  0  0  0  0
    3.5667   -6.8505    5.8930 H   0  0  0  0  0  0  0  0  0  0  0  0
    3.9340    4.0474    2.3638 H   0  0  0  0  0  0  0  0  0  0  0  0
    1.7010    0.9008    5.2089 H   0  0  0  0  0  0  0  0  0  0  0  0
  2  1  1  1
  1 34  1  0
  1 35  1  0
  1 36  1  0
  2 22  1  0
  2 30  1  0
  2  3  1  0
  3  4  1  0
  3 37  1  0
  3 38  1  0
  4 19  1  0
  4  5  1  6
  4 17  1  0
  5  6  1  0
  5 39  1  0
  5 40  1  0
  6  7  1  0
  7  8  2  0
  7  9  1  0
  9 10  1  0
  9 11  1  0
  9 41  1  1
 10 42  1  0
 10 43  1  0
 10 61  1  0
 11 12  1  0
 11 44  1  0
 11 45  1  0
 12 16  1  0
 12 13  2  0
 13 14  1  0
 13 46  1  0
 14 33  1  0
 14 15  1  0
 15 16  2  0
 15 47  1  0
 16 60  1  0
 17 18  2  0
 17 19  1  0
 19 20  1  0
 19 48  1  6
 20 29  1  6
 20 21  1  0
 20 30  1  0
 21 22  1  0
 22 23  1  0
 22 49  1  6
 23 29  2  0
 23 24  1  0
 24 25  1  0
 24 27  2  0
 25 26  1  0
 25 50  1  0
 25 51  1  0
 26 52  1  0
 27 28  1  0
 27 53  1  0
 28 29  1  0
 30 31  1  0
 30 32  1  0
 31 54  1  0
 31 55  1  0
 31 56  1  0
 32 57  1  0
 32 58  1  0
 32 59  1  0
M  CHG  2  10   1  16   1
M  END
>  <i_m_ct_stereo_status>  (229) 
1

>  <s_m_source_file>  (229) 
/var/tmp/pbs.5076255.sched01/tmp0pz6dnip/90w4u7_w6b.sdf

>  <i_m_source_file_index>  (229) 
8

>  <i_lp_mmshare_version>  (229) 
48012

>  <i_f3d_flags>  (229) 
0

>  <s_epik_input>  (229) 
W09IXVtDSDJdYzFbY0hdb2MyYzFbQ0BIXShPMylbQ0BAXShbQ0gzXSkoQzQoW0NIM10pW0NIM10pW0NIMl1DKEM1PU8pKFtDSF01W0NAXTIzNClbQ0gyXU9DKD1PKVtDQEhdKFtOSDJdKVtDSDJdYzZbY0hdW25IXVtjSF1uNg==

>  <s_epik_cmdline>  (229) 
J2VwaWtfcHl0aG9uJywgJy1waHQnLCAnMi4wJywgJy1waCcsICc3LjAnLCAnLXRuJywgJzgnLCAnLW1hJywgJzIwMCcsICctaW1hZScsICc8aW5maWxlLm1hZT4nLCAnLW9tYWUnLCAnPG91dGZpbGUubWFlPic=

>  <r_lp_tautomer_probability>  (229) 
1

>  <r_epik_Ionization_Penalty>  (229) 
4.15493

>  <r_epik_Ionization_Penalty_Charging>  (229) 
0.960905

>  <r_epik_Ionization_Penalty_Neutral>  (229) 
3.19402

>  <r_epik_State_Penalty>  (229) 
2.38062

>  <r_epik_Charging_Adjusted_Penalty>  (229) 
3.34152

>  <i_epik_Tot_Q>  (229) 
2

>  <i_epik_Tot_abs_Q>  (229) 
2

>  <s_epik_Chemistry_Notes>  (229) 
This compound has an ester and may undergo hydrolysis at high or low pH.

>  <s_lp_Force_Field>  (229) 
OPLS3e

>  <r_lp_Energy>  (229) 
148.427

>  <b_lp_Chiralities_Consistent>  (229) 
1

>  <s_lp_Variant>  (229) 
63:0-6

>  <s_i_glide_gridfile>  (229) 
pfpi4k_grid

>  <i_i_glide_lignum>  (229) 
8

>  <i_i_glide_rotatable_bonds>  (229) 
8

>  <r_i_docking_score>  (229) 
-2.88022

>  <r_i_glide_ligand_efficiency>  (229) 
-0.0900068

>  <r_i_glide_ligand_efficiency_sa>  (229) 
-0.285754

>  <r_i_glide_ligand_efficiency_ln>  (229) 
-0.644959

>  <r_i_glide_gscore>  (229) 
-2.88022

>  <r_i_glide_lipo>  (229) 
-0.0689752

>  <r_i_glide_hbond>  (229) 
-0.16

>  <r_i_glide_metal>  (229) 
-0

>  <r_i_glide_rewards>  (229) 
-0.433118

>  <r_i_glide_evdw>  (229) 
-24.0795

>  <r_i_glide_ecoul>  (229) 
-10.0131

>  <r_i_glide_erotb>  (229) 
0.609869

>  <r_i_glide_esite>  (229) 
-0.122056

>  <r_i_glide_emodel>  (229) 
-38.7146

>  <r_i_glide_energy>  (229) 
-34.0926

>  <r_i_glide_einternal>  (229) 
5.53331

>  <r_i_glide_intrahb_reward>  (229) 
-0

>  <i_i_glide_confnum>  (229) 
6

>  <i_i_glide_posenum>  (229) 
27

>  <r_i_glide_eff_state_penalty>  (229) 
0

>  <ligand_id>  (229) 
63

>  <original_smiles>  (229) 
CC12CC3(COC(=O)C(N)Cc4c[nH]cn4)C(=O)C3C3(OC1c1c(CO)coc13)C2(C)C

>  <smiles>  (229) 
[H]OC([H])([H])c1c([H])oc2c1C1([H])OC23C2([H])C(=O)C2(C([H])([H])OC(=O)C([H])(C([H])([H])c2c([H])n([H])c([H])[n+]2[H])[N+]([H])([H])[H])C([H])([H])C1(C([H])([H])[H])C3(C([H])([H])[H])C([H])([H])[H]

$$$$
64:0:0
     RDKit          3D

 56 62  0  0  1  0  0  0  0  0999 V2000
   -0.1875   -7.2148    3.6230 C   0  0  0  0  0  0  0  0  0  0  0  0
    0.5564   -8.3981    4.2449 C   0  0  0  0  0  0  0  0  0  0  0  0
   -0.1523   -8.6978    5.5718 C   0  0  0  0  0  0  0  0  0  0  0  0
    0.7337   -9.5888    3.2963 C   0  0  0  0  0  0  0  0  0  0  0  0
    2.1871   -9.7631    3.7530 C   0  0  1  0  0  0  0  0  0  0  0  0
    2.3804  -10.9683    4.6954 C   0  0  0  0  0  0  0  0  0  0  0  0
    3.3056   -9.6418    2.7124 C   0  0  1  0  0  0  0  0  0  0  0  0
    3.1320   -8.1589    2.1138 C   0  0  1  0  0  0  0  0  0  0  0  0
    2.8861   -7.3766    3.3914 C   0  0  2  0  0  0  0  0  0  0  0  0
    4.3756   -6.9131    3.6473 C   0  0  2  0  0  0  0  0  0  0  0  0
    4.4190   -5.5029    3.0040 C   0  0  0  0  0  0  0  0  0  0  0  0
    4.2831   -5.8378    1.4814 C   0  0  0  0  0  0  0  0  0  0  0  0
    5.3806   -5.1885    0.6186 C   0  0  0  0  0  0  0  0  0  0  0  0
    6.5804   -5.3611    0.8118 O   0  0  0  0  0  0  0  0  0  0  0  0
    4.7913   -4.3464   -0.4311 C   0  0  0  0  0  0  0  0  0  0  0  0
    3.4629   -4.3561   -0.3199 C   0  0  0  0  0  0  0  0  0  0  0  0
    3.0585   -5.2410    0.7721 C   0  0  0  0  0  0  0  0  0  0  0  0
    1.8896   -5.4688    1.0912 O   0  0  0  0  0  0  0  0  0  0  0  0
    4.3768   -7.4077    1.5013 C   0  0  1  0  0  0  0  0  0  0  0  0
    5.3581   -7.6293    2.6350 C   0  0  2  0  0  0  0  0  0  0  0  0
    5.5974   -9.1285    2.5816 C   0  0  2  0  0  0  0  0  0  0  0  0
    4.6070   -9.7188    3.5276 C   0  0  2  0  0  0  0  0  0  0  0  0
    6.0218  -10.2639    3.4364 C   0  0  0  0  0  0  0  0  0  0  0  0
    6.1755  -11.6666    2.8747 C   0  0  0  0  0  0  0  0  0  0  0  0
    7.0494   -9.9941    4.5188 C   0  0  0  0  0  0  0  0  0  0  0  0
    2.1102   -8.3385    4.3230 C   0  0  1  0  0  0  0  0  0  0  0  0
   -1.2605   -7.4028    3.5499 H   0  0  0  0  0  0  0  0  0  0  0  0
    0.1584   -7.0322    2.6008 H   0  0  0  0  0  0  0  0  0  0  0  0
   -0.0355   -6.2945    4.1896 H   0  0  0  0  0  0  0  0  0  0  0  0
    0.3400   -9.4929    6.1229 H   0  0  0  0  0  0  0  0  0  0  0  0
   -1.1835   -9.0101    5.4096 H   0  0  0  0  0  0  0  0  0  0  0  0
   -0.1719   -7.8254    6.2241 H   0  0  0  0  0  0  0  0  0  0  0  0
    0.0877  -10.4301    3.5408 H   0  0  0  0  0  0  0  0  0  0  0  0
    0.6342   -9.3335    2.2369 H   0  0  0  0  0  0  0  0  0  0  0  0
    3.1457  -10.8041    5.4507 H   0  0  0  0  0  0  0  0  0  0  0  0
    2.6389  -11.8717    4.1455 H   0  0  0  0  0  0  0  0  0  0  0  0
    1.4733  -11.2057    5.2464 H   0  0  0  0  0  0  0  0  0  0  0  0
    3.2754  -10.4126    1.9440 H   0  0  0  0  0  0  0  0  0  0  0  0
    2.2694   -8.1106    1.4474 H   0  0  0  0  0  0  0  0  0  0  0  0
    2.2647   -6.5021    3.2471 H   0  0  0  0  0  0  0  0  0  0  0  0
    4.6821   -6.8967    4.6971 H   0  0  0  0  0  0  0  0  0  0  0  0
    3.6349   -4.8334    3.3575 H   0  0  0  0  0  0  0  0  0  0  0  0
    5.3659   -5.0083    3.2180 H   0  0  0  0  0  0  0  0  0  0  0  0
    5.3785   -3.8486   -1.1848 H   0  0  0  0  0  0  0  0  0  0  0  0
    2.7691   -3.8814   -0.9869 H   0  0  0  0  0  0  0  0  0  0  0  0
    4.6896   -7.8086    0.5385 H   0  0  0  0  0  0  0  0  0  0  0  0
    6.3173   -7.1227    2.5294 H   0  0  0  0  0  0  0  0  0  0  0  0
    5.6563   -9.4726    1.5568 H   0  0  0  0  0  0  0  0  0  0  0  0
    4.5103   -9.2844    4.5103 H   0  0  0  0  0  0  0  0  0  0  0  0
    6.0157  -12.4065    3.6617 H   0  0  0  0  0  0  0  0  0  0  0  0
    7.1614  -11.8125    2.4338 H   0  0  0  0  0  0  0  0  0  0  0  0
    5.4230  -11.8422    2.1029 H   0  0  0  0  0  0  0  0  0  0  0  0
    6.9270  -10.6895    5.3478 H   0  0  0  0  0  0  0  0  0  0  0  0
    6.9282   -8.9745    4.8986 H   0  0  0  0  0  0  0  0  0  0  0  0
    8.0575  -10.0868    4.1144 H   0  0  0  0  0  0  0  0  0  0  0  0
    2.4348   -8.2947    5.3607 H   0  0  0  0  0  0  0  0  0  0  0  0
  1  2  1  0
  1 27  1  0
  1 28  1  0
  1 29  1  0
  2 26  1  0
  2  3  1  0
  2  4  1  0
  3 30  1  0
  3 31  1  0
  3 32  1  0
  4  5  1  0
  4 33  1  0
  4 34  1  0
  5 26  1  0
  5  6  1  1
  5  7  1  0
  6 35  1  0
  6 36  1  0
  6 37  1  0
  7 22  1  0
  7  8  1  0
  7 38  1  6
  8 19  1  0
  8  9  1  0
  8 39  1  6
  9 10  1  0
  9 26  1  0
  9 40  1  6
 10 20  1  0
 10 11  1  0
 10 41  1  1
 11 12  1  0
 11 42  1  0
 11 43  1  0
 12 17  1  0
 12 13  1  0
 12 19  1  0
 13 14  2  0
 13 15  1  0
 15 16  2  0
 15 44  1  0
 16 17  1  0
 16 45  1  0
 17 18  2  0
 19 20  1  0
 19 46  1  6
 20 21  1  0
 20 47  1  6
 21 23  1  0
 21 22  1  0
 21 48  1  6
 22 23  1  0
 22 49  1  1
 23 24  1  0
 23 25  1  0
 24 50  1  0
 24 51  1  0
 24 52  1  0
 25 53  1  0
 25 54  1  0
 25 55  1  0
 26 56  1  1
M  END
>  <i_m_ct_stereo_status>  (230) 
1

>  <s_m_source_file>  (230) 
/var/tmp/pbs.5076255.sched01/tmp0pz6dnip/90w4u7_w6b.sdf

>  <i_m_source_file_index>  (230) 
9

>  <i_lp_mmshare_version>  (230) 
48012

>  <i_f3d_flags>  (230) 
0

>  <s_epik_input>  (230) 
W0NIM11DMShbQ0gzXSlbQ0BIXTJbQ0hdMVtDQEBIXTNbQ0BASF0oW0NIMl00KVtDQEBIXTVbQ0BASF0oQyhbQ0gzXSkoW0NIM10pW0NIMl02KVtDQF02KFtDSDNdKVtDQEhdMltDQEBIXTVbQ0BIXTNDNDdDKD1PKVtDSF09W0NIXUM3PU8=

>  <s_epik_cmdline>  (230) 
J2VwaWtfcHl0aG9uJywgJy1waHQnLCAnMi4wJywgJy1waCcsICc3LjAnLCAnLXRuJywgJzgnLCAnLW1hJywgJzIwMCcsICctaW1hZScsICc8aW5maWxlLm1hZT4nLCAnLW9tYWUnLCAnPG91dGZpbGUubWFlPic=

>  <r_lp_tautomer_probability>  (230) 
1

>  <r_epik_Ionization_Penalty>  (230) 
0

>  <r_epik_Ionization_Penalty_Charging>  (230) 
0

>  <r_epik_Ionization_Penalty_Neutral>  (230) 
0

>  <r_epik_State_Penalty>  (230) 
-0

>  <r_epik_Charging_Adjusted_Penalty>  (230) 
0

>  <i_epik_Tot_Q>  (230) 
0

>  <i_epik_Tot_abs_Q>  (230) 
0

>  <s_lp_Force_Field>  (230) 
OPLS3e

>  <r_lp_Energy>  (230) 
118.997

>  <b_lp_Chiralities_Consistent>  (230) 
1

>  <s_lp_Variant>  (230) 
64:0-1

>  <s_i_glide_gridfile>  (230) 
pfpi4k_grid

>  <i_i_glide_lignum>  (230) 
9

>  <i_i_glide_rotatable_bonds>  (230) 
0

>  <r_i_docking_score>  (230) 
-2.766

>  <r_i_glide_ligand_efficiency>  (230) 
-0.106385

>  <r_i_glide_ligand_efficiency_sa>  (230) 
-0.315164

>  <r_i_glide_ligand_efficiency_ln>  (230) 
-0.649587

>  <r_i_glide_gscore>  (230) 
-2.766

>  <r_i_glide_lipo>  (230) 
-0.143358

>  <r_i_glide_hbond>  (230) 
-0.0716744

>  <r_i_glide_metal>  (230) 
-0

>  <r_i_glide_rewards>  (230) 
-1.14335

>  <r_i_glide_evdw>  (230) 
-19.5969

>  <r_i_glide_ecoul>  (230) 
-2.73196

>  <r_i_glide_erotb>  (230) 
0

>  <r_i_glide_esite>  (230) 
-0.0179838

>  <r_i_glide_emodel>  (230) 
-26.2779

>  <r_i_glide_energy>  (230) 
-22.3289

>  <r_i_glide_einternal>  (230) 
0

>  <r_i_glide_intrahb_reward>  (230) 
-0

>  <i_i_glide_confnum>  (230) 
2

>  <i_i_glide_posenum>  (230) 
22

>  <r_i_glide_eff_state_penalty>  (230) 
0

>  <ligand_id>  (230) 
64

>  <original_smiles>  (230) 
CC1(C)CC2(C)C3C4C(C5CC6(C(=O)C=CC6=O)C4C5C4C3C4(C)C)C12

>  <smiles>  (230) 
[H]C1=C([H])C(=O)C2(C1=O)C([H])([H])C1([H])C3([H])C2([H])C2([H])C1([H])C1([H])C(C([H])([H])[H])(C([H])([H])[H])C([H])([H])C1(C([H])([H])[H])C2([H])C1([H])C3([H])C1(C([H])([H])[H])C([H])([H])[H]

$$$$
64:0:1
     RDKit          3D

 56 62  0  0  1  0  0  0  0  0999 V2000
    0.3344   -6.9392    1.8055 C   0  0  0  0  0  0  0  0  0  0  0  0
    1.3773   -7.6055    2.7069 C   0  0  0  0  0  0  0  0  0  0  0  0
    0.6241   -8.1413    3.9316 C   0  0  0  0  0  0  0  0  0  0  0  0
    2.2666   -8.6182    1.9742 C   0  0  0  0  0  0  0  0  0  0  0  0
    3.5107   -8.0634    2.6786 C   0  0  1  0  0  0  0  0  0  0  0  0
    4.0237   -8.9876    3.8045 C   0  0  0  0  0  0  0  0  0  0  0  0
    4.6471   -7.4746    1.8275 C   0  0  1  0  0  0  0  0  0  0  0  0
    3.9509   -6.2806    1.0067 C   0  0  1  0  0  0  0  0  0  0  0  0
    3.1205   -5.6496    2.1152 C   0  0  2  0  0  0  0  0  0  0  0  0
    4.1452   -4.5192    2.5328 C   0  0  2  0  0  0  0  0  0  0  0  0
    3.6903   -3.2887    1.7008 C   0  0  0  0  0  0  0  0  0  0  0  0
    4.0473   -3.7247    0.2465 C   0  0  0  0  0  0  0  0  0  0  0  0
    4.8896   -2.6843   -0.5188 C   0  0  0  0  0  0  0  0  0  0  0  0
    5.9674   -2.2526   -0.1218 O   0  0  0  0  0  0  0  0  0  0  0  0
    4.2310   -2.3012   -1.7623 C   0  0  0  0  0  0  0  0  0  0  0  0
    3.0691   -2.9498   -1.8834 C   0  0  0  0  0  0  0  0  0  0  0  0
    2.8538   -3.8172   -0.7229 C   0  0  0  0  0  0  0  0  0  0  0  0
    1.8626   -4.5223   -0.5460 O   0  0  0  0  0  0  0  0  0  0  0  0
    4.8190   -5.0612    0.5062 C   0  0  1  0  0  0  0  0  0  0  0  0
    5.5384   -4.7475    1.8091 C   0  0  2  0  0  0  0  0  0  0  0  0
    6.4429   -5.9597    2.0009 C   0  0  2  0  0  0  0  0  0  0  0  0
    5.6436   -6.8996    2.8531 C   0  0  2  0  0  0  0  0  0  0  0  0
    7.1276   -6.7257    3.0699 C   0  0  0  0  0  0  0  0  0  0  0  0
    7.9996   -7.9240    2.7417 C   0  0  0  0  0  0  0  0  0  0  0  0
    7.6703   -5.9487    4.2540 C   0  0  0  0  0  0  0  0  0  0  0  0
    2.6806   -6.8147    3.0327 C   0  0  1  0  0  0  0  0  0  0  0  0
   -0.4991   -7.6098    1.5880 H   0  0  0  0  0  0  0  0  0  0  0  0
    0.7648   -6.6675    0.8402 H   0  0  0  0  0  0  0  0  0  0  0  0
   -0.0585   -6.0332    2.2625 H   0  0  0  0  0  0  0  0  0  0  0  0
    1.2990   -8.5696    4.6712 H   0  0  0  0  0  0  0  0  0  0  0  0
   -0.0828   -8.9271    3.6589 H   0  0  0  0  0  0  0  0  0  0  0  0
    0.0674   -7.3541    4.4406 H   0  0  0  0  0  0  0  0  0  0  0  0
    2.0340   -9.6551    2.2244 H   0  0  0  0  0  0  0  0  0  0  0  0
    2.2840   -8.4956    0.8920 H   0  0  0  0  0  0  0  0  0  0  0  0
    4.4593   -8.4430    4.6423 H   0  0  0  0  0  0  0  0  0  0  0  0
    4.7702   -9.6910    3.4353 H   0  0  0  0  0  0  0  0  0  0  0  0
    3.2250   -9.5948    4.2290 H   0  0  0  0  0  0  0  0  0  0  0  0
    5.1256   -8.2135    1.1800 H   0  0  0  0  0  0  0  0  0  0  0  0
    3.3196   -6.6538    0.2038 H   0  0  0  0  0  0  0  0  0  0  0  0
    2.2163   -5.1789    1.7460 H   0  0  0  0  0  0  0  0  0  0  0  0
    4.1906   -4.3164    3.6046 H   0  0  0  0  0  0  0  0  0  0  0  0
    2.6319   -3.0526    1.8367 H   0  0  0  0  0  0  0  0  0  0  0  0
    4.2431   -2.4003    2.0083 H   0  0  0  0  0  0  0  0  0  0  0  0
    4.6509   -1.5903   -2.4593 H   0  0  0  0  0  0  0  0  0  0  0  0
    2.3604   -2.8632   -2.6973 H   0  0  0  0  0  0  0  0  0  0  0  0
    5.4732   -5.3253   -0.3257 H   0  0  0  0  0  0  0  0  0  0  0  0
    6.1651   -3.8561    1.7853 H   0  0  0  0  0  0  0  0  0  0  0  0
    6.8588   -6.2893    1.0460 H   0  0  0  0  0  0  0  0  0  0  0  0
    5.1474   -6.5061    3.7413 H   0  0  0  0  0  0  0  0  0  0  0  0
    8.0393   -8.6102    3.5882 H   0  0  0  0  0  0  0  0  0  0  0  0
    9.0141   -7.6090    2.4893 H   0  0  0  0  0  0  0  0  0  0  0  0
    7.5929   -8.4692    1.8881 H   0  0  0  0  0  0  0  0  0  0  0  0
    7.7137   -6.5793    5.1408 H   0  0  0  0  0  0  0  0  0  0  0  0
    7.0223   -5.0965    4.4720 H   0  0  0  0  0  0  0  0  0  0  0  0
    8.6714   -5.5737    4.0357 H   0  0  0  0  0  0  0  0  0  0  0  0
    2.7333   -6.5622    4.0924 H   0  0  0  0  0  0  0  0  0  0  0  0
  1  2  1  0
  1 27  1  0
  1 28  1  0
  1 29  1  0
  2 26  1  0
  2  3  1  0
  2  4  1  0
  3 30  1  0
  3 31  1  0
  3 32  1  0
  4  5  1  0
  4 33  1  0
  4 34  1  0
  5 26  1  0
  5  6  1  1
  5  7  1  0
  6 35  1  0
  6 36  1  0
  6 37  1  0
  7 22  1  0
  7  8  1  0
  7 38  1  6
  8 19  1  0
  8  9  1  0
  8 39  1  6
  9 10  1  0
  9 26  1  0
  9 40  1  6
 10 20  1  0
 10 11  1  0
 10 41  1  1
 11 12  1  0
 11 42  1  0
 11 43  1  0
 12 17  1  0
 12 13  1  0
 12 19  1  0
 13 14  2  0
 13 15  1  0
 15 16  2  0
 15 44  1  0
 16 17  1  0
 16 45  1  0
 17 18  2  0
 19 20  1  0
 19 46  1  6
 20 21  1  0
 20 47  1  6
 21 23  1  0
 21 22  1  0
 21 48  1  6
 22 23  1  0
 22 49  1  1
 23 24  1  0
 23 25  1  0
 24 50  1  0
 24 51  1  0
 24 52  1  0
 25 53  1  0
 25 54  1  0
 25 55  1  0
 26 56  1  1
M  END
>  <i_m_ct_stereo_status>  (231) 
1

>  <s_m_source_file>  (231) 
/var/tmp/pbs.5076255.sched01/tmp0pz6dnip/90w4u7_w6b.sdf

>  <i_m_source_file_index>  (231) 
9

>  <i_lp_mmshare_version>  (231) 
48012

>  <i_f3d_flags>  (231) 
0

>  <s_epik_input>  (231) 
W0NIM11DMShbQ0gzXSlbQ0BIXTJbQ0hdMVtDQEBIXTNbQ0BASF0oW0NIMl00KVtDQEBIXTVbQ0BASF0oQyhbQ0gzXSkoW0NIM10pW0NIMl02KVtDQF02KFtDSDNdKVtDQEhdMltDQEBIXTVbQ0BIXTNDNDdDKD1PKVtDSF09W0NIXUM3PU8=

>  <s_epik_cmdline>  (231) 
J2VwaWtfcHl0aG9uJywgJy1waHQnLCAnMi4wJywgJy1waCcsICc3LjAnLCAnLXRuJywgJzgnLCAnLW1hJywgJzIwMCcsICctaW1hZScsICc8aW5maWxlLm1hZT4nLCAnLW9tYWUnLCAnPG91dGZpbGUubWFlPic=

>  <r_lp_tautomer_probability>  (231) 
1

>  <r_epik_Ionization_Penalty>  (231) 
0

>  <r_epik_Ionization_Penalty_Charging>  (231) 
0

>  <r_epik_Ionization_Penalty_Neutral>  (231) 
0

>  <r_epik_State_Penalty>  (231) 
-0

>  <r_epik_Charging_Adjusted_Penalty>  (231) 
0

>  <i_epik_Tot_Q>  (231) 
0

>  <i_epik_Tot_abs_Q>  (231) 
0

>  <s_lp_Force_Field>  (231) 
OPLS3e

>  <r_lp_Energy>  (231) 
118.997

>  <b_lp_Chiralities_Consistent>  (231) 
1

>  <s_lp_Variant>  (231) 
64:0-1

>  <s_i_glide_gridfile>  (231) 
pfpi4k_grid

>  <i_i_glide_lignum>  (231) 
9

>  <i_i_glide_rotatable_bonds>  (231) 
0

>  <r_i_docking_score>  (231) 
-2.60009

>  <r_i_glide_ligand_efficiency>  (231) 
-0.100003

>  <r_i_glide_ligand_efficiency_sa>  (231) 
-0.296259

>  <r_i_glide_ligand_efficiency_ln>  (231) 
-0.610621

>  <r_i_glide_gscore>  (231) 
-2.60009

>  <r_i_glide_lipo>  (231) 
-0.330146

>  <r_i_glide_hbond>  (231) 
-0.00694651

>  <r_i_glide_metal>  (231) 
-0

>  <r_i_glide_rewards>  (231) 
-1.01936

>  <r_i_glide_evdw>  (231) 
-19.4376

>  <r_i_glide_ecoul>  (231) 
-1.63904

>  <r_i_glide_erotb>  (231) 
0

>  <r_i_glide_esite>  (231) 
-0.0258971

>  <r_i_glide_emodel>  (231) 
-24.7938

>  <r_i_glide_energy>  (231) 
-21.0766

>  <r_i_glide_einternal>  (231) 
0

>  <r_i_glide_intrahb_reward>  (231) 
-0

>  <i_i_glide_confnum>  (231) 
2

>  <i_i_glide_posenum>  (231) 
37

>  <r_i_glide_eff_state_penalty>  (231) 
0

>  <ligand_id>  (231) 
64

>  <original_smiles>  (231) 
CC1(C)CC2(C)C3C4C(C5CC6(C(=O)C=CC6=O)C4C5C4C3C4(C)C)C12

>  <smiles>  (231) 
[H]C1=C([H])C(=O)C2(C1=O)C([H])([H])C1([H])C3([H])C2([H])C2([H])C1([H])C1([H])C(C([H])([H])[H])(C([H])([H])[H])C([H])([H])C1(C([H])([H])[H])C2([H])C1([H])C3([H])C1(C([H])([H])[H])C([H])([H])[H]

$$$$
64:0:2
     RDKit          3D

 56 62  0  0  1  0  0  0  0  0999 V2000
   -0.5275   -7.2269    2.7207 C   0  0  0  0  0  0  0  0  0  0  0  0
    0.0673   -8.3506    3.5678 C   0  0  0  0  0  0  0  0  0  0  0  0
   -0.9471   -8.6207    4.6845 C   0  0  0  0  0  0  0  0  0  0  0  0
    0.5074   -9.5748    2.7623 C   0  0  0  0  0  0  0  0  0  0  0  0
    1.7991   -9.6740    3.5779 C   0  0  1  0  0  0  0  0  0  0  0  0
    1.7760  -10.8288    4.6000 C   0  0  0  0  0  0  0  0  0  0  0  0
    3.1369   -9.5596    2.8418 C   0  0  1  0  0  0  0  0  0  0  0  0
    3.0855   -8.1111    2.1442 C   0  0  1  0  0  0  0  0  0  0  0  0
    2.5079   -7.2811    3.2738 C   0  0  2  0  0  0  0  0  0  0  0  0
    3.8726   -6.7550    3.8709 C   0  0  2  0  0  0  0  0  0  0  0  0
    4.0410   -5.3730    3.1889 C   0  0  0  0  0  0  0  0  0  0  0  0
    4.3042   -5.7789    1.6963 C   0  0  0  0  0  0  0  0  0  0  0  0
    5.5671   -5.1366    1.1019 C   0  0  0  0  0  0  0  0  0  0  0  0
    6.6822   -5.2486    1.5997 O   0  0  0  0  0  0  0  0  0  0  0  0
    5.2483   -4.3695   -0.1162 C   0  0  0  0  0  0  0  0  0  0  0  0
    3.9387   -4.4333   -0.3455 C   0  0  0  0  0  0  0  0  0  0  0  0
    3.2858   -5.2605    0.6740 C   0  0  0  0  0  0  0  0  0  0  0  0
    2.0743   -5.4890    0.7223 O   0  0  0  0  0  0  0  0  0  0  0  0
    4.4260   -7.3446    1.8238 C   0  0  1  0  0  0  0  0  0  0  0  0
    5.0937   -7.4749    3.1770 C   0  0  2  0  0  0  0  0  0  0  0  0
    5.3732   -8.9651    3.2637 C   0  0  2  0  0  0  0  0  0  0  0  0
    4.1915   -9.5476    3.9605 C   0  0  2  0  0  0  0  0  0  0  0  0
    5.5962  -10.0449    4.2557 C   0  0  0  0  0  0  0  0  0  0  0  0
    5.9175  -11.4666    3.8256 C   0  0  0  0  0  0  0  0  0  0  0  0
    6.3115   -9.6919    5.5473 C   0  0  0  0  0  0  0  0  0  0  0  0
    1.5465   -8.2301    4.0328 C   0  0  1  0  0  0  0  0  0  0  0  0
   -1.5424   -7.4566    2.3900 H   0  0  0  0  0  0  0  0  0  0  0  0
    0.0580   -7.0756    1.8076 H   0  0  0  0  0  0  0  0  0  0  0  0
   -0.5397   -6.2811    3.2644 H   0  0  0  0  0  0  0  0  0  0  0  0
   -0.5865   -9.3585    5.3910 H   0  0  0  0  0  0  0  0  0  0  0  0
   -1.8907   -8.9996    4.2847 H   0  0  0  0  0  0  0  0  0  0  0  0
   -1.1592   -7.7171    5.2584 H   0  0  0  0  0  0  0  0  0  0  0  0
   -0.1574  -10.4269    2.8727 H   0  0  0  0  0  0  0  0  0  0  0  0
    0.6795   -9.3614    1.7042 H   0  0  0  0  0  0  0  0  0  0  0  0
    2.3214  -10.6039    5.5134 H   0  0  0  0  0  0  0  0  0  0  0  0
    2.1875  -11.7455    4.1812 H   0  0  0  0  0  0  0  0  0  0  0  0
    0.7656  -11.0729    4.9156 H   0  0  0  0  0  0  0  0  0  0  0  0
    3.3233  -10.3621    2.1346 H   0  0  0  0  0  0  0  0  0  0  0  0
    2.4187   -8.1227    1.2813 H   0  0  0  0  0  0  0  0  0  0  0  0
    1.9204   -6.4385    2.9333 H   0  0  0  0  0  0  0  0  0  0  0  0
    3.9025   -6.6769    4.9616 H   0  0  0  0  0  0  0  0  0  0  0  0
    3.1776   -4.7159    3.2944 H   0  0  0  0  0  0  0  0  0  0  0  0
    4.8908   -4.8336    3.6022 H   0  0  0  0  0  0  0  0  0  0  0  0
    5.9931   -3.8735   -0.7109 H   0  0  0  0  0  0  0  0  0  0  0  0
    3.4176   -4.0059   -1.1813 H   0  0  0  0  0  0  0  0  0  0  0  0
    4.9818   -7.7745    0.9937 H   0  0  0  0  0  0  0  0  0  0  0  0
    6.0372   -6.9392    3.2895 H   0  0  0  0  0  0  0  0  0  0  0  0
    5.7008   -9.3515    2.3129 H   0  0  0  0  0  0  0  0  0  0  0  0
    3.8443   -9.0788    4.8612 H   0  0  0  0  0  0  0  0  0  0  0  0
    5.5863  -12.1762    4.5883 H   0  0  0  0  0  0  0  0  0  0  0  0
    6.9855  -11.5969    3.6500 H   0  0  0  0  0  0  0  0  0  0  0  0
    5.3845  -11.7060    2.9018 H   0  0  0  0  0  0  0  0  0  0  0  0
    6.0013  -10.3527    6.3556 H   0  0  0  0  0  0  0  0  0  0  0  0
    6.0742   -8.6614    5.8302 H   0  0  0  0  0  0  0  0  0  0  0  0
    7.3916   -9.7650    5.4151 H   0  0  0  0  0  0  0  0  0  0  0  0
    1.5944   -8.1274    5.1129 H   0  0  0  0  0  0  0  0  0  0  0  0
  1  2  1  0
  1 27  1  0
  1 28  1  0
  1 29  1  0
  2 26  1  0
  2  3  1  0
  2  4  1  0
  3 30  1  0
  3 31  1  0
  3 32  1  0
  4  5  1  0
  4 33  1  0
  4 34  1  0
  5 26  1  0
  5  6  1  1
  5  7  1  0
  6 35  1  0
  6 36  1  0
  6 37  1  0
  7 22  1  0
  7  8  1  0
  7 38  1  6
  8 19  1  0
  8  9  1  0
  8 39  1  6
  9 10  1  0
  9 26  1  0
  9 40  1  6
 10 20  1  0
 10 11  1  0
 10 41  1  1
 11 12  1  0
 11 42  1  0
 11 43  1  0
 12 17  1  0
 12 13  1  0
 12 19  1  0
 13 14  2  0
 13 15  1  0
 15 16  2  0
 15 44  1  0
 16 17  1  0
 16 45  1  0
 17 18  2  0
 19 20  1  0
 19 46  1  6
 20 21  1  0
 20 47  1  6
 21 23  1  0
 21 22  1  0
 21 48  1  6
 22 23  1  0
 22 49  1  1
 23 24  1  0
 23 25  1  0
 24 50  1  0
 24 51  1  0
 24 52  1  0
 25 53  1  0
 25 54  1  0
 25 55  1  0
 26 56  1  1
M  END
>  <i_m_ct_stereo_status>  (232) 
1

>  <s_m_source_file>  (232) 
/var/tmp/pbs.5076255.sched01/tmp0pz6dnip/90w4u7_w6b.sdf

>  <i_m_source_file_index>  (232) 
9

>  <i_lp_mmshare_version>  (232) 
48012

>  <i_f3d_flags>  (232) 
0

>  <s_epik_input>  (232) 
W0NIM11DMShbQ0gzXSlbQ0BIXTJbQ0hdMVtDQEBIXTNbQ0BASF0oW0NIMl00KVtDQEBIXTVbQ0BASF0oQyhbQ0gzXSkoW0NIM10pW0NIMl02KVtDQF02KFtDSDNdKVtDQEhdMltDQEBIXTVbQ0BIXTNDNDdDKD1PKVtDSF09W0NIXUM3PU8=

>  <s_epik_cmdline>  (232) 
J2VwaWtfcHl0aG9uJywgJy1waHQnLCAnMi4wJywgJy1waCcsICc3LjAnLCAnLXRuJywgJzgnLCAnLW1hJywgJzIwMCcsICctaW1hZScsICc8aW5maWxlLm1hZT4nLCAnLW9tYWUnLCAnPG91dGZpbGUubWFlPic=

>  <r_lp_tautomer_probability>  (232) 
1

>  <r_epik_Ionization_Penalty>  (232) 
0

>  <r_epik_Ionization_Penalty_Charging>  (232) 
0

>  <r_epik_Ionization_Penalty_Neutral>  (232) 
0

>  <r_epik_State_Penalty>  (232) 
-0

>  <r_epik_Charging_Adjusted_Penalty>  (232) 
0

>  <i_epik_Tot_Q>  (232) 
0

>  <i_epik_Tot_abs_Q>  (232) 
0

>  <s_lp_Force_Field>  (232) 
OPLS3e

>  <r_lp_Energy>  (232) 
118.997

>  <b_lp_Chiralities_Consistent>  (232) 
1

>  <s_lp_Variant>  (232) 
64:0-1

>  <s_i_glide_gridfile>  (232) 
pfpi4k_grid

>  <i_i_glide_lignum>  (232) 
9

>  <i_i_glide_rotatable_bonds>  (232) 
0

>  <r_i_docking_score>  (232) 
-2.57222

>  <r_i_glide_ligand_efficiency>  (232) 
-0.0989317

>  <r_i_glide_ligand_efficiency_sa>  (232) 
-0.293085

>  <r_i_glide_ligand_efficiency_ln>  (232) 
-0.604078

>  <r_i_glide_gscore>  (232) 
-2.57222

>  <r_i_glide_lipo>  (232) 
-0.142248

>  <r_i_glide_hbond>  (232) 
-0.0345014

>  <r_i_glide_metal>  (232) 
-0

>  <r_i_glide_rewards>  (232) 
-1.11946

>  <r_i_glide_evdw>  (232) 
-19.0808

>  <r_i_glide_ecoul>  (232) 
-2.05718

>  <r_i_glide_erotb>  (232) 
0

>  <r_i_glide_esite>  (232) 
-0.0133957

>  <r_i_glide_emodel>  (232) 
-24.7812

>  <r_i_glide_energy>  (232) 
-21.138

>  <r_i_glide_einternal>  (232) 
0

>  <r_i_glide_intrahb_reward>  (232) 
-0

>  <i_i_glide_confnum>  (232) 
2

>  <i_i_glide_posenum>  (232) 
17

>  <r_i_glide_eff_state_penalty>  (232) 
0

>  <ligand_id>  (232) 
64

>  <original_smiles>  (232) 
CC1(C)CC2(C)C3C4C(C5CC6(C(=O)C=CC6=O)C4C5C4C3C4(C)C)C12

>  <smiles>  (232) 
[H]C1=C([H])C(=O)C2(C1=O)C([H])([H])C1([H])C3([H])C2([H])C2([H])C1([H])C1([H])C(C([H])([H])[H])(C([H])([H])[H])C([H])([H])C1(C([H])([H])[H])C2([H])C1([H])C3([H])C1(C([H])([H])[H])C([H])([H])[H]

$$$$
64:1:0
     RDKit          3D

 56 62  0  0  1  0  0  0  0  0999 V2000
    3.6422   -1.2139    4.9017 C   0  0  0  0  0  0  0  0  0  0  0  0
    4.3717   -0.1003    5.6641 C   0  0  0  0  0  0  0  0  0  0  0  0
    5.2729   -0.8058    6.6870 C   0  0  0  0  0  0  0  0  0  0  0  0
    5.0478    0.9280    4.7493 C   0  0  0  0  0  0  0  0  0  0  0  0
    4.5633    2.0819    5.6413 C   0  0  1  0  0  0  0  0  0  0  0  0
    5.6863    2.6109    6.5536 C   0  0  0  0  0  0  0  0  0  0  0  0
    3.7084    3.1913    4.9607 C   0  0  1  0  0  0  0  0  0  0  0  0
    2.3919    2.4398    4.5141 C   0  0  1  0  0  0  0  0  0  0  0  0
    2.1715    1.3970    5.6189 C   0  0  2  0  0  0  0  0  0  0  0  0
    1.0443    2.0821    6.4540 C   0  0  2  0  0  0  0  0  0  0  0  0
   -0.2779    1.5975    5.8105 C   0  0  0  0  0  0  0  0  0  0  0  0
   -0.2293    2.2806    4.4104 C   0  0  0  0  0  0  0  0  0  0  0  0
   -0.2453    1.3062    3.2177 C   0  0  0  0  0  0  0  0  0  0  0  0
    0.5563    0.3875    3.0611 O   0  0  0  0  0  0  0  0  0  0  0  0
   -1.3796    1.5870    2.3565 C   0  0  0  0  0  0  0  0  0  0  0  0
   -2.1132    2.5889    2.8624 C   0  0  0  0  0  0  0  0  0  0  0  0
   -1.5055    3.0809    4.0891 C   0  0  0  0  0  0  0  0  0  0  0  0
   -1.9307    4.0024    4.7788 O   0  0  0  0  0  0  0  0  0  0  0  0
    1.0331    3.1989    4.5311 C   0  0  1  0  0  0  0  0  0  0  0  0
    0.9873    3.5648    6.0127 C   0  0  2  0  0  0  0  0  0  0  0  0
    2.0971    4.4739    6.5022 C   0  0  1  0  0  0  0  0  0  0  0  0
    3.4690    4.3669    5.9294 C   0  0  2  0  0  0  0  0  0  0  0  0
    2.6767    5.6514    5.7138 C   0  0  0  0  0  0  0  0  0  0  0  0
    2.3386    6.0692    4.2892 C   0  0  0  0  0  0  0  0  0  0  0  0
    3.0351    6.8890    6.5240 C   0  0  0  0  0  0  0  0  0  0  0  0
    3.5418    1.0927    6.2237 C   0  0  1  0  0  0  0  0  0  0  0  0
    4.3356   -1.9660    4.5204 H   0  0  0  0  0  0  0  0  0  0  0  0
    3.1150   -0.8200    4.0292 H   0  0  0  0  0  0  0  0  0  0  0  0
    2.9064   -1.7180    5.5291 H   0  0  0  0  0  0  0  0  0  0  0  0
    5.7460   -0.1048    7.3718 H   0  0  0  0  0  0  0  0  0  0  0  0
    6.0698   -1.3691    6.1990 H   0  0  0  0  0  0  0  0  0  0  0  0
    4.7048   -1.5022    7.3047 H   0  0  0  0  0  0  0  0  0  0  0  0
    6.1334    0.8169    4.7018 H   0  0  0  0  0  0  0  0  0  0  0  0
    4.6253    0.9530    3.7419 H   0  0  0  0  0  0  0  0  0  0  0  0
    5.3137    2.9131    7.5315 H   0  0  0  0  0  0  0  0  0  0  0  0
    6.2115    3.4546    6.1057 H   0  0  0  0  0  0  0  0  0  0  0  0
    6.4509    1.8627    6.7434 H   0  0  0  0  0  0  0  0  0  0  0  0
    4.2058    3.5903    4.0766 H   0  0  0  0  0  0  0  0  0  0  0  0
    2.5700    1.9544    3.5541 H   0  0  0  0  0  0  0  0  0  0  0  0
    1.7699    0.4758    5.2088 H   0  0  0  0  0  0  0  0  0  0  0  0
    1.0923    1.9027    7.5263 H   0  0  0  0  0  0  0  0  0  0  0  0
   -0.3491    0.5092    5.7541 H   0  0  0  0  0  0  0  0  0  0  0  0
   -1.1344    1.9342    6.3968 H   0  0  0  0  0  0  0  0  0  0  0  0
   -1.5963    1.0332    1.4547 H   0  0  0  0  0  0  0  0  0  0  0  0
   -3.0198    2.9922    2.4381 H   0  0  0  0  0  0  0  0  0  0  0  0
    0.9641    4.0203    3.8256 H   0  0  0  0  0  0  0  0  0  0  0  0
    0.0506    4.0400    6.3043 H   0  0  0  0  0  0  0  0  0  0  0  0
    2.0569    4.6068    7.5796 H   0  0  0  0  0  0  0  0  0  0  0  0
    4.3033    4.5989    6.5779 H   0  0  0  0  0  0  0  0  0  0  0  0
    2.9089    6.9517    3.9972 H   0  0  0  0  0  0  0  0  0  0  0  0
    1.2769    6.3059    4.2028 H   0  0  0  0  0  0  0  0  0  0  0  0
    2.6063    5.2941    3.5701 H   0  0  0  0  0  0  0  0  0  0  0  0
    3.8577    7.4325    6.0572 H   0  0  0  0  0  0  0  0  0  0  0  0
    3.3460    6.6139    7.5332 H   0  0  0  0  0  0  0  0  0  0  0  0
    2.1745    7.5540    6.6018 H   0  0  0  0  0  0  0  0  0  0  0  0
    3.5386    1.0965    7.3124 H   0  0  0  0  0  0  0  0  0  0  0  0
  1  2  1  0
  1 27  1  0
  1 28  1  0
  1 29  1  0
  2 26  1  0
  2  3  1  0
  2  4  1  0
  3 30  1  0
  3 31  1  0
  3 32  1  0
  4  5  1  0
  4 33  1  0
  4 34  1  0
  5 26  1  0
  5  6  1  1
  5  7  1  0
  6 35  1  0
  6 36  1  0
  6 37  1  0
  7 22  1  0
  7  8  1  0
  7 38  1  6
  8 19  1  0
  8  9  1  0
  8 39  1  6
  9 10  1  0
  9 26  1  0
  9 40  1  6
 10 20  1  0
 10 11  1  0
 10 41  1  1
 11 12  1  0
 11 42  1  0
 11 43  1  0
 12 17  1  0
 12 13  1  0
 12 19  1  0
 13 14  2  0
 13 15  1  0
 15 16  2  0
 15 44  1  0
 16 17  1  0
 16 45  1  0
 17 18  2  0
 19 20  1  0
 19 46  1  6
 20 21  1  0
 20 47  1  6
 21 23  1  0
 21 22  1  0
 21 48  1  1
 22 23  1  0
 22 49  1  1
 23 24  1  0
 23 25  1  0
 24 50  1  0
 24 51  1  0
 24 52  1  0
 25 53  1  0
 25 54  1  0
 25 55  1  0
 26 56  1  1
M  END
>  <i_m_ct_stereo_status>  (233) 
1

>  <s_m_source_file>  (233) 
/var/tmp/pbs.5076255.sched01/tmp0pz6dnip/90w4u7_w6b.sdf

>  <i_m_source_file_index>  (233) 
10

>  <i_lp_mmshare_version>  (233) 
48012

>  <i_f3d_flags>  (233) 
0

>  <s_epik_input>  (233) 
W0NIM11DMShbQ0gzXSlbQ0BIXTJbQ0hdMVtDQEBIXTNbQ0BASF0oW0NIMl00KVtDQEBIXTVbQ0BASF0oQyhbQ0gzXSkoW0NIM10pW0NIMl02KVtDQF02KFtDSDNdKVtDQEhdMltDQEBIXTVbQ0BIXTNDNDdDKD1PKVtDSF09W0NIXUM3PU8=

>  <s_epik_cmdline>  (233) 
J2VwaWtfcHl0aG9uJywgJy1waHQnLCAnMi4wJywgJy1waCcsICc3LjAnLCAnLXRuJywgJzgnLCAnLW1hJywgJzIwMCcsICctaW1hZScsICc8aW5maWxlLm1hZT4nLCAnLW9tYWUnLCAnPG91dGZpbGUubWFlPic=

>  <r_lp_tautomer_probability>  (233) 
1

>  <r_epik_Ionization_Penalty>  (233) 
0

>  <r_epik_Ionization_Penalty_Charging>  (233) 
0

>  <r_epik_Ionization_Penalty_Neutral>  (233) 
0

>  <r_epik_State_Penalty>  (233) 
-0

>  <r_epik_Charging_Adjusted_Penalty>  (233) 
0

>  <i_epik_Tot_Q>  (233) 
0

>  <i_epik_Tot_abs_Q>  (233) 
0

>  <s_lp_Force_Field>  (233) 
OPLS3e

>  <r_lp_Energy>  (233) 
85.2938

>  <b_lp_Chiralities_Consistent>  (233) 
1

>  <s_lp_Variant>  (233) 
64:0-2

>  <s_i_glide_gridfile>  (233) 
pfpi4k_grid

>  <i_i_glide_lignum>  (233) 
10

>  <i_i_glide_rotatable_bonds>  (233) 
0

>  <r_i_docking_score>  (233) 
-2.26158

>  <r_i_glide_ligand_efficiency>  (233) 
-0.0869839

>  <r_i_glide_ligand_efficiency_sa>  (233) 
-0.25769

>  <r_i_glide_ligand_efficiency_ln>  (233) 
-0.531125

>  <r_i_glide_gscore>  (233) 
-2.26158

>  <r_i_glide_lipo>  (233) 
-0.0931299

>  <r_i_glide_hbond>  (233) 
0

>  <r_i_glide_metal>  (233) 
-0

>  <r_i_glide_rewards>  (233) 
-1.01936

>  <r_i_glide_evdw>  (233) 
-16.0139

>  <r_i_glide_ecoul>  (233) 
-1.81387

>  <r_i_glide_erotb>  (233) 
0

>  <r_i_glide_esite>  (233) 
-0.0763142

>  <r_i_glide_emodel>  (233) 
-20.583

>  <r_i_glide_energy>  (233) 
-17.8278

>  <r_i_glide_einternal>  (233) 
0

>  <r_i_glide_intrahb_reward>  (233) 
-0

>  <i_i_glide_confnum>  (233) 
1

>  <i_i_glide_posenum>  (233) 
13

>  <r_i_glide_eff_state_penalty>  (233) 
0

>  <ligand_id>  (233) 
64

>  <original_smiles>  (233) 
CC1(C)CC2(C)C3C4C(C5CC6(C(=O)C=CC6=O)C4C5C4C3C4(C)C)C12

>  <smiles>  (233) 
[H]C1=C([H])C(=O)C2(C1=O)C([H])([H])C1([H])C3([H])C2([H])C2([H])C1([H])C1([H])C(C([H])([H])[H])(C([H])([H])[H])C([H])([H])C1(C([H])([H])[H])C2([H])C1([H])C3([H])C1(C([H])([H])[H])C([H])([H])[H]

$$$$
64:1:1
     RDKit          3D

 56 62  0  0  1  0  0  0  0  0999 V2000
    2.6939   -2.0478    5.4095 C   0  0  0  0  0  0  0  0  0  0  0  0
    3.7037   -1.1035    6.0765 C   0  0  0  0  0  0  0  0  0  0  0  0
    4.3810   -1.9158    7.1896 C   0  0  0  0  0  0  0  0  0  0  0  0
    4.6334   -0.3964    5.0816 C   0  0  0  0  0  0  0  0  0  0  0  0
    4.4793    0.9291    5.8428 C   0  0  1  0  0  0  0  0  0  0  0  0
    5.7077    1.2263    6.7267 C   0  0  0  0  0  0  0  0  0  0  0  0
    3.9604    2.1510    5.0328 C   0  0  1  0  0  0  0  0  0  0  0  0
    2.4842    1.7463    4.6291 C   0  0  1  0  0  0  0  0  0  0  0  0
    1.9916    0.9207    5.8268 C   0  0  2  0  0  0  0  0  0  0  0  0
    1.0931    1.9679    6.5605 C   0  0  2  0  0  0  0  0  0  0  0  0
   -0.3100    1.7965    5.9345 C   0  0  0  0  0  0  0  0  0  0  0  0
   -0.0876    2.2995    4.4758 C   0  0  0  0  0  0  0  0  0  0  0  0
   -0.3742    1.2517    3.3861 C   0  0  0  0  0  0  0  0  0  0  0  0
    0.1540    0.1397    3.3329 O   0  0  0  0  0  0  0  0  0  0  0  0
   -1.3980    1.7398    2.4809 C   0  0  0  0  0  0  0  0  0  0  0  0
   -1.8358    2.9391    2.8760 C   0  0  0  0  0  0  0  0  0  0  0  0
   -1.1029    3.3749    4.0504 C   0  0  0  0  0  0  0  0  0  0  0  0
   -1.2740    4.4423    4.6422 O   0  0  0  0  0  0  0  0  0  0  0  0
    1.3838    2.8424    4.5356 C   0  0  1  0  0  0  0  0  0  0  0  0
    1.4424    3.3584    5.9723 C   0  0  2  0  0  0  0  0  0  0  0  0
    2.7613    3.9775    6.3981 C   0  0  1  0  0  0  0  0  0  0  0  0
    4.0519    3.4447    5.8717 C   0  0  2  0  0  0  0  0  0  0  0  0
    3.6366    4.8671    5.5109 C   0  0  0  0  0  0  0  0  0  0  0  0
    3.4178    5.2114    4.0436 C   0  0  0  0  0  0  0  0  0  0  0  0
    4.3206    6.0369    6.2058 C   0  0  0  0  0  0  0  0  0  0  0  0
    3.2285    0.3201    6.4938 C   0  0  1  0  0  0  0  0  0  0  0  0
    3.1563   -2.9939    5.1210 H   0  0  0  0  0  0  0  0  0  0  0  0
    2.2921   -1.6156    4.4903 H   0  0  0  0  0  0  0  0  0  0  0  0
    1.8513   -2.2667    6.0661 H   0  0  0  0  0  0  0  0  0  0  0  0
    5.0264   -1.3021    7.8131 H   0  0  0  0  0  0  0  0  0  0  0  0
    4.9946   -2.7188    6.7813 H   0  0  0  0  0  0  0  0  0  0  0  0
    3.6466   -2.3646    7.8578 H   0  0  0  0  0  0  0  0  0  0  0  0
    5.6477   -0.7991    5.0755 H   0  0  0  0  0  0  0  0  0  0  0  0
    4.2360   -0.3571    4.0650 H   0  0  0  0  0  0  0  0  0  0  0  0
    5.4338    1.7190    7.6597 H   0  0  0  0  0  0  0  0  0  0  0  0
    6.4421    1.8428    6.2087 H   0  0  0  0  0  0  0  0  0  0  0  0
    6.2394    0.3221    7.0117 H   0  0  0  0  0  0  0  0  0  0  0  0
    4.5579    2.2823    4.1335 H   0  0  0  0  0  0  0  0  0  0  0  0
    2.5203    1.1343    3.7273 H   0  0  0  0  0  0  0  0  0  0  0  0
    1.3520    0.1059    5.4991 H   0  0  0  0  0  0  0  0  0  0  0  0
    1.0953    1.8941    7.6450 H   0  0  0  0  0  0  0  0  0  0  0  0
   -0.6763    0.7706    5.9832 H   0  0  0  0  0  0  0  0  0  0  0  0
   -1.0407    2.4107    6.4637 H   0  0  0  0  0  0  0  0  0  0  0  0
   -1.7482    1.1831    1.6227 H   0  0  0  0  0  0  0  0  0  0  0  0
   -2.5872    3.5386    2.3827 H   0  0  0  0  0  0  0  0  0  0  0  0
    1.5377    3.5770    3.7509 H   0  0  0  0  0  0  0  0  0  0  0  0
    0.6722    4.0972    6.1891 H   0  0  0  0  0  0  0  0  0  0  0  0
    2.7602    4.2253    7.4552 H   0  0  0  0  0  0  0  0  0  0  0  0
    4.9190    3.5064    6.5157 H   0  0  0  0  0  0  0  0  0  0  0  0
    4.2079    5.8670    3.6788 H   0  0  0  0  0  0  0  0  0  0  0  0
    2.4621    5.7195    3.9091 H   0  0  0  0  0  0  0  0  0  0  0  0
    3.4588    4.3231    3.4146 H   0  0  0  0  0  0  0  0  0  0  0  0
    5.2586    6.2901    5.7101 H   0  0  0  0  0  0  0  0  0  0  0  0
    4.5476    5.7931    7.2447 H   0  0  0  0  0  0  0  0  0  0  0  0
    3.6735    6.9141    6.1976 H   0  0  0  0  0  0  0  0  0  0  0  0
    3.2282    0.4394    7.5755 H   0  0  0  0  0  0  0  0  0  0  0  0
  1  2  1  0
  1 27  1  0
  1 28  1  0
  1 29  1  0
  2 26  1  0
  2  3  1  0
  2  4  1  0
  3 30  1  0
  3 31  1  0
  3 32  1  0
  4  5  1  0
  4 33  1  0
  4 34  1  0
  5 26  1  0
  5  6  1  1
  5  7  1  0
  6 35  1  0
  6 36  1  0
  6 37  1  0
  7 22  1  0
  7  8  1  0
  7 38  1  6
  8 19  1  0
  8  9  1  0
  8 39  1  6
  9 10  1  0
  9 26  1  0
  9 40  1  6
 10 20  1  0
 10 11  1  0
 10 41  1  1
 11 12  1  0
 11 42  1  0
 11 43  1  0
 12 17  1  0
 12 13  1  0
 12 19  1  0
 13 14  2  0
 13 15  1  0
 15 16  2  0
 15 44  1  0
 16 17  1  0
 16 45  1  0
 17 18  2  0
 19 20  1  0
 19 46  1  6
 20 21  1  0
 20 47  1  6
 21 23  1  0
 21 22  1  0
 21 48  1  1
 22 23  1  0
 22 49  1  1
 23 24  1  0
 23 25  1  0
 24 50  1  0
 24 51  1  0
 24 52  1  0
 25 53  1  0
 25 54  1  0
 25 55  1  0
 26 56  1  1
M  END
>  <i_m_ct_stereo_status>  (234) 
1

>  <s_m_source_file>  (234) 
/var/tmp/pbs.5076255.sched01/tmp0pz6dnip/90w4u7_w6b.sdf

>  <i_m_source_file_index>  (234) 
10

>  <i_lp_mmshare_version>  (234) 
48012

>  <i_f3d_flags>  (234) 
0

>  <s_epik_input>  (234) 
W0NIM11DMShbQ0gzXSlbQ0BIXTJbQ0hdMVtDQEBIXTNbQ0BASF0oW0NIMl00KVtDQEBIXTVbQ0BASF0oQyhbQ0gzXSkoW0NIM10pW0NIMl02KVtDQF02KFtDSDNdKVtDQEhdMltDQEBIXTVbQ0BIXTNDNDdDKD1PKVtDSF09W0NIXUM3PU8=

>  <s_epik_cmdline>  (234) 
J2VwaWtfcHl0aG9uJywgJy1waHQnLCAnMi4wJywgJy1waCcsICc3LjAnLCAnLXRuJywgJzgnLCAnLW1hJywgJzIwMCcsICctaW1hZScsICc8aW5maWxlLm1hZT4nLCAnLW9tYWUnLCAnPG91dGZpbGUubWFlPic=

>  <r_lp_tautomer_probability>  (234) 
1

>  <r_epik_Ionization_Penalty>  (234) 
0

>  <r_epik_Ionization_Penalty_Charging>  (234) 
0

>  <r_epik_Ionization_Penalty_Neutral>  (234) 
0

>  <r_epik_State_Penalty>  (234) 
-0

>  <r_epik_Charging_Adjusted_Penalty>  (234) 
0

>  <i_epik_Tot_Q>  (234) 
0

>  <i_epik_Tot_abs_Q>  (234) 
0

>  <s_lp_Force_Field>  (234) 
OPLS3e

>  <r_lp_Energy>  (234) 
85.2938

>  <b_lp_Chiralities_Consistent>  (234) 
1

>  <s_lp_Variant>  (234) 
64:0-2

>  <s_i_glide_gridfile>  (234) 
pfpi4k_grid

>  <i_i_glide_lignum>  (234) 
10

>  <i_i_glide_rotatable_bonds>  (234) 
0

>  <r_i_docking_score>  (234) 
-2.20404

>  <r_i_glide_ligand_efficiency>  (234) 
-0.084771

>  <r_i_glide_ligand_efficiency_sa>  (234) 
-0.251134

>  <r_i_glide_ligand_efficiency_ln>  (234) 
-0.517613

>  <r_i_glide_gscore>  (234) 
-2.20404

>  <r_i_glide_lipo>  (234) 
-0.0749024

>  <r_i_glide_hbond>  (234) 
-0.0217745

>  <r_i_glide_metal>  (234) 
-0

>  <r_i_glide_rewards>  (234) 
-1.01936

>  <r_i_glide_evdw>  (234) 
-15.1661

>  <r_i_glide_ecoul>  (234) 
-1.64396

>  <r_i_glide_erotb>  (234) 
0

>  <r_i_glide_esite>  (234) 
-0.0831102

>  <r_i_glide_emodel>  (234) 
-19.4584

>  <r_i_glide_energy>  (234) 
-16.81

>  <r_i_glide_einternal>  (234) 
0

>  <r_i_glide_intrahb_reward>  (234) 
-0

>  <i_i_glide_confnum>  (234) 
2

>  <i_i_glide_posenum>  (234) 
25

>  <r_i_glide_eff_state_penalty>  (234) 
0

>  <ligand_id>  (234) 
64

>  <original_smiles>  (234) 
CC1(C)CC2(C)C3C4C(C5CC6(C(=O)C=CC6=O)C4C5C4C3C4(C)C)C12

>  <smiles>  (234) 
[H]C1=C([H])C(=O)C2(C1=O)C([H])([H])C1([H])C3([H])C2([H])C2([H])C1([H])C1([H])C(C([H])([H])[H])(C([H])([H])[H])C([H])([H])C1(C([H])([H])[H])C2([H])C1([H])C3([H])C1(C([H])([H])[H])C([H])([H])[H]

$$$$
64:1:2
     RDKit          3D

 56 62  0  0  1  0  0  0  0  0999 V2000
    1.3751   -2.4636    3.4754 C   0  0  0  0  0  0  0  0  0  0  0  0
    2.6486   -1.9076    4.1284 C   0  0  0  0  0  0  0  0  0  0  0  0
    3.3246   -3.0911    4.8303 C   0  0  0  0  0  0  0  0  0  0  0  0
    3.5199   -1.0867    3.1698 C   0  0  0  0  0  0  0  0  0  0  0  0
    3.7619   -0.0248    4.2544 C   0  0  1  0  0  0  0  0  0  0  0  0
    5.1541   -0.1727    4.9026 C   0  0  0  0  0  0  0  0  0  0  0  0
    3.3639    1.4394    3.9120 C   0  0  1  0  0  0  0  0  0  0  0  0
    1.7953    1.3828    3.7418 C   0  0  1  0  0  0  0  0  0  0  0  0
    1.3527    0.3325    4.7679 C   0  0  2  0  0  0  0  0  0  0  0  0
    0.8124    1.2460    5.9138 C   0  0  2  0  0  0  0  0  0  0  0  0
   -0.6785    1.4708    5.5769 C   0  0  0  0  0  0  0  0  0  0  0  0
   -0.5989    2.3307    4.2761 C   0  0  0  0  0  0  0  0  0  0  0  0
   -1.2677    1.6961    3.0454 C   0  0  0  0  0  0  0  0  0  0  0  0
   -0.9602    0.5863    2.6064 O   0  0  0  0  0  0  0  0  0  0  0  0
   -2.3323    2.5511    2.5370 C   0  0  0  0  0  0  0  0  0  0  0  0
   -2.4160    3.6606    3.2698 C   0  0  0  0  0  0  0  0  0  0  0  0
   -1.4302    3.6277    4.3434 C   0  0  0  0  0  0  0  0  0  0  0  0
   -1.2826    4.4861    5.2062 O   0  0  0  0  0  0  0  0  0  0  0  0
    0.9384    2.6129    4.1611 C   0  0  1  0  0  0  0  0  0  0  0  0
    1.3299    2.6810    5.6340 C   0  0  2  0  0  0  0  0  0  0  0  0
    2.7974    2.9565    5.9112 C   0  0  1  0  0  0  0  0  0  0  0  0
    3.8507    2.4141    5.0063 C   0  0  2  0  0  0  0  0  0  0  0  0
    3.6739    3.9247    5.1113 C   0  0  0  0  0  0  0  0  0  0  0  0
    3.2863    4.7046    3.8600 C   0  0  0  0  0  0  0  0  0  0  0  0
    4.6804    4.7319    5.9143 C   0  0  0  0  0  0  0  0  0  0  0  0
    2.5394   -0.6075    4.9809 C   0  0  1  0  0  0  0  0  0  0  0  0
    1.5889   -3.3452    2.8682 H   0  0  0  0  0  0  0  0  0  0  0  0
    0.9235   -1.7336    2.8009 H   0  0  0  0  0  0  0  0  0  0  0  0
    0.6249   -2.7352    4.2202 H   0  0  0  0  0  0  0  0  0  0  0  0
    4.1727   -2.7804    5.4363 H   0  0  0  0  0  0  0  0  0  0  0  0
    3.6917   -3.8232    4.1125 H   0  0  0  0  0  0  0  0  0  0  0  0
    2.6365   -3.6000    5.5047 H   0  0  0  0  0  0  0  0  0  0  0  0
    4.4218   -1.6135    2.8491 H   0  0  0  0  0  0  0  0  0  0  0  0
    2.9755   -0.6996    2.3064 H   0  0  0  0  0  0  0  0  0  0  0  0
    5.1422    0.0669    5.9656 H   0  0  0  0  0  0  0  0  0  0  0  0
    5.9004    0.4518    4.4116 H   0  0  0  0  0  0  0  0  0  0  0  0
    5.5336   -1.1886    4.8307 H   0  0  0  0  0  0  0  0  0  0  0  0
    3.8024    1.7390    2.9637 H   0  0  0  0  0  0  0  0  0  0  0  0
    1.5641    1.0567    2.7268 H   0  0  0  0  0  0  0  0  0  0  0  0
    0.5198   -0.2519    4.3895 H   0  0  0  0  0  0  0  0  0  0  0  0
    0.9829    0.8659    6.9212 H   0  0  0  0  0  0  0  0  0  0  0  0
   -1.2263    0.5375    5.4403 H   0  0  0  0  0  0  0  0  0  0  0  0
   -1.1752    2.0062    6.3855 H   0  0  0  0  0  0  0  0  0  0  0  0
   -2.9470    2.2901    1.6849 H   0  0  0  0  0  0  0  0  0  0  0  0
   -3.1081    4.4714    3.1086 H   0  0  0  0  0  0  0  0  0  0  0  0
    1.1054    3.5066    3.5696 H   0  0  0  0  0  0  0  0  0  0  0  0
    0.7694    3.4313    6.1914 H   0  0  0  0  0  0  0  0  0  0  0  0
    3.0219    2.8863    6.9728 H   0  0  0  0  0  0  0  0  0  0  0  0
    4.8058    2.1576    5.4452 H   0  0  0  0  0  0  0  0  0  0  0  0
    4.1076    5.3364    3.5262 H   0  0  0  0  0  0  0  0  0  0  0  0
    2.4348    5.3500    4.0674 H   0  0  0  0  0  0  0  0  0  0  0  0
    3.0613    4.0350    3.0326 H   0  0  0  0  0  0  0  0  0  0  0  0
    5.5538    4.9770    5.3102 H   0  0  0  0  0  0  0  0  0  0  0  0
    5.0218    4.1708    6.7852 H   0  0  0  0  0  0  0  0  0  0  0  0
    4.2264    5.6574    6.2635 H   0  0  0  0  0  0  0  0  0  0  0  0
    2.7458   -0.8040    6.0323 H   0  0  0  0  0  0  0  0  0  0  0  0
  1  2  1  0
  1 27  1  0
  1 28  1  0
  1 29  1  0
  2 26  1  0
  2  3  1  0
  2  4  1  0
  3 30  1  0
  3 31  1  0
  3 32  1  0
  4  5  1  0
  4 33  1  0
  4 34  1  0
  5 26  1  0
  5  6  1  1
  5  7  1  0
  6 35  1  0
  6 36  1  0
  6 37  1  0
  7 22  1  0
  7  8  1  0
  7 38  1  6
  8 19  1  0
  8  9  1  0
  8 39  1  6
  9 10  1  0
  9 26  1  0
  9 40  1  6
 10 20  1  0
 10 11  1  0
 10 41  1  1
 11 12  1  0
 11 42  1  0
 11 43  1  0
 12 17  1  0
 12 13  1  0
 12 19  1  0
 13 14  2  0
 13 15  1  0
 15 16  2  0
 15 44  1  0
 16 17  1  0
 16 45  1  0
 17 18  2  0
 19 20  1  0
 19 46  1  6
 20 21  1  0
 20 47  1  1
 21 23  1  0
 21 22  1  0
 21 48  1  1
 22 23  1  0
 22 49  1  1
 23 24  1  0
 23 25  1  0
 24 50  1  0
 24 51  1  0
 24 52  1  0
 25 53  1  0
 25 54  1  0
 25 55  1  0
 26 56  1  1
M  END
>  <i_m_ct_stereo_status>  (235) 
1

>  <s_m_source_file>  (235) 
/var/tmp/pbs.5076255.sched01/tmp0pz6dnip/90w4u7_w6b.sdf

>  <i_m_source_file_index>  (235) 
10

>  <i_lp_mmshare_version>  (235) 
48012

>  <i_f3d_flags>  (235) 
0

>  <s_epik_input>  (235) 
W0NIM11DMShbQ0gzXSlbQ0BIXTJbQ0hdMVtDQEBIXTNbQ0BASF0oW0NIMl00KVtDQEBIXTVbQ0BASF0oQyhbQ0gzXSkoW0NIM10pW0NIMl02KVtDQF02KFtDSDNdKVtDQEhdMltDQEBIXTVbQ0BIXTNDNDdDKD1PKVtDSF09W0NIXUM3PU8=

>  <s_epik_cmdline>  (235) 
J2VwaWtfcHl0aG9uJywgJy1waHQnLCAnMi4wJywgJy1waCcsICc3LjAnLCAnLXRuJywgJzgnLCAnLW1hJywgJzIwMCcsICctaW1hZScsICc8aW5maWxlLm1hZT4nLCAnLW9tYWUnLCAnPG91dGZpbGUubWFlPic=

>  <r_lp_tautomer_probability>  (235) 
1

>  <r_epik_Ionization_Penalty>  (235) 
0

>  <r_epik_Ionization_Penalty_Charging>  (235) 
0

>  <r_epik_Ionization_Penalty_Neutral>  (235) 
0

>  <r_epik_State_Penalty>  (235) 
-0

>  <r_epik_Charging_Adjusted_Penalty>  (235) 
0

>  <i_epik_Tot_Q>  (235) 
0

>  <i_epik_Tot_abs_Q>  (235) 
0

>  <s_lp_Force_Field>  (235) 
OPLS3e

>  <r_lp_Energy>  (235) 
85.2938

>  <b_lp_Chiralities_Consistent>  (235) 
1

>  <s_lp_Variant>  (235) 
64:0-2

>  <s_i_glide_gridfile>  (235) 
pfpi4k_grid

>  <i_i_glide_lignum>  (235) 
10

>  <i_i_glide_rotatable_bonds>  (235) 
0

>  <r_i_docking_score>  (235) 
-2.09142

>  <r_i_glide_ligand_efficiency>  (235) 
-0.0804392

>  <r_i_glide_ligand_efficiency_sa>  (235) 
-0.238301

>  <r_i_glide_ligand_efficiency_ln>  (235) 
-0.491163

>  <r_i_glide_gscore>  (235) 
-2.09142

>  <r_i_glide_lipo>  (235) 
-0.155684

>  <r_i_glide_hbond>  (235) 
0

>  <r_i_glide_metal>  (235) 
-0

>  <r_i_glide_rewards>  (235) 
-1.01936

>  <r_i_glide_evdw>  (235) 
-14.7833

>  <r_i_glide_ecoul>  (235) 
-0.684453

>  <r_i_glide_erotb>  (235) 
0

>  <r_i_glide_esite>  (235) 
-0.0745424

>  <r_i_glide_emodel>  (235) 
-17.9975

>  <r_i_glide_energy>  (235) 
-15.4677

>  <r_i_glide_einternal>  (235) 
0

>  <r_i_glide_intrahb_reward>  (235) 
-0

>  <i_i_glide_confnum>  (235) 
2

>  <i_i_glide_posenum>  (235) 
21

>  <r_i_glide_eff_state_penalty>  (235) 
0

>  <ligand_id>  (235) 
64

>  <original_smiles>  (235) 
CC1(C)CC2(C)C3C4C(C5CC6(C(=O)C=CC6=O)C4C5C4C3C4(C)C)C12

>  <smiles>  (235) 
[H]C1=C([H])C(=O)C2(C1=O)C([H])([H])C1([H])C3([H])C2([H])C2([H])C1([H])C1([H])C(C([H])([H])[H])(C([H])([H])[H])C([H])([H])C1(C([H])([H])[H])C2([H])C1([H])C3([H])C1(C([H])([H])[H])C([H])([H])[H]

$$$$
65:0:0
     RDKit          3D

 70 79  0  0  1  0  0  0  0  0999 V2000
   -0.0915   -9.6075    6.4528 C   0  0  0  0  0  0  0  0  0  0  0  0
    0.3040   -9.8706    5.0926 O   0  0  0  0  0  0  0  0  0  0  0  0
    1.2253   -8.9909    4.4101 C   0  0  1  0  0  0  0  0  0  0  0  0
    1.0282   -9.1052    2.8190 C   0  0  1  0  0  0  0  0  0  0  0  0
   -0.3560   -8.6159    2.3869 C   0  0  1  0  0  0  0  0  0  0  0  0
   -1.4680   -9.3198    2.9013 O   0  0  0  0  0  0  0  0  0  0  0  0
   -0.2479   -7.1521    2.7756 C   0  0  1  0  0  0  0  0  0  0  0  0
   -0.2378   -6.9743    4.3225 C   0  0  0  0  0  0  0  0  0  0  0  0
    1.1177   -7.5005    4.9024 C   0  0  2  0  0  0  0  0  0  0  0  0
    2.4321   -6.8042    4.3659 C   0  0  1  0  0  0  0  0  0  0  0  0
    1.8960   -5.9117    3.1529 C   0  0  0  0  0  0  0  0  0  0  0  0
    1.1422   -6.7861    2.1764 C   0  0  2  0  0  0  0  0  0  0  0  0
    0.9619   -6.1430    0.9274 O   0  0  0  0  0  0  0  0  0  0  0  0
    1.9481   -8.1038    2.0069 C   0  0  1  0  0  0  0  0  0  0  0  0
    3.4533   -8.1000    2.5163 C   0  0  1  0  0  0  0  0  0  0  0  0
    3.9971   -9.2818    1.9598 O   0  0  0  0  0  0  0  0  0  0  0  0
    4.5672   -7.0317    2.0944 C   0  0  1  0  0  0  0  0  0  0  0  0
    4.4201   -6.5753    0.6299 C   0  0  0  0  0  0  0  0  0  0  0  0
    4.9296   -5.8286    3.0324 C   0  0  0  0  0  0  0  0  0  0  0  0
    4.4420   -5.5373    4.2686 C   0  0  0  0  0  0  0  0  0  0  0  0
    3.8874   -4.4158    5.0441 C   0  0  1  0  0  0  0  0  0  0  0  0
    4.8898   -3.8764    5.9882 O   0  0  0  0  0  0  0  0  0  0  0  0
    4.9823   -2.6496    5.4050 C   0  0  2  0  0  0  0  0  0  0  0  0
    5.6202   -1.5001    5.7602 O   0  0  0  0  0  0  0  0  0  0  0  0
    4.9735   -0.5418    4.9485 C   0  0  0  0  0  0  0  0  0  0  0  0
    5.4391    0.5834    4.7620 O   0  0  0  0  0  0  0  0  0  0  0  0
    3.6024   -1.0819    4.4795 C   0  0  1  0  0  0  0  0  0  0  0  0
    3.3581   -2.1972    3.3858 C   0  0  0  0  0  0  0  0  0  0  0  0
    3.0099   -3.2466    4.5011 C   0  0  2  0  0  0  0  0  0  0  0  0
    3.5726   -2.2295    5.3817 C   0  0  1  0  0  0  0  0  0  0  0  0
    3.3531   -5.9099    5.2455 C   0  0  1  0  0  0  0  0  0  0  0  0
    3.7147   -6.4748    6.6209 C   0  0  0  0  0  0  0  0  0  0  0  0
    3.3376   -8.0946    4.0436 C   0  0  2  0  0  0  0  0  0  0  0  0
    2.6765   -9.3498    4.6953 C   0  0  1  0  0  0  0  0  0  0  0  0
    3.0415   -9.5757    6.1825 C   0  0  0  0  0  0  0  0  0  0  0  0
    3.0452  -10.5811    4.0973 O   0  0  0  0  0  0  0  0  0  0  0  0
   -0.7881  -10.3641    6.8144 H   0  0  0  0  0  0  0  0  0  0  0  0
   -0.5940   -8.6485    6.5177 H   0  0  0  0  0  0  0  0  0  0  0  0
    0.7244   -9.5585    7.1585 H   0  0  0  0  0  0  0  0  0  0  0  0
    1.1819  -10.1262    2.4591 H   0  0  0  0  0  0  0  0  0  0  0  0
   -0.4749   -8.6338    1.3036 H   0  0  0  0  0  0  0  0  0  0  0  0
   -1.2630   -9.6461    3.7740 H   0  0  0  0  0  0  0  0  0  0  0  0
   -1.0794   -6.6171    2.3209 H   0  0  0  0  0  0  0  0  0  0  0  0
   -0.4031   -5.9337    4.6021 H   0  0  0  0  0  0  0  0  0  0  0  0
   -1.0852   -7.5153    4.7343 H   0  0  0  0  0  0  0  0  0  0  0  0
    1.1117   -7.4029    5.9851 H   0  0  0  0  0  0  0  0  0  0  0  0
    1.2518   -5.1123    3.5095 H   0  0  0  0  0  0  0  0  0  0  0  0
    2.6216   -5.3475    2.5770 H   0  0  0  0  0  0  0  0  0  0  0  0
    1.8179   -6.0060    0.5511 H   0  0  0  0  0  0  0  0  0  0  0  0
    1.9304   -8.3843    0.9496 H   0  0  0  0  0  0  0  0  0  0  0  0
    3.4940  -10.0191    2.2828 H   0  0  0  0  0  0  0  0  0  0  0  0
    5.5195   -7.5582    2.1257 H   0  0  0  0  0  0  0  0  0  0  0  0
    5.3377   -6.1078    0.2724 H   0  0  0  0  0  0  0  0  0  0  0  0
    3.6156   -5.8538    0.5056 H   0  0  0  0  0  0  0  0  0  0  0  0
    4.2207   -7.4250   -0.0257 H   0  0  0  0  0  0  0  0  0  0  0  0
    5.4994   -5.0476    2.5433 H   0  0  0  0  0  0  0  0  0  0  0  0
    5.4396   -2.8709    4.4305 H   0  0  0  0  0  0  0  0  0  0  0  0
    2.7451   -0.4275    4.6434 H   0  0  0  0  0  0  0  0  0  0  0  0
    2.4880   -1.9740    2.7598 H   0  0  0  0  0  0  0  0  0  0  0  0
    4.2299   -2.4477    2.7731 H   0  0  0  0  0  0  0  0  0  0  0  0
    1.9412   -3.3350    4.7005 H   0  0  0  0  0  0  0  0  0  0  0  0
    3.0773   -2.0912    6.3468 H   0  0  0  0  0  0  0  0  0  0  0  0
    2.8193   -6.7163    7.1876 H   0  0  0  0  0  0  0  0  0  0  0  0
    4.2381   -5.7405    7.2326 H   0  0  0  0  0  0  0  0  0  0  0  0
    4.3850   -7.3317    6.5541 H   0  0  0  0  0  0  0  0  0  0  0  0
    4.3508   -8.0703    4.4489 H   0  0  0  0  0  0  0  0  0  0  0  0
    2.6476   -8.8150    6.8468 H   0  0  0  0  0  0  0  0  0  0  0  0
    4.1146   -9.6527    6.3389 H   0  0  0  0  0  0  0  0  0  0  0  0
    2.6123  -10.5094    6.5554 H   0  0  0  0  0  0  0  0  0  0  0  0
    2.6351  -11.2733    4.5992 H   0  0  0  0  0  0  0  0  0  0  0  0
  1  2  1  0
  1 37  1  0
  1 38  1  0
  1 39  1  0
  3  2  1  1
  3  9  1  0
  3 34  1  0
  3  4  1  0
  4 14  1  0
  4  5  1  0
  4 40  1  6
  5  6  1  0
  5  7  1  0
  5 41  1  6
  6 42  1  0
  7 12  1  0
  7  8  1  0
  7 43  1  6
  8  9  1  0
  8 44  1  0
  8 45  1  0
  9 10  1  0
  9 46  1  1
 10 31  1  0
 10 33  1  0
 10 11  1  6
 11 12  1  0
 11 47  1  0
 11 48  1  0
 12 13  1  6
 12 14  1  0
 13 49  1  0
 14 15  1  0
 14 50  1  6
 15 16  1  1
 15 17  1  0
 15 33  1  0
 16 51  1  0
 17 18  1  0
 17 19  1  0
 17 52  1  6
 18 53  1  0
 18 54  1  0
 18 55  1  0
 19 20  2  0
 19 56  1  0
 20 31  1  0
 20 21  1  0
 21 29  1  0
 21 22  1  1
 21 31  1  0
 22 23  1  0
 23 30  1  0
 23 24  1  0
 23 57  1  6
 24 25  1  0
 25 26  2  0
 25 27  1  0
 27 30  1  0
 27 28  1  0
 27 58  1  1
 28 29  1  0
 28 59  1  0
 28 60  1  0
 29 30  1  0
 29 61  1  1
 30 62  1  1
 31 32  1  1
 32 63  1  0
 32 64  1  0
 32 65  1  0
 33 34  1  0
 33 66  1  1
 34 35  1  0
 34 36  1  6
 35 67  1  0
 35 68  1  0
 35 69  1  0
 36 70  1  0
M  END
>  <i_m_ct_stereo_status>  (236) 
1

>  <s_m_source_file>  (236) 
/var/tmp/pbs.5076255.sched01/tmp0pz6dnip/90w4u7_w6b.sdf

>  <i_m_source_file_index>  (236) 
11

>  <i_lp_mmshare_version>  (236) 
48012

>  <i_f3d_flags>  (236) 
0

>  <s_epik_input>  (236) 
W0NIM11PW0NAXTEoW0NASF0yW0NAQF0zNDUpW0NAQEhdNltDQEBIXShbQ0BAXShbQ0gyXTMpKFtPSF0pW0NASF0oW0NIMl0yKVtDQEBIXTZbT0hdKVtDQF0oW09IXSkoW0NAQEhdNVtDQF0xKFtDSDNdKVtPSF0pW0NAQEhdKFtDSDNdKVtDSF09QzdDOChDNDdbQ0gzXSlbQ0BIXTlbQ0BIXTFbQ0BIXShPOClPQyg9TylbQ0BIXTFbQ0gyXTk=

>  <s_epik_cmdline>  (236) 
J2VwaWtfcHl0aG9uJywgJy1waHQnLCAnMi4wJywgJy1waCcsICc3LjAnLCAnLXRuJywgJzgnLCAnLW1hJywgJzIwMCcsICctaW1hZScsICc8aW5maWxlLm1hZT4nLCAnLW9tYWUnLCAnPG91dGZpbGUubWFlPic=

>  <r_lp_tautomer_probability>  (236) 
1

>  <r_epik_Ionization_Penalty>  (236) 
1.62478e-06

>  <r_epik_Ionization_Penalty_Charging>  (236) 
0

>  <r_epik_Ionization_Penalty_Neutral>  (236) 
1.62478e-06

>  <r_epik_State_Penalty>  (236) 
-0

>  <r_epik_Charging_Adjusted_Penalty>  (236) 
0

>  <i_epik_Tot_Q>  (236) 
0

>  <i_epik_Tot_abs_Q>  (236) 
0

>  <s_epik_Chemistry_Notes>  (236) 
This compound has an ester and may undergo hydrolysis at high or low pH. This compound contains an acetal/aminal-like group ( X-CH(R)-Y where X, Y are N, S, or O) that may be acid/base labile, releasing an aldehyde.

>  <s_lp_Force_Field>  (236) 
OPLS3e

>  <r_lp_Energy>  (236) 
191.637

>  <b_lp_Chiralities_Consistent>  (236) 
1

>  <s_lp_Variant>  (236) 
65:0-1

>  <s_i_glide_gridfile>  (236) 
pfpi4k_grid

>  <i_i_glide_lignum>  (236) 
11

>  <i_i_glide_rotatable_bonds>  (236) 
5

>  <r_i_docking_score>  (236) 
-3.45819

>  <r_i_glide_ligand_efficiency>  (236) 
-0.0960609

>  <r_i_glide_ligand_efficiency_sa>  (236) 
-0.317186

>  <r_i_glide_ligand_efficiency_ln>  (236) 
-0.754484

>  <r_i_glide_gscore>  (236) 
-3.45819

>  <r_i_glide_lipo>  (236) 
-0.156116

>  <r_i_glide_hbond>  (236) 
-0.16

>  <r_i_glide_metal>  (236) 
-0

>  <r_i_glide_rewards>  (236) 
-1.10441

>  <r_i_glide_evdw>  (236) 
-21.3294

>  <r_i_glide_ecoul>  (236) 
-6.47462

>  <r_i_glide_erotb>  (236) 
0

>  <r_i_glide_esite>  (236) 
0

>  <r_i_glide_emodel>  (236) 
-41.402

>  <r_i_glide_energy>  (236) 
-27.8041

>  <r_i_glide_einternal>  (236) 
7.44111

>  <r_i_glide_intrahb_reward>  (236) 
-1

>  <i_i_glide_confnum>  (236) 
2

>  <i_i_glide_posenum>  (236) 
5

>  <r_i_glide_eff_state_penalty>  (236) 
0

>  <ligand_id>  (236) 
65

>  <original_smiles>  (236) 
COC12C3C(O)C4CC1C15CC4(O)C3C(O)(C(C)C=C3C4(OC6OC(=O)C7CC4C67)C31C)C5C2(C)O

>  <smiles>  (236) 
[H]OC1([H])C2([H])C([H])([H])C3([H])C4(OC([H])([H])[H])C1([H])C1([H])C2(O[H])C([H])([H])C32C([H])(C1(O[H])C([H])(C([H])([H])[H])C([H])=C1C3(OC5([H])OC(=O)C6([H])C([H])([H])C3([H])C56[H])C12C([H])([H])[H])C4(O[H])C([H])([H])[H]

$$$$
65:0:1
     RDKit          3D

 70 79  0  0  1  0  0  0  0  0999 V2000
    4.2688   -6.8664    2.4985 C   0  0  0  0  0  0  0  0  0  0  0  0
    3.3535   -5.8005    2.2092 O   0  0  0  0  0  0  0  0  0  0  0  0
    3.5833   -4.5338    2.8354 C   0  0  1  0  0  0  0  0  0  0  0  0
    4.9817   -3.8764    2.5122 C   0  0  1  0  0  0  0  0  0  0  0  0
    5.1650   -3.6593    1.0054 C   0  0  1  0  0  0  0  0  0  0  0  0
    5.0844   -4.8071    0.1732 O   0  0  0  0  0  0  0  0  0  0  0  0
    4.0681   -2.6220    0.7577 C   0  0  1  0  0  0  0  0  0  0  0  0
    2.6585   -3.2767    0.8941 C   0  0  0  0  0  0  0  0  0  0  0  0
    2.3853   -3.6095    2.3930 C   0  0  2  0  0  0  0  0  0  0  0  0
    2.3877   -2.3849    3.4057 C   0  0  1  0  0  0  0  0  0  0  0  0
    2.9881   -1.2143    2.5170 C   0  0  0  0  0  0  0  0  0  0  0  0
    4.3070   -1.6406    1.9362 C   0  0  2  0  0  0  0  0  0  0  0  0
    5.0371   -0.5301    1.4391 O   0  0  0  0  0  0  0  0  0  0  0  0
    5.0991   -2.3931    3.0378 C   0  0  1  0  0  0  0  0  0  0  0  0
    4.5734   -2.2310    4.5196 C   0  0  1  0  0  0  0  0  0  0  0  0
    5.5860   -2.7977    5.3283 O   0  0  0  0  0  0  0  0  0  0  0  0
    4.3634   -0.8394    5.2754 C   0  0  1  0  0  0  0  0  0  0  0  0
    5.3997    0.2185    4.8573 C   0  0  0  0  0  0  0  0  0  0  0  0
    2.9246   -0.2009    5.3659 C   0  0  0  0  0  0  0  0  0  0  0  0
    1.7122   -0.7272    5.0077 C   0  0  0  0  0  0  0  0  0  0  0  0
    0.5434   -0.3263    4.2091 C   0  0  1  0  0  0  0  0  0  0  0  0
   -0.5884   -0.0754    5.1563 O   0  0  0  0  0  0  0  0  0  0  0  0
   -0.7111    1.2478    4.8408 C   0  0  2  0  0  0  0  0  0  0  0  0
   -1.5985    2.2247    5.1991 O   0  0  0  0  0  0  0  0  0  0  0  0
   -1.3508    3.2428    4.2195 C   0  0  0  0  0  0  0  0  0  0  0  0
   -1.7860    4.3824    4.3558 O   0  0  0  0  0  0  0  0  0  0  0  0
   -0.6341    2.6135    3.0270 C   0  0  1  0  0  0  0  0  0  0  0  0
    0.8826    2.1709    2.9744 C   0  0  0  0  0  0  0  0  0  0  0  0
    0.4785    0.6534    3.0297 C   0  0  2  0  0  0  0  0  0  0  0  0
   -0.7978    1.2273    3.3967 C   0  0  1  0  0  0  0  0  0  0  0  0
    1.1445   -1.8232    4.1303 C   0  0  1  0  0  0  0  0  0  0  0  0
    0.2277   -2.8564    4.7777 C   0  0  0  0  0  0  0  0  0  0  0  0
    3.2593   -3.0165    4.5810 C   0  0  2  0  0  0  0  0  0  0  0  0
    3.3711   -4.5606    4.3403 C   0  0  1  0  0  0  0  0  0  0  0  0
    2.1612   -5.4030    4.8222 C   0  0  0  0  0  0  0  0  0  0  0  0
    4.4576   -5.1356    5.0446 O   0  0  0  0  0  0  0  0  0  0  0  0
    4.0485   -7.7067    1.8470 H   0  0  0  0  0  0  0  0  0  0  0  0
    4.1731   -7.2206    3.5222 H   0  0  0  0  0  0  0  0  0  0  0  0
    5.3034   -6.5889    2.3261 H   0  0  0  0  0  0  0  0  0  0  0  0
    5.8076   -4.4751    2.9053 H   0  0  0  0  0  0  0  0  0  0  0  0
    6.1409   -3.2128    0.8165 H   0  0  0  0  0  0  0  0  0  0  0  0
    4.2457   -5.2106    0.3030 H   0  0  0  0  0  0  0  0  0  0  0  0
    4.1821   -2.1674   -0.2292 H   0  0  0  0  0  0  0  0  0  0  0  0
    1.8922   -2.5985    0.5038 H   0  0  0  0  0  0  0  0  0  0  0  0
    2.5825   -4.1604    0.2702 H   0  0  0  0  0  0  0  0  0  0  0  0
    1.4321   -4.1371    2.4500 H   0  0  0  0  0  0  0  0  0  0  0  0
    2.3155   -0.8963    1.7243 H   0  0  0  0  0  0  0  0  0  0  0  0
    3.1910   -0.2600    3.0032 H   0  0  0  0  0  0  0  0  0  0  0  0
    4.5040   -0.0788    0.8130 H   0  0  0  0  0  0  0  0  0  0  0  0
    6.1374   -2.0772    2.9742 H   0  0  0  0  0  0  0  0  0  0  0  0
    5.6457   -3.7068    5.0929 H   0  0  0  0  0  0  0  0  0  0  0  0
    4.5539   -1.0121    6.3291 H   0  0  0  0  0  0  0  0  0  0  0  0
    5.4431    1.0396    5.5786 H   0  0  0  0  0  0  0  0  0  0  0  0
    5.1837    0.6457    3.8768 H   0  0  0  0  0  0  0  0  0  0  0  0
    6.4046   -0.2133    4.8173 H   0  0  0  0  0  0  0  0  0  0  0  0
    2.9383    0.8270    5.6955 H   0  0  0  0  0  0  0  0  0  0  0  0
    0.2131    1.6761    5.2460 H   0  0  0  0  0  0  0  0  0  0  0  0
   -1.0553    2.8129    2.0487 H   0  0  0  0  0  0  0  0  0  0  0  0
    1.3422    2.4240    2.0090 H   0  0  0  0  0  0  0  0  0  0  0  0
    1.5018    2.5157    3.8092 H   0  0  0  0  0  0  0  0  0  0  0  0
    0.3759    0.2131    2.0386 H   0  0  0  0  0  0  0  0  0  0  0  0
   -1.6730    0.7320    2.9596 H   0  0  0  0  0  0  0  0  0  0  0  0
   -0.0897   -3.5939    4.0536 H   0  0  0  0  0  0  0  0  0  0  0  0
   -0.6979   -2.3956    5.1401 H   0  0  0  0  0  0  0  0  0  0  0  0
    0.6845   -3.3342    5.6500 H   0  0  0  0  0  0  0  0  0  0  0  0
    2.8515   -2.9091    5.5812 H   0  0  0  0  0  0  0  0  0  0  0  0
    1.2552   -5.2431    4.2690 H   0  0  0  0  0  0  0  0  0  0  0  0
    1.9511   -5.2314    5.8735 H   0  0  0  0  0  0  0  0  0  0  0  0
    2.3661   -6.4750    4.7230 H   0  0  0  0  0  0  0  0  0  0  0  0
    4.2276   -5.1683    5.9618 H   0  0  0  0  0  0  0  0  0  0  0  0
  1  2  1  0
  1 37  1  0
  1 38  1  0
  1 39  1  0
  3  2  1  6
  3  9  1  0
  3 34  1  0
  3  4  1  0
  4 14  1  0
  4  5  1  0
  4 40  1  1
  5  6  1  0
  5  7  1  0
  5 41  1  1
  6 42  1  0
  7 12  1  0
  7  8  1  0
  7 43  1  6
  8  9  1  0
  8 44  1  0
  8 45  1  0
  9 10  1  0
  9 46  1  6
 10 31  1  0
 10 33  1  0
 10 11  1  6
 11 12  1  0
 11 47  1  0
 11 48  1  0
 12 13  1  6
 12 14  1  0
 13 49  1  0
 14 15  1  0
 14 50  1  1
 15 16  1  1
 15 17  1  0
 15 33  1  0
 16 51  1  0
 17 18  1  0
 17 19  1  0
 17 52  1  1
 18 53  1  0
 18 54  1  0
 18 55  1  0
 19 20  2  0
 19 56  1  0
 20 31  1  0
 20 21  1  0
 21 29  1  0
 21 22  1  1
 21 31  1  0
 22 23  1  0
 23 30  1  0
 23 24  1  0
 23 57  1  6
 24 25  1  0
 25 26  2  0
 25 27  1  0
 27 30  1  0
 27 28  1  0
 27 58  1  6
 28 29  1  0
 28 59  1  0
 28 60  1  0
 29 30  1  0
 29 61  1  6
 30 62  1  1
 31 32  1  1
 32 63  1  0
 32 64  1  0
 32 65  1  0
 33 34  1  0
 33 66  1  1
 34 35  1  0
 34 36  1  1
 35 67  1  0
 35 68  1  0
 35 69  1  0
 36 70  1  0
M  END
>  <i_m_ct_stereo_status>  (237) 
1

>  <s_m_source_file>  (237) 
/var/tmp/pbs.5076255.sched01/tmp0pz6dnip/90w4u7_w6b.sdf

>  <i_m_source_file_index>  (237) 
11

>  <i_lp_mmshare_version>  (237) 
48012

>  <i_f3d_flags>  (237) 
0

>  <s_epik_input>  (237) 
W0NIM11PW0NAXTEoW0NASF0yW0NAQF0zNDUpW0NAQEhdNltDQEBIXShbQ0BAXShbQ0gyXTMpKFtPSF0pW0NASF0oW0NIMl0yKVtDQEBIXTZbT0hdKVtDQF0oW09IXSkoW0NAQEhdNVtDQF0xKFtDSDNdKVtPSF0pW0NAQEhdKFtDSDNdKVtDSF09QzdDOChDNDdbQ0gzXSlbQ0BIXTlbQ0BIXTFbQ0BIXShPOClPQyg9TylbQ0BIXTFbQ0gyXTk=

>  <s_epik_cmdline>  (237) 
J2VwaWtfcHl0aG9uJywgJy1waHQnLCAnMi4wJywgJy1waCcsICc3LjAnLCAnLXRuJywgJzgnLCAnLW1hJywgJzIwMCcsICctaW1hZScsICc8aW5maWxlLm1hZT4nLCAnLW9tYWUnLCAnPG91dGZpbGUubWFlPic=

>  <r_lp_tautomer_probability>  (237) 
1

>  <r_epik_Ionization_Penalty>  (237) 
1.62478e-06

>  <r_epik_Ionization_Penalty_Charging>  (237) 
0

>  <r_epik_Ionization_Penalty_Neutral>  (237) 
1.62478e-06

>  <r_epik_State_Penalty>  (237) 
-0

>  <r_epik_Charging_Adjusted_Penalty>  (237) 
0

>  <i_epik_Tot_Q>  (237) 
0

>  <i_epik_Tot_abs_Q>  (237) 
0

>  <s_epik_Chemistry_Notes>  (237) 
This compound has an ester and may undergo hydrolysis at high or low pH. This compound contains an acetal/aminal-like group ( X-CH(R)-Y where X, Y are N, S, or O) that may be acid/base labile, releasing an aldehyde.

>  <s_lp_Force_Field>  (237) 
OPLS3e

>  <r_lp_Energy>  (237) 
191.637

>  <b_lp_Chiralities_Consistent>  (237) 
1

>  <s_lp_Variant>  (237) 
65:0-1

>  <s_i_glide_gridfile>  (237) 
pfpi4k_grid

>  <i_i_glide_lignum>  (237) 
11

>  <i_i_glide_rotatable_bonds>  (237) 
5

>  <r_i_docking_score>  (237) 
-3.421

>  <r_i_glide_ligand_efficiency>  (237) 
-0.0950279

>  <r_i_glide_ligand_efficiency_sa>  (237) 
-0.313775

>  <r_i_glide_ligand_efficiency_ln>  (237) 
-0.746371

>  <r_i_glide_gscore>  (237) 
-3.421

>  <r_i_glide_lipo>  (237) 
-0.284058

>  <r_i_glide_hbond>  (237) 
-0.0929951

>  <r_i_glide_metal>  (237) 
-0

>  <r_i_glide_rewards>  (237) 
-1.00979

>  <r_i_glide_evdw>  (237) 
-21.4058

>  <r_i_glide_ecoul>  (237) 
-6.05227

>  <r_i_glide_erotb>  (237) 
0

>  <r_i_glide_esite>  (237) 
-0.0560376

>  <r_i_glide_emodel>  (237) 
-45.0924

>  <r_i_glide_energy>  (237) 
-27.458

>  <r_i_glide_einternal>  (237) 
0.0661929

>  <r_i_glide_intrahb_reward>  (237) 
-1

>  <i_i_glide_confnum>  (237) 
2

>  <i_i_glide_posenum>  (237) 
19

>  <r_i_glide_eff_state_penalty>  (237) 
0

>  <ligand_id>  (237) 
65

>  <original_smiles>  (237) 
COC12C3C(O)C4CC1C15CC4(O)C3C(O)(C(C)C=C3C4(OC6OC(=O)C7CC4C67)C31C)C5C2(C)O

>  <smiles>  (237) 
[H]OC1([H])C2([H])C([H])([H])C3([H])C4(OC([H])([H])[H])C1([H])C1([H])C2(O[H])C([H])([H])C32C([H])(C1(O[H])C([H])(C([H])([H])[H])C([H])=C1C3(OC5([H])OC(=O)C6([H])C([H])([H])C3([H])C56[H])C12C([H])([H])[H])C4(O[H])C([H])([H])[H]

$$$$
65:0:2
     RDKit          3D

 70 79  0  0  1  0  0  0  0  0999 V2000
    0.8284  -10.1863    5.9925 C   0  0  0  0  0  0  0  0  0  0  0  0
    0.8150   -9.1514    5.0124 O   0  0  0  0  0  0  0  0  0  0  0  0
    2.0716   -8.6913    4.5046 C   0  0  1  0  0  0  0  0  0  0  0  0
    3.1118   -9.8116    4.0567 C   0  0  1  0  0  0  0  0  0  0  0  0
    2.5445  -10.6810    2.9251 C   0  0  1  0  0  0  0  0  0  0  0  0
    1.3373  -11.3697    3.1949 O   0  0  0  0  0  0  0  0  0  0  0  0
    2.4490   -9.6250    1.8245 C   0  0  1  0  0  0  0  0  0  0  0  0
    1.3123   -8.6044    2.1404 C   0  0  0  0  0  0  0  0  0  0  0  0
    1.7449   -7.6957    3.3305 C   0  0  2  0  0  0  0  0  0  0  0  0
    3.0589   -6.8322    3.1267 C   0  0  1  0  0  0  0  0  0  0  0  0
    3.6596   -7.4461    1.7865 C   0  0  0  0  0  0  0  0  0  0  0  0
    3.8299   -8.9339    1.9416 C   0  0  2  0  0  0  0  0  0  0  0  0
    4.6844   -9.4584    0.9346 O   0  0  0  0  0  0  0  0  0  0  0  0
    4.3842   -9.2113    3.3553 C   0  0  1  0  0  0  0  0  0  0  0  0
    4.9896   -7.9750    4.1297 C   0  0  1  0  0  0  0  0  0  0  0  0
    5.6658   -8.5769    5.2148 O   0  0  0  0  0  0  0  0  0  0  0  0
    6.1417   -7.0120    3.5823 C   0  0  1  0  0  0  0  0  0  0  0  0
    7.1716   -7.7710    2.7250 C   0  0  0  0  0  0  0  0  0  0  0  0
    5.7746   -5.6322    2.9319 C   0  0  0  0  0  0  0  0  0  0  0  0
    4.5697   -4.9872    2.8654 C   0  0  0  0  0  0  0  0  0  0  0  0
    3.7362   -4.3449    1.8366 C   0  0  1  0  0  0  0  0  0  0  0  0
    3.7714   -2.8819    2.0755 O   0  0  0  0  0  0  0  0  0  0  0  0
    4.3466   -2.5615    0.8825 C   0  0  2  0  0  0  0  0  0  0  0  0
    4.6703   -1.3914    0.2550 O   0  0  0  0  0  0  0  0  0  0  0  0
    4.8936   -1.8100   -1.0884 C   0  0  0  0  0  0  0  0  0  0  0  0
    5.4215   -1.0559   -1.9160 O   0  0  0  0  0  0  0  0  0  0  0  0
    4.2792   -3.1891   -1.3065 C   0  0  1  0  0  0  0  0  0  0  0  0
    4.8421   -4.5525   -0.7390 C   0  0  0  0  0  0  0  0  0  0  0  0
    3.6894   -4.6329    0.3146 C   0  0  2  0  0  0  0  0  0  0  0  0
    3.5071   -3.2472   -0.0793 C   0  0  1  0  0  0  0  0  0  0  0  0
    3.0989   -5.2883    2.9705 C   0  0  1  0  0  0  0  0  0  0  0  0
    2.2650   -4.5111    3.9849 C   0  0  0  0  0  0  0  0  0  0  0  0
    3.7895   -7.1092    4.5167 C   0  0  2  0  0  0  0  0  0  0  0  0
    2.7495   -7.7618    5.4885 C   0  0  1  0  0  0  0  0  0  0  0  0
    1.7942   -6.7737    6.2127 C   0  0  0  0  0  0  0  0  0  0  0  0
    3.3653   -8.4848    6.5347 O   0  0  0  0  0  0  0  0  0  0  0  0
   -0.1845  -10.5678    6.1378 H   0  0  0  0  0  0  0  0  0  0  0  0
    1.1867   -9.8424    6.9585 H   0  0  0  0  0  0  0  0  0  0  0  0
    1.4215  -11.0502    5.6977 H   0  0  0  0  0  0  0  0  0  0  0  0
    3.4163  -10.4351    4.8979 H   0  0  0  0  0  0  0  0  0  0  0  0
    3.2743  -11.4428    2.6443 H   0  0  0  0  0  0  0  0  0  0  0  0
    1.5214  -12.0854    3.7847 H   0  0  0  0  0  0  0  0  0  0  0  0
    2.2768  -10.0862    0.8530 H   0  0  0  0  0  0  0  0  0  0  0  0
    1.0865   -8.0006    1.2617 H   0  0  0  0  0  0  0  0  0  0  0  0
    0.3799   -9.1256    2.3639 H   0  0  0  0  0  0  0  0  0  0  0  0
    0.8992   -7.0509    3.5803 H   0  0  0  0  0  0  0  0  0  0  0  0
    3.0518   -7.2289    0.9131 H   0  0  0  0  0  0  0  0  0  0  0  0
    4.6262   -7.0884    1.4567 H   0  0  0  0  0  0  0  0  0  0  0  0
    4.5544  -10.4033    0.8550 H   0  0  0  0  0  0  0  0  0  0  0  0
    5.1428   -9.9949    3.2820 H   0  0  0  0  0  0  0  0  0  0  0  0
    5.0066   -9.0068    5.7469 H   0  0  0  0  0  0  0  0  0  0  0  0
    6.7005   -6.6687    4.4527 H   0  0  0  0  0  0  0  0  0  0  0  0
    8.0953   -7.2014    2.6149 H   0  0  0  0  0  0  0  0  0  0  0  0
    6.7928   -7.9871    1.7252 H   0  0  0  0  0  0  0  0  0  0  0  0
    7.4417   -8.7222    3.1901 H   0  0  0  0  0  0  0  0  0  0  0  0
    6.6066   -5.1837    2.3991 H   0  0  0  0  0  0  0  0  0  0  0  0
    5.3536   -2.9774    1.0035 H   0  0  0  0  0  0  0  0  0  0  0  0
    3.6394   -3.3218   -2.1766 H   0  0  0  0  0  0  0  0  0  0  0  0
    4.7538   -5.3640   -1.4771 H   0  0  0  0  0  0  0  0  0  0  0  0
    5.8504   -4.5132   -0.3213 H   0  0  0  0  0  0  0  0  0  0  0  0
    2.8262   -5.1900   -0.0475 H   0  0  0  0  0  0  0  0  0  0  0  0
    2.4770   -2.9070   -0.1775 H   0  0  0  0  0  0  0  0  0  0  0  0
    1.2327   -4.8401    3.9624 H   0  0  0  0  0  0  0  0  0  0  0  0
    2.2357   -3.4506    3.7238 H   0  0  0  0  0  0  0  0  0  0  0  0
    2.6859   -4.5559    4.9879 H   0  0  0  0  0  0  0  0  0  0  0  0
    4.1552   -6.2250    5.0365 H   0  0  0  0  0  0  0  0  0  0  0  0
    1.0871   -6.2670    5.5663 H   0  0  0  0  0  0  0  0  0  0  0  0
    2.3520   -6.0052    6.7478 H   0  0  0  0  0  0  0  0  0  0  0  0
    1.1782   -7.2867    6.9510 H   0  0  0  0  0  0  0  0  0  0  0  0
    2.6832   -8.9596    6.9838 H   0  0  0  0  0  0  0  0  0  0  0  0
  1  2  1  0
  1 37  1  0
  1 38  1  0
  1 39  1  0
  3  2  1  1
  3  9  1  0
  3 34  1  0
  3  4  1  0
  4 14  1  0
  4  5  1  0
  4 40  1  1
  5  6  1  0
  5  7  1  0
  5 41  1  6
  6 42  1  0
  7 12  1  0
  7  8  1  0
  7 43  1  6
  8  9  1  0
  8 44  1  0
  8 45  1  0
  9 10  1  0
  9 46  1  1
 10 31  1  0
 10 33  1  0
 10 11  1  6
 11 12  1  0
 11 47  1  0
 11 48  1  0
 12 13  1  6
 12 14  1  0
 13 49  1  0
 14 15  1  0
 14 50  1  6
 15 16  1  1
 15 17  1  0
 15 33  1  0
 16 51  1  0
 17 18  1  0
 17 19  1  0
 17 52  1  1
 18 53  1  0
 18 54  1  0
 18 55  1  0
 19 20  2  0
 19 56  1  0
 20 31  1  0
 20 21  1  0
 21 29  1  0
 21 22  1  6
 21 31  1  0
 22 23  1  0
 23 30  1  0
 23 24  1  0
 23 57  1  1
 24 25  1  0
 25 26  2  0
 25 27  1  0
 27 30  1  0
 27 28  1  0
 27 58  1  6
 28 29  1  0
 28 59  1  0
 28 60  1  0
 29 30  1  0
 29 61  1  1
 30 62  1  6
 31 32  1  1
 32 63  1  0
 32 64  1  0
 32 65  1  0
 33 34  1  0
 33 66  1  1
 34 35  1  0
 34 36  1  1
 35 67  1  0
 35 68  1  0
 35 69  1  0
 36 70  1  0
M  END
>  <i_m_ct_stereo_status>  (238) 
1

>  <s_m_source_file>  (238) 
/var/tmp/pbs.5076255.sched01/tmp0pz6dnip/90w4u7_w6b.sdf

>  <i_m_source_file_index>  (238) 
11

>  <i_lp_mmshare_version>  (238) 
48012

>  <i_f3d_flags>  (238) 
0

>  <s_epik_input>  (238) 
W0NIM11PW0NAXTEoW0NASF0yW0NAQF0zNDUpW0NAQEhdNltDQEBIXShbQ0BAXShbQ0gyXTMpKFtPSF0pW0NASF0oW0NIMl0yKVtDQEBIXTZbT0hdKVtDQF0oW09IXSkoW0NAQEhdNVtDQF0xKFtDSDNdKVtPSF0pW0NAQEhdKFtDSDNdKVtDSF09QzdDOChDNDdbQ0gzXSlbQ0BIXTlbQ0BIXTFbQ0BIXShPOClPQyg9TylbQ0BIXTFbQ0gyXTk=

>  <s_epik_cmdline>  (238) 
J2VwaWtfcHl0aG9uJywgJy1waHQnLCAnMi4wJywgJy1waCcsICc3LjAnLCAnLXRuJywgJzgnLCAnLW1hJywgJzIwMCcsICctaW1hZScsICc8aW5maWxlLm1hZT4nLCAnLW9tYWUnLCAnPG91dGZpbGUubWFlPic=

>  <r_lp_tautomer_probability>  (238) 
1

>  <r_epik_Ionization_Penalty>  (238) 
1.62478e-06

>  <r_epik_Ionization_Penalty_Charging>  (238) 
0

>  <r_epik_Ionization_Penalty_Neutral>  (238) 
1.62478e-06

>  <r_epik_State_Penalty>  (238) 
-0

>  <r_epik_Charging_Adjusted_Penalty>  (238) 
0

>  <i_epik_Tot_Q>  (238) 
0

>  <i_epik_Tot_abs_Q>  (238) 
0

>  <s_epik_Chemistry_Notes>  (238) 
This compound has an ester and may undergo hydrolysis at high or low pH. This compound contains an acetal/aminal-like group ( X-CH(R)-Y where X, Y are N, S, or O) that may be acid/base labile, releasing an aldehyde.

>  <s_lp_Force_Field>  (238) 
OPLS3e

>  <r_lp_Energy>  (238) 
191.637

>  <b_lp_Chiralities_Consistent>  (238) 
1

>  <s_lp_Variant>  (238) 
65:0-1

>  <s_i_glide_gridfile>  (238) 
pfpi4k_grid

>  <i_i_glide_lignum>  (238) 
11

>  <i_i_glide_rotatable_bonds>  (238) 
5

>  <r_i_docking_score>  (238) 
-3.10346

>  <r_i_glide_ligand_efficiency>  (238) 
-0.0862071

>  <r_i_glide_ligand_efficiency_sa>  (238) 
-0.28465

>  <r_i_glide_ligand_efficiency_ln>  (238) 
-0.67709

>  <r_i_glide_gscore>  (238) 
-3.10346

>  <r_i_glide_lipo>  (238) 
-0.0922848

>  <r_i_glide_hbond>  (238) 
-0.168252

>  <r_i_glide_metal>  (238) 
-0

>  <r_i_glide_rewards>  (238) 
-0.510803

>  <r_i_glide_evdw>  (238) 
-25.014

>  <r_i_glide_ecoul>  (238) 
-7.00525

>  <r_i_glide_erotb>  (238) 
0

>  <r_i_glide_esite>  (238) 
-0.0306304

>  <r_i_glide_emodel>  (238) 
-42.9062

>  <r_i_glide_energy>  (238) 
-32.0192

>  <r_i_glide_einternal>  (238) 
1.34146

>  <r_i_glide_intrahb_reward>  (238) 
-0.5

>  <i_i_glide_confnum>  (238) 
1

>  <i_i_glide_posenum>  (238) 
33

>  <r_i_glide_eff_state_penalty>  (238) 
0

>  <ligand_id>  (238) 
65

>  <original_smiles>  (238) 
COC12C3C(O)C4CC1C15CC4(O)C3C(O)(C(C)C=C3C4(OC6OC(=O)C7CC4C67)C31C)C5C2(C)O

>  <smiles>  (238) 
[H]OC1([H])C2([H])C([H])([H])C3([H])C4(OC([H])([H])[H])C1([H])C1([H])C2(O[H])C([H])([H])C32C([H])(C1(O[H])C([H])(C([H])([H])[H])C([H])=C1C3(OC5([H])OC(=O)C6([H])C([H])([H])C3([H])C56[H])C12C([H])([H])[H])C4(O[H])C([H])([H])[H]

$$$$
66:0:0
     RDKit          3D

 31 33  0  0  1  0  0  0  0  0999 V2000
    1.1549   -5.8568   -0.1468 N   0  0  0  0  0  0  0  0  0  0  0  0
    2.2096   -5.4534    0.1212 C   0  0  0  0  0  0  0  0  0  0  0  0
    3.5455   -4.9302    0.4783 C   0  0  2  0  0  0  0  0  0  0  0  0
    3.7883   -5.1712    1.9708 C   0  0  0  0  0  0  0  0  0  0  0  0
    3.2102   -6.0783    2.6262 N   0  0  0  0  0  0  0  0  0  0  0  0
    4.7120   -4.3780    2.6082 O   0  0  0  0  0  0  0  0  0  0  0  0
    4.8953   -3.0915    2.1759 C   0  0  0  0  0  0  0  0  0  0  0  0
    5.0127   -2.1114    3.0918 C   0  0  0  0  0  0  0  0  0  0  0  0
    5.1831   -0.6481    2.7434 C   0  0  0  0  0  0  0  0  0  0  0  0
    4.7191   -0.3555    1.3043 C   0  0  0  0  0  0  0  0  0  0  0  0
    5.2252   -1.4085    0.3213 C   0  0  0  0  0  0  0  0  0  0  0  0
    5.8144   -1.0821   -0.7082 O   0  0  0  0  0  0  0  0  0  0  0  0
    4.9787   -2.8889    0.6646 C   0  0  2  0  0  0  0  0  0  0  0  0
    3.7166   -3.4663    0.0186 C   0  0  1  0  0  0  0  0  0  0  0  0
    3.6982   -3.3453   -1.4808 C   0  0  0  0  0  0  0  0  0  0  0  0
    4.6154   -3.7160   -2.4567 C   0  0  0  0  0  0  0  0  0  0  0  0
    4.1008   -3.4118   -3.7236 N   0  0  0  0  0  0  0  0  0  0  0  0
    2.9003   -2.8921   -3.4784 C   0  0  0  0  0  0  0  0  0  0  0  0
    2.6215   -2.8087   -2.1733 N   0  0  0  0  0  0  0  0  0  0  0  0
    1.7847   -2.3947   -1.7676 H   0  0  0  0  0  0  0  0  0  0  0  0
    4.2675   -5.5444   -0.0517 H   0  0  0  0  0  0  0  0  0  0  0  0
    3.5028   -6.0993    3.5932 H   0  0  0  0  0  0  0  0  0  0  0  0
    4.9696   -2.3352    4.1414 H   0  0  0  0  0  0  0  0  0  0  0  0
    4.5916   -0.0539    3.4423 H   0  0  0  0  0  0  0  0  0  0  0  0
    6.2278   -0.3684    2.8903 H   0  0  0  0  0  0  0  0  0  0  0  0
    3.6301   -0.3556    1.2607 H   0  0  0  0  0  0  0  0  0  0  0  0
    5.0476    0.6258    0.9679 H   0  0  0  0  0  0  0  0  0  0  0  0
    5.8486   -3.4493    0.3102 H   0  0  0  0  0  0  0  0  0  0  0  0
    2.8681   -2.9018    0.4007 H   0  0  0  0  0  0  0  0  0  0  0  0
    5.5750   -4.2073   -2.3481 H   0  0  0  0  0  0  0  0  0  0  0  0
    2.2185   -2.5477   -4.2500 H   0  0  0  0  0  0  0  0  0  0  0  0
  1  2  3  0
  2  3  1  0
  3 14  1  0
  3  4  1  0
  3 21  1  6
  4  5  2  3
  4  6  1  0
  5 22  1  0
  6  7  1  0
  7 13  1  0
  7  8  2  0
  8  9  1  0
  8 23  1  0
  9 10  1  0
  9 24  1  0
  9 25  1  0
 10 11  1  0
 10 26  1  0
 10 27  1  0
 11 12  2  0
 11 13  1  0
 13 14  1  0
 13 28  1  6
 14 15  1  0
 14 29  1  1
 15 19  1  0
 15 16  2  0
 16 17  1  0
 16 30  1  0
 17 18  2  0
 18 19  1  0
 18 31  1  0
 19 20  1  0
M  END
>  <i_m_ct_stereo_status>  (239) 
1

>  <s_m_source_file>  (239) 
/var/tmp/pbs.5076255.sched01/tmp0pz6dnip/90w4u7_w6b.sdf

>  <i_m_source_file_index>  (239) 
12

>  <i_lp_mmshare_version>  (239) 
48012

>  <i_f3d_flags>  (239) 
0

>  <s_epik_input>  (239) 
W25IXTFbY0hdbltjSF1jMVtDQEBIXShbQ0BIXShDI04pL0MoTzIpPU4vW0hdKVtDQEhdKEMyPTMpQyg9TylbQ0gyXVtDSDJdW0NIXTM=

>  <s_epik_cmdline>  (239) 
J2VwaWtfcHl0aG9uJywgJy1waHQnLCAnMi4wJywgJy1waCcsICc3LjAnLCAnLXRuJywgJzgnLCAnLW1hJywgJzIwMCcsICctaW1hZScsICc8aW5maWxlLm1hZT4nLCAnLW9tYWUnLCAnPG91dGZpbGUubWFlPic=

>  <r_lp_tautomer_probability>  (239) 
0.499975

>  <r_epik_Ionization_Penalty>  (239) 
0.160196

>  <r_epik_Ionization_Penalty_Charging>  (239) 
0.105638

>  <r_epik_Ionization_Penalty_Neutral>  (239) 
0.0545583

>  <r_epik_State_Penalty>  (239) 
1.04779

>  <r_epik_Charging_Adjusted_Penalty>  (239) 
1.15342

>  <i_epik_Tot_Q>  (239) 
0

>  <i_epik_Tot_abs_Q>  (239) 
0

>  <s_epik_Chemistry_Notes>  (239) 
This compound has an imine and may undergo hydrolysis.

>  <s_lp_Force_Field>  (239) 
OPLS3e

>  <r_lp_Energy>  (239) 
7.76624

>  <b_lp_Chiralities_Consistent>  (239) 
1

>  <s_lp_Variant>  (239) 
66:0-1

>  <s_i_glide_gridfile>  (239) 
pfpi4k_grid

>  <i_i_glide_lignum>  (239) 
12

>  <i_i_glide_rotatable_bonds>  (239) 
2

>  <r_i_docking_score>  (239) 
-5.45513

>  <r_i_glide_ligand_efficiency>  (239) 
-0.287112

>  <r_i_glide_ligand_efficiency_sa>  (239) 
-0.766131

>  <r_i_glide_ligand_efficiency_ln>  (239) 
-1.38299

>  <r_i_glide_gscore>  (239) 
-5.45513

>  <r_i_glide_lipo>  (239) 
-0.449016

>  <r_i_glide_hbond>  (239) 
-0.632658

>  <r_i_glide_metal>  (239) 
-0

>  <r_i_glide_rewards>  (239) 
-2.0217

>  <r_i_glide_evdw>  (239) 
-21.5706

>  <r_i_glide_ecoul>  (239) 
-9.66105

>  <r_i_glide_erotb>  (239) 
0.26836

>  <r_i_glide_esite>  (239) 
-0.0924285

>  <r_i_glide_emodel>  (239) 
-42.0734

>  <r_i_glide_energy>  (239) 
-31.2317

>  <r_i_glide_einternal>  (239) 
1.19003

>  <r_i_glide_intrahb_reward>  (239) 
-0

>  <i_i_glide_confnum>  (239) 
2

>  <i_i_glide_posenum>  (239) 
10

>  <r_i_glide_eff_state_penalty>  (239) 
0

>  <ligand_id>  (239) 
66

>  <original_smiles>  (239) 
N#CC1C(=N)OC2=CCCC(=O)C2C1c1cnc[nH]1

>  <smiles>  (239) 
[H]N=C1OC2=C([H])C([H])([H])C([H])([H])C(=O)C2([H])C([H])(c2c([H])nc([H])n2[H])C1([H])C#N

$$$$
66:0:1
     RDKit          3D

 31 33  0  0  1  0  0  0  0  0999 V2000
    6.8193   -1.4622    0.0782 N   0  0  0  0  0  0  0  0  0  0  0  0
    5.7873   -1.7702    0.4998 C   0  0  0  0  0  0  0  0  0  0  0  0
    4.4727   -2.1702    1.0358 C   0  0  2  0  0  0  0  0  0  0  0  0
    4.4919   -2.1475    2.5699 C   0  0  0  0  0  0  0  0  0  0  0  0
    5.2816   -1.4300    3.2405 N   0  0  0  0  0  0  0  0  0  0  0  0
    3.5691   -2.9240    3.2302 O   0  0  0  0  0  0  0  0  0  0  0  0
    3.1197   -4.0820    2.6498 C   0  0  0  0  0  0  0  0  0  0  0  0
    2.9886   -5.1753    3.4188 C   0  0  0  0  0  0  0  0  0  0  0  0
    2.5436   -6.5239    2.8981 C   0  0  0  0  0  0  0  0  0  0  0  0
    2.7395   -6.6441    1.3777 C   0  0  0  0  0  0  0  0  0  0  0  0
    2.2502   -5.3856    0.6620 C   0  0  0  0  0  0  0  0  0  0  0  0
    1.4061   -5.4614   -0.2264 O   0  0  0  0  0  0  0  0  0  0  0  0
    2.7952   -4.0235    1.1566 C   0  0  2  0  0  0  0  0  0  0  0  0
    4.0227   -3.5008    0.4038 C   0  0  1  0  0  0  0  0  0  0  0  0
    3.8049   -3.3439   -1.0734 C   0  0  0  0  0  0  0  0  0  0  0  0
    4.5555   -3.8018   -2.1404 C   0  0  0  0  0  0  0  0  0  0  0  0
    3.9884   -3.3882   -3.3492 N   0  0  0  0  0  0  0  0  0  0  0  0
    2.8895   -2.7316   -2.9756 C   0  0  0  0  0  0  0  0  0  0  0  0
    2.7440   -2.6548   -1.6506 N   0  0  0  0  0  0  0  0  0  0  0  0
    2.0106   -2.1130   -1.1826 H   0  0  0  0  0  0  0  0  0  0  0  0
    3.7804   -1.3822    0.7403 H   0  0  0  0  0  0  0  0  0  0  0  0
    5.1525   -1.5490    4.2360 H   0  0  0  0  0  0  0  0  0  0  0  0
    3.2153   -5.1319    4.4725 H   0  0  0  0  0  0  0  0  0  0  0  0
    3.1333   -7.2930    3.3947 H   0  0  0  0  0  0  0  0  0  0  0  0
    1.5011   -6.6870    3.1796 H   0  0  0  0  0  0  0  0  0  0  0  0
    3.7981   -6.7672    1.1455 H   0  0  0  0  0  0  0  0  0  0  0  0
    2.2145   -7.5168    0.9905 H   0  0  0  0  0  0  0  0  0  0  0  0
    1.9908   -3.2938    1.0480 H   0  0  0  0  0  0  0  0  0  0  0  0
    4.8274   -4.2254    0.5497 H   0  0  0  0  0  0  0  0  0  0  0  0
    5.4497   -4.4115   -2.1407 H   0  0  0  0  0  0  0  0  0  0  0  0
    2.1943   -2.2825   -3.6682 H   0  0  0  0  0  0  0  0  0  0  0  0
  1  2  3  0
  2  3  1  0
  3 14  1  0
  3  4  1  0
  3 21  1  6
  4  5  2  3
  4  6  1  0
  5 22  1  0
  6  7  1  0
  7 13  1  0
  7  8  2  0
  8  9  1  0
  8 23  1  0
  9 10  1  0
  9 24  1  0
  9 25  1  0
 10 11  1  0
 10 26  1  0
 10 27  1  0
 11 12  2  0
 11 13  1  0
 13 14  1  0
 13 28  1  1
 14 15  1  0
 14 29  1  6
 15 19  1  0
 15 16  2  0
 16 17  1  0
 16 30  1  0
 17 18  2  0
 18 19  1  0
 18 31  1  0
 19 20  1  0
M  END
>  <i_m_ct_stereo_status>  (240) 
1

>  <s_m_source_file>  (240) 
/var/tmp/pbs.5076255.sched01/tmp0pz6dnip/90w4u7_w6b.sdf

>  <i_m_source_file_index>  (240) 
12

>  <i_lp_mmshare_version>  (240) 
48012

>  <i_f3d_flags>  (240) 
0

>  <s_epik_input>  (240) 
W25IXTFbY0hdbltjSF1jMVtDQEBIXShbQ0BIXShDI04pL0MoTzIpPU4vW0hdKVtDQEhdKEMyPTMpQyg9TylbQ0gyXVtDSDJdW0NIXTM=

>  <s_epik_cmdline>  (240) 
J2VwaWtfcHl0aG9uJywgJy1waHQnLCAnMi4wJywgJy1waCcsICc3LjAnLCAnLXRuJywgJzgnLCAnLW1hJywgJzIwMCcsICctaW1hZScsICc8aW5maWxlLm1hZT4nLCAnLW9tYWUnLCAnPG91dGZpbGUubWFlPic=

>  <r_lp_tautomer_probability>  (240) 
0.499975

>  <r_epik_Ionization_Penalty>  (240) 
0.160196

>  <r_epik_Ionization_Penalty_Charging>  (240) 
0.105638

>  <r_epik_Ionization_Penalty_Neutral>  (240) 
0.0545583

>  <r_epik_State_Penalty>  (240) 
1.04779

>  <r_epik_Charging_Adjusted_Penalty>  (240) 
1.15342

>  <i_epik_Tot_Q>  (240) 
0

>  <i_epik_Tot_abs_Q>  (240) 
0

>  <s_epik_Chemistry_Notes>  (240) 
This compound has an imine and may undergo hydrolysis.

>  <s_lp_Force_Field>  (240) 
OPLS3e

>  <r_lp_Energy>  (240) 
7.76624

>  <b_lp_Chiralities_Consistent>  (240) 
1

>  <s_lp_Variant>  (240) 
66:0-1

>  <s_i_glide_gridfile>  (240) 
pfpi4k_grid

>  <i_i_glide_lignum>  (240) 
12

>  <i_i_glide_rotatable_bonds>  (240) 
2

>  <r_i_docking_score>  (240) 
-4.28579

>  <r_i_glide_ligand_efficiency>  (240) 
-0.225568

>  <r_i_glide_ligand_efficiency_sa>  (240) 
-0.601906

>  <r_i_glide_ligand_efficiency_ln>  (240) 
-1.08654

>  <r_i_glide_gscore>  (240) 
-4.28579

>  <r_i_glide_lipo>  (240) 
-0.056902

>  <r_i_glide_hbond>  (240) 
-0.450035

>  <r_i_glide_metal>  (240) 
-0

>  <r_i_glide_rewards>  (240) 
-1.83509

>  <r_i_glide_evdw>  (240) 
-18.3678

>  <r_i_glide_ecoul>  (240) 
-7.96091

>  <r_i_glide_erotb>  (240) 
0.26836

>  <r_i_glide_esite>  (240) 
-0.0995969

>  <r_i_glide_emodel>  (240) 
-34.8427

>  <r_i_glide_energy>  (240) 
-26.3287

>  <r_i_glide_einternal>  (240) 
0.857365

>  <r_i_glide_intrahb_reward>  (240) 
-0

>  <i_i_glide_confnum>  (240) 
1

>  <i_i_glide_posenum>  (240) 
35

>  <r_i_glide_eff_state_penalty>  (240) 
0

>  <ligand_id>  (240) 
66

>  <original_smiles>  (240) 
N#CC1C(=N)OC2=CCCC(=O)C2C1c1cnc[nH]1

>  <smiles>  (240) 
[H]N=C1OC2=C([H])C([H])([H])C([H])([H])C(=O)C2([H])C([H])(c2c([H])nc([H])n2[H])C1([H])C#N

$$$$
66:0:2
     RDKit          3D

 31 33  0  0  1  0  0  0  0  0999 V2000
    5.7926   -0.2813    2.9043 N   0  0  0  0  0  0  0  0  0  0  0  0
    5.6974   -1.1751    2.1717 C   0  0  0  0  0  0  0  0  0  0  0  0
    5.5630   -2.3164    1.2472 C   0  0  2  0  0  0  0  0  0  0  0  0
    6.7320   -2.3622    0.2516 C   0  0  0  0  0  0  0  0  0  0  0  0
    7.8564   -1.8409    0.4773 N   0  0  0  0  0  0  0  0  0  0  0  0
    6.5386   -3.0529   -0.9235 O   0  0  0  0  0  0  0  0  0  0  0  0
    5.2856   -3.1060   -1.4709 C   0  0  0  0  0  0  0  0  0  0  0  0
    5.1638   -2.9253   -2.7977 C   0  0  0  0  0  0  0  0  0  0  0  0
    3.8395   -2.9130   -3.5284 C   0  0  0  0  0  0  0  0  0  0  0  0
    2.6650   -2.6450   -2.5723 C   0  0  0  0  0  0  0  0  0  0  0  0
    2.7891   -3.4478   -1.2727 C   0  0  0  0  0  0  0  0  0  0  0  0
    1.8417   -4.1041   -0.8369 O   0  0  0  0  0  0  0  0  0  0  0  0
    4.1281   -3.3747   -0.5137 C   0  0  2  0  0  0  0  0  0  0  0  0
    4.1641   -2.3217    0.6035 C   0  0  1  0  0  0  0  0  0  0  0  0
    3.0964   -2.5005    1.6485 C   0  0  0  0  0  0  0  0  0  0  0  0
    2.8272   -3.5285    2.5296 C   0  0  0  0  0  0  0  0  0  0  0  0
    1.7194   -3.2072    3.3142 N   0  0  0  0  0  0  0  0  0  0  0  0
    1.3696   -1.9941    2.8937 C   0  0  0  0  0  0  0  0  0  0  0  0
    2.1385   -1.5334    1.9116 N   0  0  0  0  0  0  0  0  0  0  0  0
    2.0049   -0.6648    1.4080 H   0  0  0  0  0  0  0  0  0  0  0  0
    5.6637   -3.2090    1.8667 H   0  0  0  0  0  0  0  0  0  0  0  0
    8.5316   -2.0101   -0.2577 H   0  0  0  0  0  0  0  0  0  0  0  0
    6.0433   -2.7712   -3.4040 H   0  0  0  0  0  0  0  0  0  0  0  0
    3.8730   -2.1308   -4.2864 H   0  0  0  0  0  0  0  0  0  0  0  0
    3.7139   -3.8645   -4.0435 H   0  0  0  0  0  0  0  0  0  0  0  0
    2.6516   -1.5864   -2.3012 H   0  0  0  0  0  0  0  0  0  0  0  0
    1.7140   -2.8534   -3.0623 H   0  0  0  0  0  0  0  0  0  0  0  0
    4.2990   -4.3610   -0.0784 H   0  0  0  0  0  0  0  0  0  0  0  0
    4.0090   -1.3465    0.1448 H   0  0  0  0  0  0  0  0  0  0  0  0
    3.3386   -4.4752    2.6658 H   0  0  0  0  0  0  0  0  0  0  0  0
    0.5122   -1.4560    3.2782 H   0  0  0  0  0  0  0  0  0  0  0  0
  1  2  3  0
  2  3  1  0
  3 14  1  0
  3  4  1  0
  3 21  1  1
  4  5  2  3
  4  6  1  0
  5 22  1  0
  6  7  1  0
  7 13  1  0
  7  8  2  0
  8  9  1  0
  8 23  1  0
  9 10  1  0
  9 24  1  0
  9 25  1  0
 10 11  1  0
 10 26  1  0
 10 27  1  0
 11 12  2  0
 11 13  1  0
 13 14  1  0
 13 28  1  1
 14 15  1  0
 14 29  1  6
 15 19  1  0
 15 16  2  0
 16 17  1  0
 16 30  1  0
 17 18  2  0
 18 19  1  0
 18 31  1  0
 19 20  1  0
M  END
>  <i_m_ct_stereo_status>  (241) 
1

>  <s_m_source_file>  (241) 
/var/tmp/pbs.5076255.sched01/tmp0pz6dnip/90w4u7_w6b.sdf

>  <i_m_source_file_index>  (241) 
12

>  <i_lp_mmshare_version>  (241) 
48012

>  <i_f3d_flags>  (241) 
0

>  <s_epik_input>  (241) 
W25IXTFbY0hdbltjSF1jMVtDQEBIXShbQ0BIXShDI04pL0MoTzIpPU4vW0hdKVtDQEhdKEMyPTMpQyg9TylbQ0gyXVtDSDJdW0NIXTM=

>  <s_epik_cmdline>  (241) 
J2VwaWtfcHl0aG9uJywgJy1waHQnLCAnMi4wJywgJy1waCcsICc3LjAnLCAnLXRuJywgJzgnLCAnLW1hJywgJzIwMCcsICctaW1hZScsICc8aW5maWxlLm1hZT4nLCAnLW9tYWUnLCAnPG91dGZpbGUubWFlPic=

>  <r_lp_tautomer_probability>  (241) 
0.499975

>  <r_epik_Ionization_Penalty>  (241) 
0.160196

>  <r_epik_Ionization_Penalty_Charging>  (241) 
0.105638

>  <r_epik_Ionization_Penalty_Neutral>  (241) 
0.0545583

>  <r_epik_State_Penalty>  (241) 
1.04779

>  <r_epik_Charging_Adjusted_Penalty>  (241) 
1.15342

>  <i_epik_Tot_Q>  (241) 
0

>  <i_epik_Tot_abs_Q>  (241) 
0

>  <s_epik_Chemistry_Notes>  (241) 
This compound has an imine and may undergo hydrolysis.

>  <s_lp_Force_Field>  (241) 
OPLS3e

>  <r_lp_Energy>  (241) 
7.76624

>  <b_lp_Chiralities_Consistent>  (241) 
1

>  <s_lp_Variant>  (241) 
66:0-1

>  <s_i_glide_gridfile>  (241) 
pfpi4k_grid

>  <i_i_glide_lignum>  (241) 
12

>  <i_i_glide_rotatable_bonds>  (241) 
2

>  <r_i_docking_score>  (241) 
-3.92069

>  <r_i_glide_ligand_efficiency>  (241) 
-0.206352

>  <r_i_glide_ligand_efficiency_sa>  (241) 
-0.550631

>  <r_i_glide_ligand_efficiency_ln>  (241) 
-0.99398

>  <r_i_glide_gscore>  (241) 
-3.92069

>  <r_i_glide_lipo>  (241) 
-0.557738

>  <r_i_glide_hbond>  (241) 
-0.0875327

>  <r_i_glide_metal>  (241) 
-0

>  <r_i_glide_rewards>  (241) 
-2.01784

>  <r_i_glide_evdw>  (241) 
-23.4853

>  <r_i_glide_ecoul>  (241) 
-1.95275

>  <r_i_glide_erotb>  (241) 
0.26836

>  <r_i_glide_esite>  (241) 
-0.0587652

>  <r_i_glide_emodel>  (241) 
-33.0434

>  <r_i_glide_energy>  (241) 
-25.438

>  <r_i_glide_einternal>  (241) 
1.20266

>  <r_i_glide_intrahb_reward>  (241) 
-0

>  <i_i_glide_confnum>  (241) 
6

>  <i_i_glide_posenum>  (241) 
24

>  <r_i_glide_eff_state_penalty>  (241) 
0

>  <ligand_id>  (241) 
66

>  <original_smiles>  (241) 
N#CC1C(=N)OC2=CCCC(=O)C2C1c1cnc[nH]1

>  <smiles>  (241) 
[H]N=C1OC2=C([H])C([H])([H])C([H])([H])C(=O)C2([H])C([H])(c2c([H])nc([H])n2[H])C1([H])C#N

$$$$
66:1:0
     RDKit          3D

 31 33  0  0  1  0  0  0  0  0999 V2000
    6.9433   -1.4705    0.0794 N   0  0  0  0  0  0  0  0  0  0  0  0
    5.9082   -1.7766    0.4935 C   0  0  0  0  0  0  0  0  0  0  0  0
    4.5924   -2.1701    1.0254 C   0  0  2  0  0  0  0  0  0  0  0  0
    4.6132   -2.1362    2.5604 C   0  0  0  0  0  0  0  0  0  0  0  0
    5.3918   -1.4005    3.2320 N   0  0  0  0  0  0  0  0  0  0  0  0
    3.6942   -2.9228    3.2205 O   0  0  0  0  0  0  0  0  0  0  0  0
    3.2530   -4.0840    2.6394 C   0  0  0  0  0  0  0  0  0  0  0  0
    3.1417   -5.1870    3.4033 C   0  0  0  0  0  0  0  0  0  0  0  0
    2.7062   -6.5372    2.8777 C   0  0  0  0  0  0  0  0  0  0  0  0
    2.8806   -6.6442    1.3534 C   0  0  0  0  0  0  0  0  0  0  0  0
    2.3709   -5.3864    0.6546 C   0  0  0  0  0  0  0  0  0  0  0  0
    1.5047   -5.4556   -0.2191 O   0  0  0  0  0  0  0  0  0  0  0  0
    2.9135   -4.0245    1.1504 C   0  0  2  0  0  0  0  0  0  0  0  0
    4.1332   -3.4972    0.3880 C   0  0  1  0  0  0  0  0  0  0  0  0
    3.8984   -3.3309   -1.0855 C   0  0  0  0  0  0  0  0  0  0  0  0
    4.6444   -3.7603   -2.1657 C   0  0  0  0  0  0  0  0  0  0  0  0
    4.0618   -3.3458   -3.3652 N   0  0  0  0  0  0  0  0  0  0  0  0
    2.9564   -2.7125   -2.9742 C   0  0  0  0  0  0  0  0  0  0  0  0
    2.8192   -2.6534   -1.6465 N   0  0  0  0  0  0  0  0  0  0  0  0
    2.0770   -2.1429   -1.1649 H   0  0  0  0  0  0  0  0  0  0  0  0
    3.9046   -1.3782    0.7307 H   0  0  0  0  0  0  0  0  0  0  0  0
    6.0419   -0.8442    2.6938 H   0  0  0  0  0  0  0  0  0  0  0  0
    3.3777   -5.1448    4.4538 H   0  0  0  0  0  0  0  0  0  0  0  0
    3.3133   -7.3041    3.3581 H   0  0  0  0  0  0  0  0  0  0  0  0
    1.6698   -6.7175    3.1729 H   0  0  0  0  0  0  0  0  0  0  0  0
    3.9358   -6.7581    1.1031 H   0  0  0  0  0  0  0  0  0  0  0  0
    2.3551   -7.5159    0.9659 H   0  0  0  0  0  0  0  0  0  0  0  0
    2.1065   -3.2968    1.0484 H   0  0  0  0  0  0  0  0  0  0  0  0
    4.9422   -4.2208    0.5232 H   0  0  0  0  0  0  0  0  0  0  0  0
    5.5606   -4.3360   -2.1796 H   0  0  0  0  0  0  0  0  0  0  0  0
    2.2462   -2.2701   -3.6554 H   0  0  0  0  0  0  0  0  0  0  0  0
  1  2  3  0
  2  3  1  0
  3 14  1  0
  3  4  1  0
  3 21  1  6
  4  5  2  3
  4  6  1  0
  5 22  1  0
  6  7  1  0
  7 13  1  0
  7  8  2  0
  8  9  1  0
  8 23  1  0
  9 10  1  0
  9 24  1  0
  9 25  1  0
 10 11  1  0
 10 26  1  0
 10 27  1  0
 11 12  2  0
 11 13  1  0
 13 14  1  0
 13 28  1  1
 14 15  1  0
 14 29  1  6
 15 19  1  0
 15 16  2  0
 16 17  1  0
 16 30  1  0
 17 18  2  0
 18 19  1  0
 18 31  1  0
 19 20  1  0
M  END
>  <i_m_ct_stereo_status>  (242) 
1

>  <s_m_source_file>  (242) 
/var/tmp/pbs.5076255.sched01/tmp0pz6dnip/90w4u7_w6b.sdf

>  <i_m_source_file_index>  (242) 
13

>  <i_lp_mmshare_version>  (242) 
48012

>  <i_f3d_flags>  (242) 
0

>  <s_epik_input>  (242) 
W25IXTFbY0hdbltjSF1jMVtDQEBIXShbQ0BIXShDI04pL0MoTzIpPU4vW0hdKVtDQEhdKEMyPTMpQyg9TylbQ0gyXVtDSDJdW0NIXTM=

>  <s_epik_cmdline>  (242) 
J2VwaWtfcHl0aG9uJywgJy1waHQnLCAnMi4wJywgJy1waCcsICc3LjAnLCAnLXRuJywgJzgnLCAnLW1hJywgJzIwMCcsICctaW1hZScsICc8aW5maWxlLm1hZT4nLCAnLW9tYWUnLCAnPG91dGZpbGUubWFlPic=

>  <r_lp_tautomer_probability>  (242) 
0.499975

>  <r_epik_Ionization_Penalty>  (242) 
0.160196

>  <r_epik_Ionization_Penalty_Charging>  (242) 
0.105638

>  <r_epik_Ionization_Penalty_Neutral>  (242) 
0.0545583

>  <r_epik_State_Penalty>  (242) 
1.04779

>  <r_epik_Charging_Adjusted_Penalty>  (242) 
1.15342

>  <i_epik_Tot_Q>  (242) 
0

>  <i_epik_Tot_abs_Q>  (242) 
0

>  <s_epik_Chemistry_Notes>  (242) 
This compound has an imine and may undergo hydrolysis.

>  <s_lp_Force_Field>  (242) 
OPLS3e

>  <r_lp_Energy>  (242) 
7.26263

>  <b_lp_Chiralities_Consistent>  (242) 
1

>  <s_lp_Variant>  (242) 
66:0-2

>  <s_i_glide_gridfile>  (242) 
pfpi4k_grid

>  <i_i_glide_lignum>  (242) 
13

>  <i_i_glide_rotatable_bonds>  (242) 
2

>  <r_i_docking_score>  (242) 
-4.28251

>  <r_i_glide_ligand_efficiency>  (242) 
-0.225395

>  <r_i_glide_ligand_efficiency_sa>  (242) 
-0.601445

>  <r_i_glide_ligand_efficiency_ln>  (242) 
-1.08571

>  <r_i_glide_gscore>  (242) 
-4.28251

>  <r_i_glide_lipo>  (242) 
-0.0740995

>  <r_i_glide_hbond>  (242) 
-0.416494

>  <r_i_glide_metal>  (242) 
-0

>  <r_i_glide_rewards>  (242) 
-1.84499

>  <r_i_glide_evdw>  (242) 
-19.1926

>  <r_i_glide_ecoul>  (242) 
-7.74981

>  <r_i_glide_erotb>  (242) 
0.26836

>  <r_i_glide_esite>  (242) 
-0.0931827

>  <r_i_glide_emodel>  (242) 
-34.3923

>  <r_i_glide_energy>  (242) 
-26.9424

>  <r_i_glide_einternal>  (242) 
0.893333

>  <r_i_glide_intrahb_reward>  (242) 
-0

>  <i_i_glide_confnum>  (242) 
1

>  <i_i_glide_posenum>  (242) 
8

>  <r_i_glide_eff_state_penalty>  (242) 
0

>  <ligand_id>  (242) 
66

>  <original_smiles>  (242) 
N#CC1C(=N)OC2=CCCC(=O)C2C1c1cnc[nH]1

>  <smiles>  (242) 
[H]N=C1OC2=C([H])C([H])([H])C([H])([H])C(=O)C2([H])C([H])(c2c([H])nc([H])n2[H])C1([H])C#N

$$$$
66:1:1
     RDKit          3D

 31 33  0  0  1  0  0  0  0  0999 V2000
    5.7904   -0.2964    2.8400 N   0  0  0  0  0  0  0  0  0  0  0  0
    5.6898   -1.1837    2.1050 C   0  0  0  0  0  0  0  0  0  0  0  0
    5.5616   -2.3196    1.1759 C   0  0  2  0  0  0  0  0  0  0  0  0
    6.7178   -2.3406    0.1681 C   0  0  0  0  0  0  0  0  0  0  0  0
    7.8480   -1.8213    0.3862 N   0  0  0  0  0  0  0  0  0  0  0  0
    6.5093   -3.0026   -1.0201 O   0  0  0  0  0  0  0  0  0  0  0  0
    5.2481   -3.0689   -1.5520 C   0  0  0  0  0  0  0  0  0  0  0  0
    5.0977   -2.8722   -2.8722 C   0  0  0  0  0  0  0  0  0  0  0  0
    3.7617   -2.8534   -3.5783 C   0  0  0  0  0  0  0  0  0  0  0  0
    2.6093   -2.6255   -2.5935 C   0  0  0  0  0  0  0  0  0  0  0  0
    2.7584   -3.4497   -1.3120 C   0  0  0  0  0  0  0  0  0  0  0  0
    1.8232   -4.1246   -0.8659 O   0  0  0  0  0  0  0  0  0  0  0  0
    4.1142   -3.3754   -0.5783 C   0  0  2  0  0  0  0  0  0  0  0  0
    4.1526   -2.3439    0.5580 C   0  0  1  0  0  0  0  0  0  0  0  0
    3.1143   -2.5671    1.6249 C   0  0  0  0  0  0  0  0  0  0  0  0
    2.8902   -3.6220    2.4915 C   0  0  0  0  0  0  0  0  0  0  0  0
    1.7954   -3.3371    3.3117 N   0  0  0  0  0  0  0  0  0  0  0  0
    1.4125   -2.1234    2.9254 C   0  0  0  0  0  0  0  0  0  0  0  0
    2.1452   -1.6253    1.9305 N   0  0  0  0  0  0  0  0  0  0  0  0
    1.9841   -0.7527    1.4505 H   0  0  0  0  0  0  0  0  0  0  0  0
    5.6912   -3.2121    1.7902 H   0  0  0  0  0  0  0  0  0  0  0  0
    7.9404   -1.3624    1.2849 H   0  0  0  0  0  0  0  0  0  0  0  0
    5.9650   -2.7041   -3.4926 H   0  0  0  0  0  0  0  0  0  0  0  0
    3.7656   -2.0487   -4.3109 H   0  0  0  0  0  0  0  0  0  0  0  0
    3.6355   -3.7906   -4.1170 H   0  0  0  0  0  0  0  0  0  0  0  0
    2.5815   -1.5731   -2.3008 H   0  0  0  0  0  0  0  0  0  0  0  0
    1.6511   -2.8445   -3.0620 H   0  0  0  0  0  0  0  0  0  0  0  0
    4.3064   -4.3666   -0.1653 H   0  0  0  0  0  0  0  0  0  0  0  0
    3.9651   -1.3645    0.1221 H   0  0  0  0  0  0  0  0  0  0  0  0
    3.4219   -4.5597    2.5965 H   0  0  0  0  0  0  0  0  0  0  0  0
    0.5576   -1.6096    3.3429 H   0  0  0  0  0  0  0  0  0  0  0  0
  1  2  3  0
  2  3  1  0
  3 14  1  0
  3  4  1  0
  3 21  1  1
  4  5  2  3
  4  6  1  0
  5 22  1  0
  6  7  1  0
  7 13  1  0
  7  8  2  0
  8  9  1  0
  8 23  1  0
  9 10  1  0
  9 24  1  0
  9 25  1  0
 10 11  1  0
 10 26  1  0
 10 27  1  0
 11 12  2  0
 11 13  1  0
 13 14  1  0
 13 28  1  1
 14 15  1  0
 14 29  1  6
 15 19  1  0
 15 16  2  0
 16 17  1  0
 16 30  1  0
 17 18  2  0
 18 19  1  0
 18 31  1  0
 19 20  1  0
M  END
>  <i_m_ct_stereo_status>  (243) 
1

>  <s_m_source_file>  (243) 
/var/tmp/pbs.5076255.sched01/tmp0pz6dnip/90w4u7_w6b.sdf

>  <i_m_source_file_index>  (243) 
13

>  <i_lp_mmshare_version>  (243) 
48012

>  <i_f3d_flags>  (243) 
0

>  <s_epik_input>  (243) 
W25IXTFbY0hdbltjSF1jMVtDQEBIXShbQ0BIXShDI04pL0MoTzIpPU4vW0hdKVtDQEhdKEMyPTMpQyg9TylbQ0gyXVtDSDJdW0NIXTM=

>  <s_epik_cmdline>  (243) 
J2VwaWtfcHl0aG9uJywgJy1waHQnLCAnMi4wJywgJy1waCcsICc3LjAnLCAnLXRuJywgJzgnLCAnLW1hJywgJzIwMCcsICctaW1hZScsICc8aW5maWxlLm1hZT4nLCAnLW9tYWUnLCAnPG91dGZpbGUubWFlPic=

>  <r_lp_tautomer_probability>  (243) 
0.499975

>  <r_epik_Ionization_Penalty>  (243) 
0.160196

>  <r_epik_Ionization_Penalty_Charging>  (243) 
0.105638

>  <r_epik_Ionization_Penalty_Neutral>  (243) 
0.0545583

>  <r_epik_State_Penalty>  (243) 
1.04779

>  <r_epik_Charging_Adjusted_Penalty>  (243) 
1.15342

>  <i_epik_Tot_Q>  (243) 
0

>  <i_epik_Tot_abs_Q>  (243) 
0

>  <s_epik_Chemistry_Notes>  (243) 
This compound has an imine and may undergo hydrolysis.

>  <s_lp_Force_Field>  (243) 
OPLS3e

>  <r_lp_Energy>  (243) 
7.26263

>  <b_lp_Chiralities_Consistent>  (243) 
1

>  <s_lp_Variant>  (243) 
66:0-2

>  <s_i_glide_gridfile>  (243) 
pfpi4k_grid

>  <i_i_glide_lignum>  (243) 
13

>  <i_i_glide_rotatable_bonds>  (243) 
2

>  <r_i_docking_score>  (243) 
-4.08423

>  <r_i_glide_ligand_efficiency>  (243) 
-0.21496

>  <r_i_glide_ligand_efficiency_sa>  (243) 
-0.573598

>  <r_i_glide_ligand_efficiency_ln>  (243) 
-1.03544

>  <r_i_glide_gscore>  (243) 
-4.08423

>  <r_i_glide_lipo>  (243) 
-0.55569

>  <r_i_glide_hbond>  (243) 
-0.110804

>  <r_i_glide_metal>  (243) 
-0

>  <r_i_glide_rewards>  (243) 
-1.99499

>  <r_i_glide_evdw>  (243) 
-23.4153

>  <r_i_glide_ecoul>  (243) 
-3.13005

>  <r_i_glide_erotb>  (243) 
0.26836

>  <r_i_glide_esite>  (243) 
-0.0508321

>  <r_i_glide_emodel>  (243) 
-33.4854

>  <r_i_glide_energy>  (243) 
-26.5454

>  <r_i_glide_einternal>  (243) 
1.2486

>  <r_i_glide_intrahb_reward>  (243) 
-0

>  <i_i_glide_confnum>  (243) 
1

>  <i_i_glide_posenum>  (243) 
22

>  <r_i_glide_eff_state_penalty>  (243) 
0

>  <ligand_id>  (243) 
66

>  <original_smiles>  (243) 
N#CC1C(=N)OC2=CCCC(=O)C2C1c1cnc[nH]1

>  <smiles>  (243) 
[H]N=C1OC2=C([H])C([H])([H])C([H])([H])C(=O)C2([H])C([H])(c2c([H])nc([H])n2[H])C1([H])C#N

$$$$
66:1:2
     RDKit          3D

 31 33  0  0  1  0  0  0  0  0999 V2000
    5.4892   -0.2747    2.9470 N   0  0  0  0  0  0  0  0  0  0  0  0
    5.4525   -1.1831    2.2284 C   0  0  0  0  0  0  0  0  0  0  0  0
    5.4080   -2.3380    1.3189 C   0  0  2  0  0  0  0  0  0  0  0  0
    6.5133   -2.2330    0.2581 C   0  0  0  0  0  0  0  0  0  0  0  0
    7.5857   -1.5860    0.4284 N   0  0  0  0  0  0  0  0  0  0  0  0
    6.3281   -2.9196   -0.9220 O   0  0  0  0  0  0  0  0  0  0  0  0
    5.0596   -3.1325   -1.3929 C   0  0  0  0  0  0  0  0  0  0  0  0
    4.8291   -2.9506   -2.7070 C   0  0  0  0  0  0  0  0  0  0  0  0
    3.4677   -3.0991   -3.3500 C   0  0  0  0  0  0  0  0  0  0  0  0
    2.3358   -3.0221   -2.3112 C   0  0  0  0  0  0  0  0  0  0  0  0
    2.6435   -3.8042   -1.0318 C   0  0  0  0  0  0  0  0  0  0  0  0
    1.8275   -4.5972   -0.5564 O   0  0  0  0  0  0  0  0  0  0  0  0
    4.0142   -3.5638   -0.3673 C   0  0  2  0  0  0  0  0  0  0  0  0
    3.9820   -2.5324    0.7673 C   0  0  1  0  0  0  0  0  0  0  0  0
    3.0202   -2.8854    1.8715 C   0  0  0  0  0  0  0  0  0  0  0  0
    1.9812   -2.1625    2.4217 C   0  0  0  0  0  0  0  0  0  0  0  0
    1.3653   -2.9019    3.4319 N   0  0  0  0  0  0  0  0  0  0  0  0
    2.0457   -4.0442    3.4583 C   0  0  0  0  0  0  0  0  0  0  0  0
    3.0370   -4.0890    2.5657 N   0  0  0  0  0  0  0  0  0  0  0  0
    3.6660   -4.8633    2.4153 H   0  0  0  0  0  0  0  0  0  0  0  0
    5.6681   -3.2061    1.9260 H   0  0  0  0  0  0  0  0  0  0  0  0
    7.6704   -1.1114    1.3197 H   0  0  0  0  0  0  0  0  0  0  0  0
    5.6399   -2.6728   -3.3643 H   0  0  0  0  0  0  0  0  0  0  0  0
    3.3347   -2.3031   -4.0823 H   0  0  0  0  0  0  0  0  0  0  0  0
    3.4351   -4.0447   -3.8925 H   0  0  0  0  0  0  0  0  0  0  0  0
    2.2110   -1.9821   -2.0128 H   0  0  0  0  0  0  0  0  0  0  0  0
    1.3891   -3.3516   -2.7371 H   0  0  0  0  0  0  0  0  0  0  0  0
    4.3431   -4.5246    0.0315 H   0  0  0  0  0  0  0  0  0  0  0  0
    3.6577   -1.5798    0.3375 H   0  0  0  0  0  0  0  0  0  0  0  0
    1.6234   -1.1741    2.1667 H   0  0  0  0  0  0  0  0  0  0  0  0
    1.8157   -4.8578    4.1295 H   0  0  0  0  0  0  0  0  0  0  0  0
  1  2  3  0
  2  3  1  0
  3 14  1  0
  3  4  1  0
  3 21  1  1
  4  5  2  3
  4  6  1  0
  5 22  1  0
  6  7  1  0
  7 13  1  0
  7  8  2  0
  8  9  1  0
  8 23  1  0
  9 10  1  0
  9 24  1  0
  9 25  1  0
 10 11  1  0
 10 26  1  0
 10 27  1  0
 11 12  2  0
 11 13  1  0
 13 14  1  0
 13 28  1  1
 14 15  1  0
 14 29  1  6
 15 19  1  0
 15 16  2  0
 16 17  1  0
 16 30  1  0
 17 18  2  0
 18 19  1  0
 18 31  1  0
 19 20  1  0
M  END
>  <i_m_ct_stereo_status>  (244) 
1

>  <s_m_source_file>  (244) 
/var/tmp/pbs.5076255.sched01/tmp0pz6dnip/90w4u7_w6b.sdf

>  <i_m_source_file_index>  (244) 
13

>  <i_lp_mmshare_version>  (244) 
48012

>  <i_f3d_flags>  (244) 
0

>  <s_epik_input>  (244) 
W25IXTFbY0hdbltjSF1jMVtDQEBIXShbQ0BIXShDI04pL0MoTzIpPU4vW0hdKVtDQEhdKEMyPTMpQyg9TylbQ0gyXVtDSDJdW0NIXTM=

>  <s_epik_cmdline>  (244) 
J2VwaWtfcHl0aG9uJywgJy1waHQnLCAnMi4wJywgJy1waCcsICc3LjAnLCAnLXRuJywgJzgnLCAnLW1hJywgJzIwMCcsICctaW1hZScsICc8aW5maWxlLm1hZT4nLCAnLW9tYWUnLCAnPG91dGZpbGUubWFlPic=

>  <r_lp_tautomer_probability>  (244) 
0.499975

>  <r_epik_Ionization_Penalty>  (244) 
0.160196

>  <r_epik_Ionization_Penalty_Charging>  (244) 
0.105638

>  <r_epik_Ionization_Penalty_Neutral>  (244) 
0.0545583

>  <r_epik_State_Penalty>  (244) 
1.04779

>  <r_epik_Charging_Adjusted_Penalty>  (244) 
1.15342

>  <i_epik_Tot_Q>  (244) 
0

>  <i_epik_Tot_abs_Q>  (244) 
0

>  <s_epik_Chemistry_Notes>  (244) 
This compound has an imine and may undergo hydrolysis.

>  <s_lp_Force_Field>  (244) 
OPLS3e

>  <r_lp_Energy>  (244) 
7.26263

>  <b_lp_Chiralities_Consistent>  (244) 
1

>  <s_lp_Variant>  (244) 
66:0-2

>  <s_i_glide_gridfile>  (244) 
pfpi4k_grid

>  <i_i_glide_lignum>  (244) 
13

>  <i_i_glide_rotatable_bonds>  (244) 
2

>  <r_i_docking_score>  (244) 
-3.5203

>  <r_i_glide_ligand_efficiency>  (244) 
-0.185279

>  <r_i_glide_ligand_efficiency_sa>  (244) 
-0.494399

>  <r_i_glide_ligand_efficiency_ln>  (244) 
-0.892472

>  <r_i_glide_gscore>  (244) 
-3.5203

>  <r_i_glide_lipo>  (244) 
-0.447033

>  <r_i_glide_hbond>  (244) 
-0.084095

>  <r_i_glide_metal>  (244) 
-0

>  <r_i_glide_rewards>  (244) 
-1.88818

>  <r_i_glide_evdw>  (244) 
-19.982

>  <r_i_glide_ecoul>  (244) 
-2.33337

>  <r_i_glide_erotb>  (244) 
0.26836

>  <r_i_glide_esite>  (244) 
-0.0202527

>  <r_i_glide_emodel>  (244) 
-28.4654

>  <r_i_glide_energy>  (244) 
-22.3154

>  <r_i_glide_einternal>  (244) 
0.764022

>  <r_i_glide_intrahb_reward>  (244) 
-0

>  <i_i_glide_confnum>  (244) 
4

>  <i_i_glide_posenum>  (244) 
16

>  <r_i_glide_eff_state_penalty>  (244) 
0

>  <ligand_id>  (244) 
66

>  <original_smiles>  (244) 
N#CC1C(=N)OC2=CCCC(=O)C2C1c1cnc[nH]1

>  <smiles>  (244) 
[H]N=C1OC2=C([H])C([H])([H])C([H])([H])C(=O)C2([H])C([H])(c2c([H])nc([H])n2[H])C1([H])C#N

$$$$
66:2:0
     RDKit          3D

 32 34  0  0  1  0  0  0  0  0999 V2000
    7.0852   -2.6275   -1.9181 N   0  0  0  0  0  0  0  0  0  0  0  0
    7.0215   -3.1583   -0.8911 C   0  0  0  0  0  0  0  0  0  0  0  0
    6.9175   -3.8494    0.4046 C   0  0  2  0  0  0  0  0  0  0  0  0
    8.2343   -4.5386    0.7398 C   0  0  0  0  0  0  0  0  0  0  0  0
    9.3675   -3.8440    0.8520 N   0  0  0  0  0  0  0  0  0  0  0  0
    8.2547   -5.6704    1.5172 O   0  0  0  0  0  0  0  0  0  0  0  0
    7.1596   -6.4775    1.5837 C   0  0  0  0  0  0  0  0  0  0  0  0
    7.3369   -7.8127    1.5731 C   0  0  0  0  0  0  0  0  0  0  0  0
    6.2010   -8.8111    1.5327 C   0  0  0  0  0  0  0  0  0  0  0  0
    4.8869   -8.1781    1.0417 C   0  0  0  0  0  0  0  0  0  0  0  0
    4.6546   -6.7935    1.6595 C   0  0  0  0  0  0  0  0  0  0  0  0
    3.5746   -6.4965    2.1632 O   0  0  0  0  0  0  0  0  0  0  0  0
    5.8063   -5.7677    1.5983 C   0  0  2  0  0  0  0  0  0  0  0  0
    5.7111   -4.8123    0.3955 C   0  0  1  0  0  0  0  0  0  0  0  0
    4.4203   -4.0468    0.3178 C   0  0  0  0  0  0  0  0  0  0  0  0
    3.8792   -3.0457    1.0918 C   0  0  0  0  0  0  0  0  0  0  0  0
    2.6862   -2.6993    0.5080 N   0  0  0  0  0  0  0  0  0  0  0  0
    2.4703   -3.4477   -0.5755 C   0  0  0  0  0  0  0  0  0  0  0  0
    3.5153   -4.2636   -0.6950 N   0  0  0  0  0  0  0  0  0  0  0  0
    3.5773   -4.9494   -1.4519 H   0  0  0  0  0  0  0  0  0  0  0  0
    9.1922   -2.8940    0.5064 H   0  0  0  0  0  0  0  0  0  0  0  0
    8.3373   -8.2165    1.5531 H   0  0  0  0  0  0  0  0  0  0  0  0
    6.4814   -9.6213    0.8581 H   0  0  0  0  0  0  0  0  0  0  0  0
    6.0847   -9.2453    2.5262 H   0  0  0  0  0  0  0  0  0  0  0  0
    4.9177   -8.0466   -0.0387 H   0  0  0  0  0  0  0  0  0  0  0  0
    4.0464   -8.8381    1.2478 H   0  0  0  0  0  0  0  0  0  0  0  0
    5.7550   -5.1812    2.5207 H   0  0  0  0  0  0  0  0  0  0  0  0
    5.7728   -5.4135   -0.5104 H   0  0  0  0  0  0  0  0  0  0  0  0
    4.2510   -2.5426    1.9823 H   0  0  0  0  0  0  0  0  0  0  0  0
    1.6328   -3.3686   -1.2386 H   0  0  0  0  0  0  0  0  0  0  0  0
    6.7708   -3.0757    1.1574 H   0  0  0  0  0  0  0  0  0  0  0  0
    2.0604   -1.9492    0.7944 H   0  0  0  0  0  0  0  0  0  0  0  0
  1  2  3  0
  2  3  1  0
  3 14  1  0
  3  4  1  0
  3 31  1  1
  4  5  1  0
  4  6  1  0
  5 21  1  0
  6  7  1  0
  7 13  1  0
  7  8  2  0
  8  9  1  0
  8 22  1  0
  9 10  1  0
  9 23  1  0
  9 24  1  0
 10 11  1  0
 10 25  1  0
 10 26  1  0
 11 12  2  0
 11 13  1  0
 13 14  1  0
 13 27  1  1
 14 15  1  0
 14 28  1  6
 15 19  1  0
 15 16  2  0
 16 17  1  0
 16 29  1  0
 17 18  2  0
 17 32  1  0
 18 19  1  0
 18 30  1  0
 19 20  1  0
M  CHG  3   4   1   5  -1  17   1
M  END
>  <i_m_ct_stereo_status>  (245) 
1

>  <s_m_source_file>  (245) 
/var/tmp/pbs.5076255.sched01/tmp0pz6dnip/90w4u7_w6b.sdf

>  <i_m_source_file_index>  (245) 
14

>  <i_lp_mmshare_version>  (245) 
48012

>  <i_f3d_flags>  (245) 
0

>  <s_epik_input>  (245) 
W25IXTFbY0hdbltjSF1jMVtDQEBIXShbQ0BIXShDI04pL0MoTzIpPU4vW0hdKVtDQEhdKEMyPTMpQyg9TylbQ0gyXVtDSDJdW0NIXTM=

>  <s_epik_cmdline>  (245) 
J2VwaWtfcHl0aG9uJywgJy1waHQnLCAnMi4wJywgJy1waCcsICc3LjAnLCAnLXRuJywgJzgnLCAnLW1hJywgJzIwMCcsICctaW1hZScsICc8aW5maWxlLm1hZT4nLCAnLW9tYWUnLCAnPG91dGZpbGUubWFlPic=

>  <r_lp_tautomer_probability>  (245) 
0.99995

>  <r_epik_Ionization_Penalty>  (245) 
0.483022

>  <r_epik_Ionization_Penalty_Charging>  (245) 
0

>  <r_epik_Ionization_Penalty_Neutral>  (245) 
0.483022

>  <r_epik_State_Penalty>  (245) 
1.11641

>  <r_epik_Charging_Adjusted_Penalty>  (245) 
1.11641

>  <i_epik_Tot_Q>  (245) 
1

>  <i_epik_Tot_abs_Q>  (245) 
3

>  <s_lp_Force_Field>  (245) 
OPLS3e

>  <r_lp_Energy>  (245) 
13.8835

>  <b_lp_Chiralities_Consistent>  (245) 
1

>  <s_lp_Variant>  (245) 
66:0-3

>  <s_i_glide_gridfile>  (245) 
pfpi4k_grid

>  <i_i_glide_lignum>  (245) 
14

>  <i_i_glide_rotatable_bonds>  (245) 
2

>  <r_i_docking_score>  (245) 
-5.14225

>  <r_i_glide_ligand_efficiency>  (245) 
-0.270645

>  <r_i_glide_ligand_efficiency_sa>  (245) 
-0.722189

>  <r_i_glide_ligand_efficiency_ln>  (245) 
-1.30367

>  <r_i_glide_gscore>  (245) 
-5.14225

>  <r_i_glide_lipo>  (245) 
-0.681829

>  <r_i_glide_hbond>  (245) 
-0.208034

>  <r_i_glide_metal>  (245) 
-0

>  <r_i_glide_rewards>  (245) 
-1.8591

>  <r_i_glide_evdw>  (245) 
-16.6105

>  <r_i_glide_ecoul>  (245) 
-11.31

>  <r_i_glide_erotb>  (245) 
0.266555

>  <r_i_glide_esite>  (245) 
-0.132815

>  <r_i_glide_emodel>  (245) 
-38.5885

>  <r_i_glide_energy>  (245) 
-27.9205

>  <r_i_glide_einternal>  (245) 
0.75307

>  <r_i_glide_intrahb_reward>  (245) 
-0

>  <i_i_glide_confnum>  (245) 
4

>  <i_i_glide_posenum>  (245) 
1

>  <r_i_glide_eff_state_penalty>  (245) 
0

>  <ligand_id>  (245) 
66

>  <original_smiles>  (245) 
N#CC1C(=N)OC2=CCCC(=O)C2C1c1cnc[nH]1

>  <smiles>  (245) 
[H][N-][C+]1OC2=C([H])C([H])([H])C([H])([H])C(=O)C2([H])C([H])(c2c([H])[n+]([H])c([H])n2[H])C1([H])C#N

$$$$
66:2:1
     RDKit          3D

 32 34  0  0  1  0  0  0  0  0999 V2000
    5.9717   -0.6537    2.5816 N   0  0  0  0  0  0  0  0  0  0  0  0
    5.8125   -1.5678    1.8928 C   0  0  0  0  0  0  0  0  0  0  0  0
    5.5666   -2.7244    1.0270 C   0  0  2  0  0  0  0  0  0  0  0  0
    6.6931   -2.9212    0.0163 C   0  0  0  0  0  0  0  0  0  0  0  0
    7.8790   -3.3669    0.4390 N   0  0  0  0  0  0  0  0  0  0  0  0
    6.4194   -3.4474   -1.2194 O   0  0  0  0  0  0  0  0  0  0  0  0
    5.1710   -3.3958   -1.7499 C   0  0  0  0  0  0  0  0  0  0  0  0
    5.0401   -3.1634   -3.0666 C   0  0  0  0  0  0  0  0  0  0  0  0
    3.7189   -2.9418   -3.7675 C   0  0  0  0  0  0  0  0  0  0  0  0
    2.6140   -2.5631   -2.7804 C   0  0  0  0  0  0  0  0  0  0  0  0
    2.6704   -3.4216   -1.5134 C   0  0  0  0  0  0  0  0  0  0  0  0
    1.6777   -4.0208   -1.1151 O   0  0  0  0  0  0  0  0  0  0  0  0
    4.0160   -3.5472   -0.7648 C   0  0  2  0  0  0  0  0  0  0  0  0
    4.1868   -2.5365    0.3826 C   0  0  1  0  0  0  0  0  0  0  0  0
    3.1192   -2.6057    1.4314 C   0  0  0  0  0  0  0  0  0  0  0  0
    2.7616   -3.5850    2.3468 C   0  0  0  0  0  0  0  0  0  0  0  0
    1.7285   -3.0590    3.0871 N   0  0  0  0  0  0  0  0  0  0  0  0
    1.4425   -1.8205    2.6717 C   0  0  0  0  0  0  0  0  0  0  0  0
    2.2731   -1.5407    1.6580 N   0  0  0  0  0  0  0  0  0  0  0  0
    2.1830   -0.7074    1.0807 H   0  0  0  0  0  0  0  0  0  0  0  0
    7.9989   -3.0097    1.4003 H   0  0  0  0  0  0  0  0  0  0  0  0
    5.9322   -3.0966   -3.6663 H   0  0  0  0  0  0  0  0  0  0  0  0
    3.8502   -2.1302   -4.4761 H   0  0  0  0  0  0  0  0  0  0  0  0
    3.4732   -3.8525   -4.3115 H   0  0  0  0  0  0  0  0  0  0  0  0
    2.7070   -1.5199   -2.4841 H   0  0  0  0  0  0  0  0  0  0  0  0
    1.6464   -2.6775   -3.2527 H   0  0  0  0  0  0  0  0  0  0  0  0
    4.0709   -4.5662   -0.3517 H   0  0  0  0  0  0  0  0  0  0  0  0
    4.1329   -1.5356   -0.0458 H   0  0  0  0  0  0  0  0  0  0  0  0
    3.1489   -4.5898    2.5021 H   0  0  0  0  0  0  0  0  0  0  0  0
    0.6485   -1.1916    3.0124 H   0  0  0  0  0  0  0  0  0  0  0  0
    5.5573   -3.6115    1.6691 H   0  0  0  0  0  0  0  0  0  0  0  0
    1.2057   -3.5456    3.8058 H   0  0  0  0  0  0  0  0  0  0  0  0
  1  2  3  0
  2  3  1  0
  3 14  1  0
  3  4  1  0
  3 31  1  1
  4  5  1  0
  4  6  1  0
  5 21  1  0
  6  7  1  0
  7 13  1  0
  7  8  2  0
  8  9  1  0
  8 22  1  0
  9 10  1  0
  9 23  1  0
  9 24  1  0
 10 11  1  0
 10 25  1  0
 10 26  1  0
 11 12  2  0
 11 13  1  0
 13 14  1  0
 13 27  1  1
 14 15  1  0
 14 28  1  6
 15 19  1  0
 15 16  2  0
 16 17  1  0
 16 29  1  0
 17 18  2  0
 17 32  1  0
 18 19  1  0
 18 30  1  0
 19 20  1  0
M  CHG  3   4   1   5  -1  17   1
M  END
>  <i_m_ct_stereo_status>  (246) 
1

>  <s_m_source_file>  (246) 
/var/tmp/pbs.5076255.sched01/tmp0pz6dnip/90w4u7_w6b.sdf

>  <i_m_source_file_index>  (246) 
14

>  <i_lp_mmshare_version>  (246) 
48012

>  <i_f3d_flags>  (246) 
0

>  <s_epik_input>  (246) 
W25IXTFbY0hdbltjSF1jMVtDQEBIXShbQ0BIXShDI04pL0MoTzIpPU4vW0hdKVtDQEhdKEMyPTMpQyg9TylbQ0gyXVtDSDJdW0NIXTM=

>  <s_epik_cmdline>  (246) 
J2VwaWtfcHl0aG9uJywgJy1waHQnLCAnMi4wJywgJy1waCcsICc3LjAnLCAnLXRuJywgJzgnLCAnLW1hJywgJzIwMCcsICctaW1hZScsICc8aW5maWxlLm1hZT4nLCAnLW9tYWUnLCAnPG91dGZpbGUubWFlPic=

>  <r_lp_tautomer_probability>  (246) 
0.99995

>  <r_epik_Ionization_Penalty>  (246) 
0.483022

>  <r_epik_Ionization_Penalty_Charging>  (246) 
0

>  <r_epik_Ionization_Penalty_Neutral>  (246) 
0.483022

>  <r_epik_State_Penalty>  (246) 
1.11641

>  <r_epik_Charging_Adjusted_Penalty>  (246) 
1.11641

>  <i_epik_Tot_Q>  (246) 
1

>  <i_epik_Tot_abs_Q>  (246) 
3

>  <s_lp_Force_Field>  (246) 
OPLS3e

>  <r_lp_Energy>  (246) 
13.8835

>  <b_lp_Chiralities_Consistent>  (246) 
1

>  <s_lp_Variant>  (246) 
66:0-3

>  <s_i_glide_gridfile>  (246) 
pfpi4k_grid

>  <i_i_glide_lignum>  (246) 
14

>  <i_i_glide_rotatable_bonds>  (246) 
2

>  <r_i_docking_score>  (246) 
-4.3676

>  <r_i_glide_ligand_efficiency>  (246) 
-0.229874

>  <r_i_glide_ligand_efficiency_sa>  (246) 
-0.613396

>  <r_i_glide_ligand_efficiency_ln>  (246) 
-1.10728

>  <r_i_glide_gscore>  (246) 
-4.3676

>  <r_i_glide_lipo>  (246) 
-0.604859

>  <r_i_glide_hbond>  (246) 
-0.0144211

>  <r_i_glide_metal>  (246) 
-0

>  <r_i_glide_rewards>  (246) 
-1.99476

>  <r_i_glide_evdw>  (246) 
-21.5332

>  <r_i_glide_ecoul>  (246) 
-5.75701

>  <r_i_glide_erotb>  (246) 
0.266555

>  <r_i_glide_esite>  (246) 
-0.0799067

>  <r_i_glide_emodel>  (246) 
-36.3503

>  <r_i_glide_energy>  (246) 
-27.2902

>  <r_i_glide_einternal>  (246) 
0.768779

>  <r_i_glide_intrahb_reward>  (246) 
-0

>  <i_i_glide_confnum>  (246) 
5

>  <i_i_glide_posenum>  (246) 
8

>  <r_i_glide_eff_state_penalty>  (246) 
0

>  <ligand_id>  (246) 
66

>  <original_smiles>  (246) 
N#CC1C(=N)OC2=CCCC(=O)C2C1c1cnc[nH]1

>  <smiles>  (246) 
[H][N-][C+]1OC2=C([H])C([H])([H])C([H])([H])C(=O)C2([H])C([H])(c2c([H])[n+]([H])c([H])n2[H])C1([H])C#N

$$$$
66:2:2
     RDKit          3D

 32 34  0  0  1  0  0  0  0  0999 V2000
    5.7731   -0.2804    2.8450 N   0  0  0  0  0  0  0  0  0  0  0  0
    5.7622   -1.1985    2.1419 C   0  0  0  0  0  0  0  0  0  0  0  0
    5.7221   -2.3786    1.2609 C   0  0  2  0  0  0  0  0  0  0  0  0
    6.4997   -2.1303   -0.0252 C   0  0  0  0  0  0  0  0  0  0  0  0
    7.8091   -1.8675   -0.0067 N   0  0  0  0  0  0  0  0  0  0  0  0
    6.1510   -2.7341   -1.2018 O   0  0  0  0  0  0  0  0  0  0  0  0
    4.8727   -3.1634   -1.3968 C   0  0  0  0  0  0  0  0  0  0  0  0
    4.3172   -2.9718   -2.6092 C   0  0  0  0  0  0  0  0  0  0  0  0
    2.8843   -3.3082   -2.9401 C   0  0  0  0  0  0  0  0  0  0  0  0
    2.0474   -3.4833   -1.6669 C   0  0  0  0  0  0  0  0  0  0  0  0
    2.7591   -4.2124   -0.5206 C   0  0  0  0  0  0  0  0  0  0  0  0
    2.1865   -5.0752    0.1394 O   0  0  0  0  0  0  0  0  0  0  0  0
    4.1929   -3.7814   -0.1740 C   0  0  2  0  0  0  0  0  0  0  0  0
    4.2573   -2.7916    1.0055 C   0  0  1  0  0  0  0  0  0  0  0  0
    3.6136   -3.3050    2.2664 C   0  0  0  0  0  0  0  0  0  0  0  0
    3.9687   -4.2936    3.1621 C   0  0  0  0  0  0  0  0  0  0  0  0
    3.0110   -4.2994    4.1409 N   0  0  0  0  0  0  0  0  0  0  0  0
    2.0879   -3.3682    3.8931 C   0  0  0  0  0  0  0  0  0  0  0  0
    2.4496   -2.7635    2.7567 N   0  0  0  0  0  0  0  0  0  0  0  0
    1.9319   -2.0013    2.3357 H   0  0  0  0  0  0  0  0  0  0  0  0
    8.0721   -1.6417    0.9595 H   0  0  0  0  0  0  0  0  0  0  0  0
    4.9004   -2.5228   -3.4010 H   0  0  0  0  0  0  0  0  0  0  0  0
    2.4673   -2.5050   -3.5496 H   0  0  0  0  0  0  0  0  0  0  0  0
    2.8713   -4.2044   -3.5603 H   0  0  0  0  0  0  0  0  0  0  0  0
    1.8522   -2.5102   -1.2782 H   0  0  0  0  0  0  0  0  0  0  0  0
    1.0873   -3.9452   -1.8981 H   0  0  0  0  0  0  0  0  0  0  0  0
    4.7427   -4.6887    0.0856 H   0  0  0  0  0  0  0  0  0  0  0  0
    3.7098   -1.8944    0.7100 H   0  0  0  0  0  0  0  0  0  0  0  0
    4.8134   -4.9723    3.1757 H   0  0  0  0  0  0  0  0  0  0  0  0
    1.2319   -3.1424    4.4951 H   0  0  0  0  0  0  0  0  0  0  0  0
    6.2429   -3.1840    1.7814 H   0  0  0  0  0  0  0  0  0  0  0  0
    3.0009   -4.9117    4.9472 H   0  0  0  0  0  0  0  0  0  0  0  0
  1  2  3  0
  2  3  1  0
  3 14  1  0
  3  4  1  0
  3 31  1  1
  4  5  1  0
  4  6  1  0
  5 21  1  0
  6  7  1  0
  7 13  1  0
  7  8  2  0
  8  9  1  0
  8 22  1  0
  9 10  1  0
  9 23  1  0
  9 24  1  0
 10 11  1  0
 10 25  1  0
 10 26  1  0
 11 12  2  0
 11 13  1  0
 13 14  1  0
 13 27  1  1
 14 15  1  0
 14 28  1  6
 15 19  1  0
 15 16  2  0
 16 17  1  0
 16 29  1  0
 17 18  2  0
 17 32  1  0
 18 19  1  0
 18 30  1  0
 19 20  1  0
M  CHG  3   4   1   5  -1  17   1
M  END
>  <i_m_ct_stereo_status>  (247) 
1

>  <s_m_source_file>  (247) 
/var/tmp/pbs.5076255.sched01/tmp0pz6dnip/90w4u7_w6b.sdf

>  <i_m_source_file_index>  (247) 
14

>  <i_lp_mmshare_version>  (247) 
48012

>  <i_f3d_flags>  (247) 
0

>  <s_epik_input>  (247) 
W25IXTFbY0hdbltjSF1jMVtDQEBIXShbQ0BIXShDI04pL0MoTzIpPU4vW0hdKVtDQEhdKEMyPTMpQyg9TylbQ0gyXVtDSDJdW0NIXTM=

>  <s_epik_cmdline>  (247) 
J2VwaWtfcHl0aG9uJywgJy1waHQnLCAnMi4wJywgJy1waCcsICc3LjAnLCAnLXRuJywgJzgnLCAnLW1hJywgJzIwMCcsICctaW1hZScsICc8aW5maWxlLm1hZT4nLCAnLW9tYWUnLCAnPG91dGZpbGUubWFlPic=

>  <r_lp_tautomer_probability>  (247) 
0.99995

>  <r_epik_Ionization_Penalty>  (247) 
0.483022

>  <r_epik_Ionization_Penalty_Charging>  (247) 
0

>  <r_epik_Ionization_Penalty_Neutral>  (247) 
0.483022

>  <r_epik_State_Penalty>  (247) 
1.11641

>  <r_epik_Charging_Adjusted_Penalty>  (247) 
1.11641

>  <i_epik_Tot_Q>  (247) 
1

>  <i_epik_Tot_abs_Q>  (247) 
3

>  <s_lp_Force_Field>  (247) 
OPLS3e

>  <r_lp_Energy>  (247) 
13.8835

>  <b_lp_Chiralities_Consistent>  (247) 
1

>  <s_lp_Variant>  (247) 
66:0-3

>  <s_i_glide_gridfile>  (247) 
pfpi4k_grid

>  <i_i_glide_lignum>  (247) 
14

>  <i_i_glide_rotatable_bonds>  (247) 
2

>  <r_i_docking_score>  (247) 
-4.26491

>  <r_i_glide_ligand_efficiency>  (247) 
-0.224469

>  <r_i_glide_ligand_efficiency_sa>  (247) 
-0.598974

>  <r_i_glide_ligand_efficiency_ln>  (247) 
-1.08125

>  <r_i_glide_gscore>  (247) 
-4.26491

>  <r_i_glide_lipo>  (247) 
-0.287749

>  <r_i_glide_hbond>  (247) 
-0.220853

>  <r_i_glide_metal>  (247) 
-0

>  <r_i_glide_rewards>  (247) 
-1.83109

>  <r_i_glide_evdw>  (247) 
-13.0957

>  <r_i_glide_ecoul>  (247) 
-9.8932

>  <r_i_glide_erotb>  (247) 
0.266555

>  <r_i_glide_esite>  (247) 
-0.0530111

>  <r_i_glide_emodel>  (247) 
-31.6403

>  <r_i_glide_energy>  (247) 
-22.9889

>  <r_i_glide_einternal>  (247) 
0.741338

>  <r_i_glide_intrahb_reward>  (247) 
-0

>  <i_i_glide_confnum>  (247) 
2

>  <i_i_glide_posenum>  (247) 
13

>  <r_i_glide_eff_state_penalty>  (247) 
0

>  <ligand_id>  (247) 
66

>  <original_smiles>  (247) 
N#CC1C(=N)OC2=CCCC(=O)C2C1c1cnc[nH]1

>  <smiles>  (247) 
[H][N-][C+]1OC2=C([H])C([H])([H])C([H])([H])C(=O)C2([H])C([H])(c2c([H])[n+]([H])c([H])n2[H])C1([H])C#N

$$$$
66:3:0
     RDKit          3D

 31 33  0  0  1  0  0  0  0  0999 V2000
    7.2660   -2.8983   -1.0476 N   0  0  0  0  0  0  0  0  0  0  0  0
    7.0193   -3.5514   -0.1204 C   0  0  0  0  0  0  0  0  0  0  0  0
    6.6970   -4.3772    1.0639 C   0  0  2  0  0  0  0  0  0  0  0  0
    7.7424   -5.4896    1.2704 C   0  0  0  0  0  0  0  0  0  0  0  0
    8.9207   -5.4458    0.8202 N   0  0  0  0  0  0  0  0  0  0  0  0
    7.3671   -6.5804    2.0199 O   0  0  0  0  0  0  0  0  0  0  0  0
    6.0536   -6.9701    2.0582 C   0  0  0  0  0  0  0  0  0  0  0  0
    5.7808   -8.2862    1.9956 C   0  0  0  0  0  0  0  0  0  0  0  0
    4.3780   -8.8532    1.9794 C   0  0  0  0  0  0  0  0  0  0  0  0
    3.3431   -7.7998    1.5484 C   0  0  0  0  0  0  0  0  0  0  0  0
    3.5821   -6.4482    2.2204 C   0  0  0  0  0  0  0  0  0  0  0  0
    2.6588   -5.8511    2.7710 O   0  0  0  0  0  0  0  0  0  0  0  0
    5.0064   -5.8596    2.1600 C   0  0  2  0  0  0  0  0  0  0  0  0
    5.2384   -4.8743    1.0114 C   0  0  1  0  0  0  0  0  0  0  0  0
    4.2609   -3.7233    0.9994 C   0  0  0  0  0  0  0  0  0  0  0  0
    3.3415   -3.3899    0.0296 C   0  0  0  0  0  0  0  0  0  0  0  0
    2.6915   -2.2549    0.4922 N   0  0  0  0  0  0  0  0  0  0  0  0
    3.2252   -1.9574    1.6822 C   0  0  0  0  0  0  0  0  0  0  0  0
    4.1865   -2.8041    2.0474 N   0  0  0  0  0  0  0  0  0  0  0  0
    1.9658   -1.7222    0.0025 H   0  0  0  0  0  0  0  0  0  0  0  0
    6.7995   -3.7021    1.9146 H   0  0  0  0  0  0  0  0  0  0  0  0
    9.4267   -6.2917    1.0707 H   0  0  0  0  0  0  0  0  0  0  0  0
    6.5860   -9.0054    1.9405 H   0  0  0  0  0  0  0  0  0  0  0  0
    4.3504   -9.6926    1.2834 H   0  0  0  0  0  0  0  0  0  0  0  0
    4.1450   -9.2507    2.9682 H   0  0  0  0  0  0  0  0  0  0  0  0
    3.4222   -7.6323    0.4807 H   0  0  0  0  0  0  0  0  0  0  0  0
    2.3283   -8.1527    1.7477 H   0  0  0  0  0  0  0  0  0  0  0  0
    5.1711   -5.3500    3.1110 H   0  0  0  0  0  0  0  0  0  0  0  0
    5.1256   -5.4300    0.0809 H   0  0  0  0  0  0  0  0  0  0  0  0
    3.1090   -3.8479   -0.9218 H   0  0  0  0  0  0  0  0  0  0  0  0
    2.9150   -1.1127    2.2801 H   0  0  0  0  0  0  0  0  0  0  0  0
  1  2  3  0
  2  3  1  0
  3 14  1  0
  3  4  1  0
  3 21  1  1
  4  5  2  3
  4  6  1  0
  5 22  1  0
  6  7  1  0
  7 13  1  0
  7  8  2  0
  8  9  1  0
  8 23  1  0
  9 10  1  0
  9 24  1  0
  9 25  1  0
 10 11  1  0
 10 26  1  0
 10 27  1  0
 11 12  2  0
 11 13  1  0
 13 14  1  0
 13 28  1  1
 14 29  1  6
 14 15  1  0
 15 16  2  0
 15 19  1  0
 16 30  1  0
 16 17  1  0
 17 20  1  0
 17 18  1  0
 18 31  1  0
 18 19  2  0
M  END
>  <i_m_ct_stereo_status>  (248) 
1

>  <s_m_source_file>  (248) 
/var/tmp/pbs.5076255.sched01/tmp0pz6dnip/90w4u7_w6b.sdf

>  <i_m_source_file_index>  (248) 
15

>  <i_lp_mmshare_version>  (248) 
48012

>  <i_f3d_flags>  (248) 
0

>  <s_epik_input>  (248) 
W25IXTFbY0hdbltjSF1jMVtDQEBIXShbQ0BIXShDI04pL0MoTzIpPU4vW0hdKVtDQEhdKEMyPTMpQyg9TylbQ0gyXVtDSDJdW0NIXTM=

>  <s_epik_cmdline>  (248) 
J2VwaWtfcHl0aG9uJywgJy1waHQnLCAnMi4wJywgJy1waCcsICc3LjAnLCAnLXRuJywgJzgnLCAnLW1hJywgJzIwMCcsICctaW1hZScsICc8aW5maWxlLm1hZT4nLCAnLW9tYWUnLCAnPG91dGZpbGUubWFlPic=

>  <r_lp_tautomer_probability>  (248) 
0.499975

>  <r_epik_Ionization_Penalty>  (248) 
0.160293

>  <r_epik_Ionization_Penalty_Charging>  (248) 
0.105736

>  <r_epik_Ionization_Penalty_Neutral>  (248) 
0.0545576

>  <r_epik_State_Penalty>  (248) 
1.2911

>  <r_epik_Charging_Adjusted_Penalty>  (248) 
1.39684

>  <i_epik_Tot_Q>  (248) 
0

>  <i_epik_Tot_abs_Q>  (248) 
0

>  <s_epik_Chemistry_Notes>  (248) 
This compound has an imine and may undergo hydrolysis.

>  <s_lp_Force_Field>  (248) 
OPLS3e

>  <r_lp_Energy>  (248) 
6.54889

>  <b_lp_Chiralities_Consistent>  (248) 
1

>  <s_lp_Variant>  (248) 
66:0-4

>  <s_i_glide_gridfile>  (248) 
pfpi4k_grid

>  <i_i_glide_lignum>  (248) 
15

>  <i_i_glide_rotatable_bonds>  (248) 
2

>  <r_i_docking_score>  (248) 
-4.35053

>  <r_i_glide_ligand_efficiency>  (248) 
-0.228975

>  <r_i_glide_ligand_efficiency_sa>  (248) 
-0.610998

>  <r_i_glide_ligand_efficiency_ln>  (248) 
-1.10295

>  <r_i_glide_gscore>  (248) 
-4.35053

>  <r_i_glide_lipo>  (248) 
-0.323451

>  <r_i_glide_hbond>  (248) 
-0.276906

>  <r_i_glide_metal>  (248) 
-0

>  <r_i_glide_rewards>  (248) 
-1.9823

>  <r_i_glide_evdw>  (248) 
-17.8979

>  <r_i_glide_ecoul>  (248) 
-7.03777

>  <r_i_glide_erotb>  (248) 
0.26836

>  <r_i_glide_esite>  (248) 
-0.0856787

>  <r_i_glide_emodel>  (248) 
-33.0264

>  <r_i_glide_energy>  (248) 
-24.9357

>  <r_i_glide_einternal>  (248) 
0.69647

>  <r_i_glide_intrahb_reward>  (248) 
-0

>  <i_i_glide_confnum>  (248) 
6

>  <i_i_glide_posenum>  (248) 
8

>  <r_i_glide_eff_state_penalty>  (248) 
0

>  <ligand_id>  (248) 
66

>  <original_smiles>  (248) 
N#CC1C(=N)OC2=CCCC(=O)C2C1c1cnc[nH]1

>  <smiles>  (248) 
[H]N=C1OC2=C([H])C([H])([H])C([H])([H])C(=O)C2([H])C([H])(c2nc([H])n([H])c2[H])C1([H])C#N

$$$$
66:3:1
     RDKit          3D

 31 33  0  0  1  0  0  0  0  0999 V2000
    5.7958   -0.2784    2.9814 N   0  0  0  0  0  0  0  0  0  0  0  0
    5.6994   -1.1576    2.2320 C   0  0  0  0  0  0  0  0  0  0  0  0
    5.5673   -2.2786    1.2831 C   0  0  2  0  0  0  0  0  0  0  0  0
    6.7233   -2.2905    0.2711 C   0  0  0  0  0  0  0  0  0  0  0  0
    7.8449   -1.7525    0.4764 N   0  0  0  0  0  0  0  0  0  0  0  0
    6.5235   -2.9692   -0.9109 O   0  0  0  0  0  0  0  0  0  0  0  0
    5.2603   -3.0541   -1.4372 C   0  0  0  0  0  0  0  0  0  0  0  0
    5.1083   -2.8824   -2.7628 C   0  0  0  0  0  0  0  0  0  0  0  0
    3.7704   -2.9073   -3.4674 C   0  0  0  0  0  0  0  0  0  0  0  0
    2.6138   -2.6598   -2.4884 C   0  0  0  0  0  0  0  0  0  0  0  0
    2.7737   -3.4520   -1.1855 C   0  0  0  0  0  0  0  0  0  0  0  0
    1.8523   -4.1414   -0.7358 O   0  0  0  0  0  0  0  0  0  0  0  0
    4.1248   -3.3408   -0.4553 C   0  0  2  0  0  0  0  0  0  0  0  0
    4.1661   -2.2832    0.6509 C   0  0  1  0  0  0  0  0  0  0  0  0
    3.0939   -2.4632    1.7005 C   0  0  0  0  0  0  0  0  0  0  0  0
    2.1104   -1.5748    2.0734 C   0  0  0  0  0  0  0  0  0  0  0  0
    1.3920   -2.2094    3.0740 N   0  0  0  0  0  0  0  0  0  0  0  0
    1.9426   -3.4099    3.2618 C   0  0  0  0  0  0  0  0  0  0  0  0
    2.9872   -3.6282    2.4676 N   0  0  0  0  0  0  0  0  0  0  0  0
    0.5777   -1.8383    3.5429 H   0  0  0  0  0  0  0  0  0  0  0  0
    5.6778   -3.1799    1.8891 H   0  0  0  0  0  0  0  0  0  0  0  0
    8.5060   -1.9042   -0.2721 H   0  0  0  0  0  0  0  0  0  0  0  0
    5.9715   -2.7077   -3.3842 H   0  0  0  0  0  0  0  0  0  0  0  0
    3.7683   -2.1322   -4.2337 H   0  0  0  0  0  0  0  0  0  0  0  0
    3.6575   -3.8680   -3.9707 H   0  0  0  0  0  0  0  0  0  0  0  0
    2.5861   -1.6019   -2.2261 H   0  0  0  0  0  0  0  0  0  0  0  0
    1.6561   -2.8982   -2.9541 H   0  0  0  0  0  0  0  0  0  0  0  0
    4.3239   -4.3206   -0.0172 H   0  0  0  0  0  0  0  0  0  0  0  0
    4.0256   -1.3091    0.1779 H   0  0  0  0  0  0  0  0  0  0  0  0
    1.8653   -0.5869    1.7004 H   0  0  0  0  0  0  0  0  0  0  0  0
    1.5657   -4.1327    3.9737 H   0  0  0  0  0  0  0  0  0  0  0  0
  1  2  3  0
  2  3  1  0
  3 14  1  0
  3  4  1  0
  3 21  1  1
  4  5  2  3
  4  6  1  0
  5 22  1  0
  6  7  1  0
  7 13  1  0
  7  8  2  0
  8  9  1  0
  8 23  1  0
  9 10  1  0
  9 24  1  0
  9 25  1  0
 10 11  1  0
 10 26  1  0
 10 27  1  0
 11 12  2  0
 11 13  1  0
 13 14  1  0
 13 28  1  1
 14 29  1  6
 14 15  1  0
 15 16  2  0
 15 19  1  0
 16 30  1  0
 16 17  1  0
 17 20  1  0
 17 18  1  0
 18 31  1  0
 18 19  2  0
M  END
>  <i_m_ct_stereo_status>  (249) 
1

>  <s_m_source_file>  (249) 
/var/tmp/pbs.5076255.sched01/tmp0pz6dnip/90w4u7_w6b.sdf

>  <i_m_source_file_index>  (249) 
15

>  <i_lp_mmshare_version>  (249) 
48012

>  <i_f3d_flags>  (249) 
0

>  <s_epik_input>  (249) 
W25IXTFbY0hdbltjSF1jMVtDQEBIXShbQ0BIXShDI04pL0MoTzIpPU4vW0hdKVtDQEhdKEMyPTMpQyg9TylbQ0gyXVtDSDJdW0NIXTM=

>  <s_epik_cmdline>  (249) 
J2VwaWtfcHl0aG9uJywgJy1waHQnLCAnMi4wJywgJy1waCcsICc3LjAnLCAnLXRuJywgJzgnLCAnLW1hJywgJzIwMCcsICctaW1hZScsICc8aW5maWxlLm1hZT4nLCAnLW9tYWUnLCAnPG91dGZpbGUubWFlPic=

>  <r_lp_tautomer_probability>  (249) 
0.499975

>  <r_epik_Ionization_Penalty>  (249) 
0.160293

>  <r_epik_Ionization_Penalty_Charging>  (249) 
0.105736

>  <r_epik_Ionization_Penalty_Neutral>  (249) 
0.0545576

>  <r_epik_State_Penalty>  (249) 
1.2911

>  <r_epik_Charging_Adjusted_Penalty>  (249) 
1.39684

>  <i_epik_Tot_Q>  (249) 
0

>  <i_epik_Tot_abs_Q>  (249) 
0

>  <s_epik_Chemistry_Notes>  (249) 
This compound has an imine and may undergo hydrolysis.

>  <s_lp_Force_Field>  (249) 
OPLS3e

>  <r_lp_Energy>  (249) 
6.54889

>  <b_lp_Chiralities_Consistent>  (249) 
1

>  <s_lp_Variant>  (249) 
66:0-4

>  <s_i_glide_gridfile>  (249) 
pfpi4k_grid

>  <i_i_glide_lignum>  (249) 
15

>  <i_i_glide_rotatable_bonds>  (249) 
2

>  <r_i_docking_score>  (249) 
-3.83493

>  <r_i_glide_ligand_efficiency>  (249) 
-0.201839

>  <r_i_glide_ligand_efficiency_sa>  (249) 
-0.538587

>  <r_i_glide_ligand_efficiency_ln>  (249) 
-0.972238

>  <r_i_glide_gscore>  (249) 
-3.83493

>  <r_i_glide_lipo>  (249) 
-0.534519

>  <r_i_glide_hbond>  (249) 
-0.0676097

>  <r_i_glide_metal>  (249) 
-0

>  <r_i_glide_rewards>  (249) 
-1.99259

>  <r_i_glide_evdw>  (249) 
-23.4935

>  <r_i_glide_ecoul>  (249) 
-2.22598

>  <r_i_glide_erotb>  (249) 
0.26836

>  <r_i_glide_esite>  (249) 
0

>  <r_i_glide_emodel>  (249) 
-32.7832

>  <r_i_glide_energy>  (249) 
-25.7195

>  <r_i_glide_einternal>  (249) 
0.747324

>  <r_i_glide_intrahb_reward>  (249) 
-0

>  <i_i_glide_confnum>  (249) 
1

>  <i_i_glide_posenum>  (249) 
23

>  <r_i_glide_eff_state_penalty>  (249) 
0

>  <ligand_id>  (249) 
66

>  <original_smiles>  (249) 
N#CC1C(=N)OC2=CCCC(=O)C2C1c1cnc[nH]1

>  <smiles>  (249) 
[H]N=C1OC2=C([H])C([H])([H])C([H])([H])C(=O)C2([H])C([H])(c2nc([H])n([H])c2[H])C1([H])C#N

$$$$
66:3:2
     RDKit          3D

 31 33  0  0  1  0  0  0  0  0999 V2000
    5.7845   -0.3501    2.9813 N   0  0  0  0  0  0  0  0  0  0  0  0
    5.6936   -1.2328    2.2351 C   0  0  0  0  0  0  0  0  0  0  0  0
    5.5732   -2.3630    1.2921 C   0  0  2  0  0  0  0  0  0  0  0  0
    6.7240   -2.3681    0.2740 C   0  0  0  0  0  0  0  0  0  0  0  0
    7.8415   -1.8273    0.4741 N   0  0  0  0  0  0  0  0  0  0  0  0
    6.5254   -3.0433   -0.9072 O   0  0  0  0  0  0  0  0  0  0  0  0
    5.2637   -3.1318   -1.4319 C   0  0  0  0  0  0  0  0  0  0  0  0
    5.1114   -2.9591   -2.7542 C   0  0  0  0  0  0  0  0  0  0  0  0
    3.7711   -2.9840   -3.4606 C   0  0  0  0  0  0  0  0  0  0  0  0
    2.6157   -2.7191   -2.4821 C   0  0  0  0  0  0  0  0  0  0  0  0
    2.7740   -3.4939   -1.1705 C   0  0  0  0  0  0  0  0  0  0  0  0
    1.8612   -4.1853   -0.7196 O   0  0  0  0  0  0  0  0  0  0  0  0
    4.1316   -3.4216   -0.4505 C   0  0  2  0  0  0  0  0  0  0  0  0
    4.1723   -2.3803    0.6662 C   0  0  1  0  0  0  0  0  0  0  0  0
    3.1013   -2.5763    1.7190 C   0  0  0  0  0  0  0  0  0  0  0  0
    2.7220   -3.7079    2.4107 C   0  0  0  0  0  0  0  0  0  0  0  0
    1.6835   -3.3052    3.2393 N   0  0  0  0  0  0  0  0  0  0  0  0
    1.4838   -2.0048    3.0185 C   0  0  0  0  0  0  0  0  0  0  0  0
    2.3153   -1.4990    2.1195 N   0  0  0  0  0  0  0  0  0  0  0  0
    1.1625   -3.8916    3.8743 H   0  0  0  0  0  0  0  0  0  0  0  0
    5.6929   -3.2594    1.8993 H   0  0  0  0  0  0  0  0  0  0  0  0
    8.5015   -1.9750   -0.2729 H   0  0  0  0  0  0  0  0  0  0  0  0
    5.9734   -2.7816   -3.3814 H   0  0  0  0  0  0  0  0  0  0  0  0
    3.7669   -2.2101   -4.2261 H   0  0  0  0  0  0  0  0  0  0  0  0
    3.6552   -3.9452   -3.9625 H   0  0  0  0  0  0  0  0  0  0  0  0
    2.5794   -1.6579   -2.2267 H   0  0  0  0  0  0  0  0  0  0  0  0
    1.6559   -2.9731   -2.9460 H   0  0  0  0  0  0  0  0  0  0  0  0
    4.3208   -4.4091   -0.0307 H   0  0  0  0  0  0  0  0  0  0  0  0
    4.0138   -1.4068    0.1989 H   0  0  0  0  0  0  0  0  0  0  0  0
    3.0929   -4.7267    2.3711 H   0  0  0  0  0  0  0  0  0  0  0  0
    0.7171   -1.4250    3.5098 H   0  0  0  0  0  0  0  0  0  0  0  0
  1  2  3  0
  2  3  1  0
  3 14  1  0
  3  4  1  0
  3 21  1  1
  4  5  2  3
  4  6  1  0
  5 22  1  0
  6  7  1  0
  7 13  1  0
  7  8  2  0
  8  9  1  0
  8 23  1  0
  9 10  1  0
  9 24  1  0
  9 25  1  0
 10 11  1  0
 10 26  1  0
 10 27  1  0
 11 12  2  0
 11 13  1  0
 13 14  1  0
 13 28  1  1
 14 29  1  6
 14 15  1  0
 15 16  2  0
 15 19  1  0
 16 30  1  0
 16 17  1  0
 17 20  1  0
 17 18  1  0
 18 31  1  0
 18 19  2  0
M  END
>  <i_m_ct_stereo_status>  (250) 
1

>  <s_m_source_file>  (250) 
/var/tmp/pbs.5076255.sched01/tmp0pz6dnip/90w4u7_w6b.sdf

>  <i_m_source_file_index>  (250) 
15

>  <i_lp_mmshare_version>  (250) 
48012

>  <i_f3d_flags>  (250) 
0

>  <s_epik_input>  (250) 
W25IXTFbY0hdbltjSF1jMVtDQEBIXShbQ0BIXShDI04pL0MoTzIpPU4vW0hdKVtDQEhdKEMyPTMpQyg9TylbQ0gyXVtDSDJdW0NIXTM=

>  <s_epik_cmdline>  (250) 
J2VwaWtfcHl0aG9uJywgJy1waHQnLCAnMi4wJywgJy1waCcsICc3LjAnLCAnLXRuJywgJzgnLCAnLW1hJywgJzIwMCcsICctaW1hZScsICc8aW5maWxlLm1hZT4nLCAnLW9tYWUnLCAnPG91dGZpbGUubWFlPic=

>  <r_lp_tautomer_probability>  (250) 
0.499975

>  <r_epik_Ionization_Penalty>  (250) 
0.160293

>  <r_epik_Ionization_Penalty_Charging>  (250) 
0.105736

>  <r_epik_Ionization_Penalty_Neutral>  (250) 
0.0545576

>  <r_epik_State_Penalty>  (250) 
1.2911

>  <r_epik_Charging_Adjusted_Penalty>  (250) 
1.39684

>  <i_epik_Tot_Q>  (250) 
0

>  <i_epik_Tot_abs_Q>  (250) 
0

>  <s_epik_Chemistry_Notes>  (250) 
This compound has an imine and may undergo hydrolysis.

>  <s_lp_Force_Field>  (250) 
OPLS3e

>  <r_lp_Energy>  (250) 
6.54889

>  <b_lp_Chiralities_Consistent>  (250) 
1

>  <s_lp_Variant>  (250) 
66:0-4

>  <s_i_glide_gridfile>  (250) 
pfpi4k_grid

>  <i_i_glide_lignum>  (250) 
15

>  <i_i_glide_rotatable_bonds>  (250) 
2

>  <r_i_docking_score>  (250) 
-3.61393

>  <r_i_glide_ligand_efficiency>  (250) 
-0.190207

>  <r_i_glide_ligand_efficiency_sa>  (250) 
-0.507548

>  <r_i_glide_ligand_efficiency_ln>  (250) 
-0.916209

>  <r_i_glide_gscore>  (250) 
-3.61393

>  <r_i_glide_lipo>  (250) 
-0.539699

>  <r_i_glide_hbond>  (250) 
-0.0281663

>  <r_i_glide_metal>  (250) 
-0

>  <r_i_glide_rewards>  (250) 
-1.99108

>  <r_i_glide_evdw>  (250) 
-23.3725

>  <r_i_glide_ecoul>  (250) 
-1.01659

>  <r_i_glide_erotb>  (250) 
0.26836

>  <r_i_glide_esite>  (250) 
-0.00222759

>  <r_i_glide_emodel>  (250) 
-30.075

>  <r_i_glide_energy>  (250) 
-24.3891

>  <r_i_glide_einternal>  (250) 
2.56325

>  <r_i_glide_intrahb_reward>  (250) 
-0

>  <i_i_glide_confnum>  (250) 
5

>  <i_i_glide_posenum>  (250) 
24

>  <r_i_glide_eff_state_penalty>  (250) 
0

>  <ligand_id>  (250) 
66

>  <original_smiles>  (250) 
N#CC1C(=N)OC2=CCCC(=O)C2C1c1cnc[nH]1

>  <smiles>  (250) 
[H]N=C1OC2=C([H])C([H])([H])C([H])([H])C(=O)C2([H])C([H])(c2nc([H])n([H])c2[H])C1([H])C#N

$$$$
66:4:0
     RDKit          3D

 31 33  0  0  1  0  0  0  0  0999 V2000
    5.4684   -0.2740    3.0920 N   0  0  0  0  0  0  0  0  0  0  0  0
    5.4451   -1.1624    2.3508 C   0  0  0  0  0  0  0  0  0  0  0  0
    5.4213   -2.2985    1.4069 C   0  0  2  0  0  0  0  0  0  0  0  0
    6.5166   -2.1469    0.3368 C   0  0  0  0  0  0  0  0  0  0  0  0
    7.5609   -1.4558    0.4791 N   0  0  0  0  0  0  0  0  0  0  0  0
    6.3510   -2.8405   -0.8397 O   0  0  0  0  0  0  0  0  0  0  0  0
    5.0895   -3.0974   -1.3069 C   0  0  0  0  0  0  0  0  0  0  0  0
    4.8560   -2.9343   -2.6232 C   0  0  0  0  0  0  0  0  0  0  0  0
    3.5027   -3.1309   -3.2656 C   0  0  0  0  0  0  0  0  0  0  0  0
    2.3672   -3.0533   -2.2303 C   0  0  0  0  0  0  0  0  0  0  0  0
    2.6935   -3.8113   -0.9381 C   0  0  0  0  0  0  0  0  0  0  0  0
    1.8986   -4.6192   -0.4514 O   0  0  0  0  0  0  0  0  0  0  0  0
    4.0576   -3.5456   -0.2764 C   0  0  2  0  0  0  0  0  0  0  0  0
    4.0044   -2.5072    0.8456 C   0  0  1  0  0  0  0  0  0  0  0  0
    3.0284   -2.8540    1.9453 C   0  0  0  0  0  0  0  0  0  0  0  0
    2.7550   -4.0646    2.5517 C   0  0  0  0  0  0  0  0  0  0  0  0
    1.7570   -3.7973    3.4764 N   0  0  0  0  0  0  0  0  0  0  0  0
    1.4847   -2.4915    3.4035 C   0  0  0  0  0  0  0  0  0  0  0  0
    2.2248   -1.8607    2.5035 N   0  0  0  0  0  0  0  0  0  0  0  0
    1.3201   -4.4660    4.0923 H   0  0  0  0  0  0  0  0  0  0  0  0
    5.6908   -3.1726    1.9977 H   0  0  0  0  0  0  0  0  0  0  0  0
    7.6407   -0.9731    1.3708 H   0  0  0  0  0  0  0  0  0  0  0  0
    5.6553   -2.6463   -3.2865 H   0  0  0  0  0  0  0  0  0  0  0  0
    3.3513   -2.3631   -4.0230 H   0  0  0  0  0  0  0  0  0  0  0  0
    3.4943   -4.0944   -3.7762 H   0  0  0  0  0  0  0  0  0  0  0  0
    2.2165   -2.0069   -1.9554 H   0  0  0  0  0  0  0  0  0  0  0  0
    1.4273   -3.4130   -2.6515 H   0  0  0  0  0  0  0  0  0  0  0  0
    4.4068   -4.4974    0.1273 H   0  0  0  0  0  0  0  0  0  0  0  0
    3.6913   -1.5631    0.3947 H   0  0  0  0  0  0  0  0  0  0  0  0
    3.1717   -5.0509    2.3906 H   0  0  0  0  0  0  0  0  0  0  0  0
    0.7386   -2.0007    4.0098 H   0  0  0  0  0  0  0  0  0  0  0  0
  1  2  3  0
  2  3  1  0
  3 14  1  0
  3  4  1  0
  3 21  1  1
  4  5  2  3
  4  6  1  0
  5 22  1  0
  6  7  1  0
  7 13  1  0
  7  8  2  0
  8  9  1  0
  8 23  1  0
  9 10  1  0
  9 24  1  0
  9 25  1  0
 10 11  1  0
 10 26  1  0
 10 27  1  0
 11 12  2  0
 11 13  1  0
 13 14  1  0
 13 28  1  1
 14 29  1  6
 14 15  1  0
 15 16  2  0
 15 19  1  0
 16 30  1  0
 16 17  1  0
 17 20  1  0
 17 18  1  0
 18 31  1  0
 18 19  2  0
M  END
>  <i_m_ct_stereo_status>  (251) 
1

>  <s_m_source_file>  (251) 
/var/tmp/pbs.5076255.sched01/tmp0pz6dnip/90w4u7_w6b.sdf

>  <i_m_source_file_index>  (251) 
16

>  <i_lp_mmshare_version>  (251) 
48012

>  <i_f3d_flags>  (251) 
0

>  <s_epik_input>  (251) 
W25IXTFbY0hdbltjSF1jMVtDQEBIXShbQ0BIXShDI04pL0MoTzIpPU4vW0hdKVtDQEhdKEMyPTMpQyg9TylbQ0gyXVtDSDJdW0NIXTM=

>  <s_epik_cmdline>  (251) 
J2VwaWtfcHl0aG9uJywgJy1waHQnLCAnMi4wJywgJy1waCcsICc3LjAnLCAnLXRuJywgJzgnLCAnLW1hJywgJzIwMCcsICctaW1hZScsICc8aW5maWxlLm1hZT4nLCAnLW9tYWUnLCAnPG91dGZpbGUubWFlPic=

>  <r_lp_tautomer_probability>  (251) 
0.499975

>  <r_epik_Ionization_Penalty>  (251) 
0.160293

>  <r_epik_Ionization_Penalty_Charging>  (251) 
0.105736

>  <r_epik_Ionization_Penalty_Neutral>  (251) 
0.0545576

>  <r_epik_State_Penalty>  (251) 
1.2911

>  <r_epik_Charging_Adjusted_Penalty>  (251) 
1.39684

>  <i_epik_Tot_Q>  (251) 
0

>  <i_epik_Tot_abs_Q>  (251) 
0

>  <s_epik_Chemistry_Notes>  (251) 
This compound has an imine and may undergo hydrolysis.

>  <s_lp_Force_Field>  (251) 
OPLS3e

>  <r_lp_Energy>  (251) 
6.16126

>  <b_lp_Chiralities_Consistent>  (251) 
1

>  <s_lp_Variant>  (251) 
66:0-5

>  <s_i_glide_gridfile>  (251) 
pfpi4k_grid

>  <i_i_glide_lignum>  (251) 
16

>  <i_i_glide_rotatable_bonds>  (251) 
2

>  <r_i_docking_score>  (251) 
-3.74683

>  <r_i_glide_ligand_efficiency>  (251) 
-0.197201

>  <r_i_glide_ligand_efficiency_sa>  (251) 
-0.526213

>  <r_i_glide_ligand_efficiency_ln>  (251) 
-0.949901

>  <r_i_glide_gscore>  (251) 
-3.74683

>  <r_i_glide_lipo>  (251) 
-0.427847

>  <r_i_glide_hbond>  (251) 
-0.104994

>  <r_i_glide_metal>  (251) 
-0

>  <r_i_glide_rewards>  (251) 
-1.95715

>  <r_i_glide_evdw>  (251) 
-20.5134

>  <r_i_glide_ecoul>  (251) 
-3.18233

>  <r_i_glide_erotb>  (251) 
0.26836

>  <r_i_glide_esite>  (251) 
-0.0221826

>  <r_i_glide_emodel>  (251) 
-28.6576

>  <r_i_glide_energy>  (251) 
-23.6957

>  <r_i_glide_einternal>  (251) 
2.57794

>  <r_i_glide_intrahb_reward>  (251) 
-0

>  <i_i_glide_confnum>  (251) 
4

>  <i_i_glide_posenum>  (251) 
2

>  <r_i_glide_eff_state_penalty>  (251) 
0

>  <ligand_id>  (251) 
66

>  <original_smiles>  (251) 
N#CC1C(=N)OC2=CCCC(=O)C2C1c1cnc[nH]1

>  <smiles>  (251) 
[H]N=C1OC2=C([H])C([H])([H])C([H])([H])C(=O)C2([H])C([H])(c2nc([H])n([H])c2[H])C1([H])C#N

$$$$
66:4:1
     RDKit          3D

 31 33  0  0  1  0  0  0  0  0999 V2000
    6.7879   -1.4539    0.0763 N   0  0  0  0  0  0  0  0  0  0  0  0
    5.7737   -1.7956    0.5218 C   0  0  0  0  0  0  0  0  0  0  0  0
    4.4879   -2.2339    1.0898 C   0  0  2  0  0  0  0  0  0  0  0  0
    4.5593   -2.2623    2.6231 C   0  0  0  0  0  0  0  0  0  0  0  0
    5.3702   -1.5604    3.2930 N   0  0  0  0  0  0  0  0  0  0  0  0
    3.6609   -3.0688    3.2854 O   0  0  0  0  0  0  0  0  0  0  0  0
    3.1677   -4.1981    2.6812 C   0  0  0  0  0  0  0  0  0  0  0  0
    3.0463   -5.3178    3.4196 C   0  0  0  0  0  0  0  0  0  0  0  0
    2.5708   -6.6443    2.8616 C   0  0  0  0  0  0  0  0  0  0  0  0
    2.7302   -6.7132    1.3344 C   0  0  0  0  0  0  0  0  0  0  0  0
    2.2475   -5.4278    0.6745 C   0  0  0  0  0  0  0  0  0  0  0  0
    1.4083   -5.4671   -0.2198 O   0  0  0  0  0  0  0  0  0  0  0  0
    2.8035   -4.0864    1.2034 C   0  0  2  0  0  0  0  0  0  0  0  0
    4.0222   -3.5510    0.4369 C   0  0  1  0  0  0  0  0  0  0  0  0
    3.7918   -3.3490   -1.0427 C   0  0  0  0  0  0  0  0  0  0  0  0
    2.6321   -3.0747   -1.7379 C   0  0  0  0  0  0  0  0  0  0  0  0
    2.9871   -3.0327   -3.0747 N   0  0  0  0  0  0  0  0  0  0  0  0
    4.3001   -3.2579   -3.1351 C   0  0  0  0  0  0  0  0  0  0  0  0
    4.8550   -3.4449   -1.9398 N   0  0  0  0  0  0  0  0  0  0  0  0
    2.3503   -2.8919   -3.8473 H   0  0  0  0  0  0  0  0  0  0  0  0
    3.7696   -1.4501    0.8402 H   0  0  0  0  0  0  0  0  0  0  0  0
    6.0040   -0.9908    2.7487 H   0  0  0  0  0  0  0  0  0  0  0  0
    3.3110   -5.3088    4.4680 H   0  0  0  0  0  0  0  0  0  0  0  0
    3.1582   -7.4412    3.3191 H   0  0  0  0  0  0  0  0  0  0  0  0
    1.5322   -6.8000    3.1594 H   0  0  0  0  0  0  0  0  0  0  0  0
    3.7801   -6.8516    1.0704 H   0  0  0  0  0  0  0  0  0  0  0  0
    2.1799   -7.5669    0.9323 H   0  0  0  0  0  0  0  0  0  0  0  0
    2.0007   -3.3550    1.1335 H   0  0  0  0  0  0  0  0  0  0  0  0
    4.8245   -4.2806    0.5647 H   0  0  0  0  0  0  0  0  0  0  0  0
    1.6091   -2.9570   -1.4113 H   0  0  0  0  0  0  0  0  0  0  0  0
    4.8546   -3.3084   -4.0568 H   0  0  0  0  0  0  0  0  0  0  0  0
  1  2  3  0
  2  3  1  0
  3 14  1  0
  3  4  1  0
  3 21  1  1
  4  5  2  3
  4  6  1  0
  5 22  1  0
  6  7  1  0
  7 13  1  0
  7  8  2  0
  8  9  1  0
  8 23  1  0
  9 10  1  0
  9 24  1  0
  9 25  1  0
 10 11  1  0
 10 26  1  0
 10 27  1  0
 11 12  2  0
 11 13  1  0
 13 14  1  0
 13 28  1  1
 14 29  1  6
 14 15  1  0
 15 16  2  0
 15 19  1  0
 16 30  1  0
 16 17  1  0
 17 20  1  0
 17 18  1  0
 18 31  1  0
 18 19  2  0
M  END
>  <i_m_ct_stereo_status>  (252) 
1

>  <s_m_source_file>  (252) 
/var/tmp/pbs.5076255.sched01/tmp0pz6dnip/90w4u7_w6b.sdf

>  <i_m_source_file_index>  (252) 
16

>  <i_lp_mmshare_version>  (252) 
48012

>  <i_f3d_flags>  (252) 
0

>  <s_epik_input>  (252) 
W25IXTFbY0hdbltjSF1jMVtDQEBIXShbQ0BIXShDI04pL0MoTzIpPU4vW0hdKVtDQEhdKEMyPTMpQyg9TylbQ0gyXVtDSDJdW0NIXTM=

>  <s_epik_cmdline>  (252) 
J2VwaWtfcHl0aG9uJywgJy1waHQnLCAnMi4wJywgJy1waCcsICc3LjAnLCAnLXRuJywgJzgnLCAnLW1hJywgJzIwMCcsICctaW1hZScsICc8aW5maWxlLm1hZT4nLCAnLW9tYWUnLCAnPG91dGZpbGUubWFlPic=

>  <r_lp_tautomer_probability>  (252) 
0.499975

>  <r_epik_Ionization_Penalty>  (252) 
0.160293

>  <r_epik_Ionization_Penalty_Charging>  (252) 
0.105736

>  <r_epik_Ionization_Penalty_Neutral>  (252) 
0.0545576

>  <r_epik_State_Penalty>  (252) 
1.2911

>  <r_epik_Charging_Adjusted_Penalty>  (252) 
1.39684

>  <i_epik_Tot_Q>  (252) 
0

>  <i_epik_Tot_abs_Q>  (252) 
0

>  <s_epik_Chemistry_Notes>  (252) 
This compound has an imine and may undergo hydrolysis.

>  <s_lp_Force_Field>  (252) 
OPLS3e

>  <r_lp_Energy>  (252) 
6.16126

>  <b_lp_Chiralities_Consistent>  (252) 
1

>  <s_lp_Variant>  (252) 
66:0-5

>  <s_i_glide_gridfile>  (252) 
pfpi4k_grid

>  <i_i_glide_lignum>  (252) 
16

>  <i_i_glide_rotatable_bonds>  (252) 
2

>  <r_i_docking_score>  (252) 
-3.65019

>  <r_i_glide_ligand_efficiency>  (252) 
-0.192115

>  <r_i_glide_ligand_efficiency_sa>  (252) 
-0.512641

>  <r_i_glide_ligand_efficiency_ln>  (252) 
-0.925402

>  <r_i_glide_gscore>  (252) 
-3.65019

>  <r_i_glide_lipo>  (252) 
-0.0857868

>  <r_i_glide_hbond>  (252) 
-0.286415

>  <r_i_glide_metal>  (252) 
-0

>  <r_i_glide_rewards>  (252) 
-1.94163

>  <r_i_glide_evdw>  (252) 
-20.0055

>  <r_i_glide_ecoul>  (252) 
-3.67786

>  <r_i_glide_erotb>  (252) 
0.26836

>  <r_i_glide_esite>  (252) 
-0.0527687

>  <r_i_glide_emodel>  (252) 
-28.2731

>  <r_i_glide_energy>  (252) 
-23.6834

>  <r_i_glide_einternal>  (252) 
2.87597

>  <r_i_glide_intrahb_reward>  (252) 
-0

>  <i_i_glide_confnum>  (252) 
3

>  <i_i_glide_posenum>  (252) 
9

>  <r_i_glide_eff_state_penalty>  (252) 
0

>  <ligand_id>  (252) 
66

>  <original_smiles>  (252) 
N#CC1C(=N)OC2=CCCC(=O)C2C1c1cnc[nH]1

>  <smiles>  (252) 
[H]N=C1OC2=C([H])C([H])([H])C([H])([H])C(=O)C2([H])C([H])(c2nc([H])n([H])c2[H])C1([H])C#N

$$$$
66:4:2
     RDKit          3D

 31 33  0  0  1  0  0  0  0  0999 V2000
    1.9017   -2.6577    2.9119 N   0  0  0  0  0  0  0  0  0  0  0  0
    2.7051   -2.4516    2.1004 C   0  0  0  0  0  0  0  0  0  0  0  0
    3.7348   -2.1789    1.0817 C   0  0  2  0  0  0  0  0  0  0  0  0
    3.8198   -0.6759    0.8074 C   0  0  0  0  0  0  0  0  0  0  0  0
    3.4345    0.2104    1.6295 N   0  0  0  0  0  0  0  0  0  0  0  0
    4.3971   -0.2935   -0.3833 O   0  0  0  0  0  0  0  0  0  0  0  0
    4.2726   -1.0924   -1.5029 C   0  0  0  0  0  0  0  0  0  0  0  0
    3.9866   -0.5442   -2.7105 C   0  0  0  0  0  0  0  0  0  0  0  0
    3.7786   -1.3411   -3.9838 C   0  0  0  0  0  0  0  0  0  0  0  0
    3.4451   -2.8004   -3.6826 C   0  0  0  0  0  0  0  0  0  0  0  0
    4.3610   -3.3244   -2.5968 C   0  0  0  0  0  0  0  0  0  0  0  0
    5.0205   -4.3087   -2.8380 O   0  0  0  0  0  0  0  0  0  0  0  0
    4.4967   -2.5695   -1.2634 C   0  0  2  0  0  0  0  0  0  0  0  0
    3.5453   -3.0573   -0.1664 C   0  0  1  0  0  0  0  0  0  0  0  0
    3.7048   -4.5176    0.1951 C   0  0  0  0  0  0  0  0  0  0  0  0
    4.8091   -5.3442    0.1144 C   0  0  0  0  0  0  0  0  0  0  0  0
    4.3812   -6.5894    0.5597 N   0  0  0  0  0  0  0  0  0  0  0  0
    3.1012   -6.4640    0.9099 C   0  0  0  0  0  0  0  0  0  0  0  0
    2.6235   -5.2367    0.7151 N   0  0  0  0  0  0  0  0  0  0  0  0
    4.9208   -7.4407    0.5874 H   0  0  0  0  0  0  0  0  0  0  0  0
    4.6910   -2.4402    1.5459 H   0  0  0  0  0  0  0  0  0  0  0  0
    3.0290   -0.1377    2.4884 H   0  0  0  0  0  0  0  0  0  0  0  0
    3.8555    0.5218   -2.8111 H   0  0  0  0  0  0  0  0  0  0  0  0
    2.9575   -0.9030   -4.5433 H   0  0  0  0  0  0  0  0  0  0  0  0
    4.6741   -1.2509   -4.5944 H   0  0  0  0  0  0  0  0  0  0  0  0
    2.4182   -2.9174   -3.3370 H   0  0  0  0  0  0  0  0  0  0  0  0
    3.5665   -3.4221   -4.5684 H   0  0  0  0  0  0  0  0  0  0  0  0
    5.5227   -2.6872   -0.9192 H   0  0  0  0  0  0  0  0  0  0  0  0
    2.5274   -2.9040   -0.5292 H   0  0  0  0  0  0  0  0  0  0  0  0
    5.8140   -5.1669   -0.2467 H   0  0  0  0  0  0  0  0  0  0  0  0
    2.5014   -7.2753    1.2810 H   0  0  0  0  0  0  0  0  0  0  0  0
  1  2  3  0
  2  3  1  0
  3 14  1  0
  3  4  1  0
  3 21  1  1
  4  5  2  3
  4  6  1  0
  5 22  1  0
  6  7  1  0
  7 13  1  0
  7  8  2  0
  8  9  1  0
  8 23  1  0
  9 10  1  0
  9 24  1  0
  9 25  1  0
 10 11  1  0
 10 26  1  0
 10 27  1  0
 11 12  2  0
 11 13  1  0
 13 14  1  0
 13 28  1  1
 14 29  1  6
 14 15  1  0
 15 16  2  0
 15 19  1  0
 16 30  1  0
 16 17  1  0
 17 20  1  0
 17 18  1  0
 18 31  1  0
 18 19  2  0
M  END
>  <i_m_ct_stereo_status>  (253) 
1

>  <s_m_source_file>  (253) 
/var/tmp/pbs.5076255.sched01/tmp0pz6dnip/90w4u7_w6b.sdf

>  <i_m_source_file_index>  (253) 
16

>  <i_lp_mmshare_version>  (253) 
48012

>  <i_f3d_flags>  (253) 
0

>  <s_epik_input>  (253) 
W25IXTFbY0hdbltjSF1jMVtDQEBIXShbQ0BIXShDI04pL0MoTzIpPU4vW0hdKVtDQEhdKEMyPTMpQyg9TylbQ0gyXVtDSDJdW0NIXTM=

>  <s_epik_cmdline>  (253) 
J2VwaWtfcHl0aG9uJywgJy1waHQnLCAnMi4wJywgJy1waCcsICc3LjAnLCAnLXRuJywgJzgnLCAnLW1hJywgJzIwMCcsICctaW1hZScsICc8aW5maWxlLm1hZT4nLCAnLW9tYWUnLCAnPG91dGZpbGUubWFlPic=

>  <r_lp_tautomer_probability>  (253) 
0.499975

>  <r_epik_Ionization_Penalty>  (253) 
0.160293

>  <r_epik_Ionization_Penalty_Charging>  (253) 
0.105736

>  <r_epik_Ionization_Penalty_Neutral>  (253) 
0.0545576

>  <r_epik_State_Penalty>  (253) 
1.2911

>  <r_epik_Charging_Adjusted_Penalty>  (253) 
1.39684

>  <i_epik_Tot_Q>  (253) 
0

>  <i_epik_Tot_abs_Q>  (253) 
0

>  <s_epik_Chemistry_Notes>  (253) 
This compound has an imine and may undergo hydrolysis.

>  <s_lp_Force_Field>  (253) 
OPLS3e

>  <r_lp_Energy>  (253) 
6.16126

>  <b_lp_Chiralities_Consistent>  (253) 
1

>  <s_lp_Variant>  (253) 
66:0-5

>  <s_i_glide_gridfile>  (253) 
pfpi4k_grid

>  <i_i_glide_lignum>  (253) 
16

>  <i_i_glide_rotatable_bonds>  (253) 
2

>  <r_i_docking_score>  (253) 
-2.77491

>  <r_i_glide_ligand_efficiency>  (253) 
-0.146048

>  <r_i_glide_ligand_efficiency_sa>  (253) 
-0.389715

>  <r_i_glide_ligand_efficiency_ln>  (253) 
-0.7035

>  <r_i_glide_gscore>  (253) 
-2.77491

>  <r_i_glide_lipo>  (253) 
-0.418635

>  <r_i_glide_hbond>  (253) 
0

>  <r_i_glide_metal>  (253) 
-0

>  <r_i_glide_rewards>  (253) 
-1.66797

>  <r_i_glide_evdw>  (253) 
-24.9882

>  <r_i_glide_ecoul>  (253) 
2.14844

>  <r_i_glide_erotb>  (253) 
0.26836

>  <r_i_glide_esite>  (253) 
-0.0295269

>  <r_i_glide_emodel>  (253) 
-25.9232

>  <r_i_glide_energy>  (253) 
-22.8397

>  <r_i_glide_einternal>  (253) 
2.91547

>  <r_i_glide_intrahb_reward>  (253) 
-0

>  <i_i_glide_confnum>  (253) 
3

>  <i_i_glide_posenum>  (253) 
5

>  <r_i_glide_eff_state_penalty>  (253) 
0

>  <ligand_id>  (253) 
66

>  <original_smiles>  (253) 
N#CC1C(=N)OC2=CCCC(=O)C2C1c1cnc[nH]1

>  <smiles>  (253) 
[H]N=C1OC2=C([H])C([H])([H])C([H])([H])C(=O)C2([H])C([H])(c2nc([H])n([H])c2[H])C1([H])C#N

$$$$
66:5:0
     RDKit          3D

 31 33  0  0  1  0  0  0  0  0999 V2000
    7.3636   -1.8631   -0.3165 N   0  0  0  0  0  0  0  0  0  0  0  0
    6.3040   -2.0140    0.1187 C   0  0  0  0  0  0  0  0  0  0  0  0
    4.9641   -2.2416    0.6726 C   0  0  2  0  0  0  0  0  0  0  0  0
    5.0469   -2.1842    2.1996 C   0  0  0  0  0  0  0  0  0  0  0  0
    5.2774   -1.0065    2.7876 N   0  0  0  0  0  0  0  0  0  0  0  0
    4.1930   -2.9433    2.9587 O   0  0  0  0  0  0  0  0  0  0  0  0
    3.6516   -4.0836    2.4401 C   0  0  0  0  0  0  0  0  0  0  0  0
    3.5794   -5.1820    3.2197 C   0  0  0  0  0  0  0  0  0  0  0  0
    3.0601   -6.5198    2.7444 C   0  0  0  0  0  0  0  0  0  0  0  0
    3.0856   -6.6280    1.2172 C   0  0  0  0  0  0  0  0  0  0  0  0
    2.5511   -5.3506    0.5784 C   0  0  0  0  0  0  0  0  0  0  0  0
    1.5869   -5.4023   -0.1793 O   0  0  0  0  0  0  0  0  0  0  0  0
    3.1827   -4.0027    0.9880 C   0  0  2  0  0  0  0  0  0  0  0  0
    4.3391   -3.5349    0.0970 C   0  0  1  0  0  0  0  0  0  0  0  0
    3.9634   -3.3409   -1.3448 C   0  0  0  0  0  0  0  0  0  0  0  0
    4.6547   -3.7097   -2.4843 C   0  0  0  0  0  0  0  0  0  0  0  0
    3.9402   -3.3388   -3.6325 N   0  0  0  0  0  0  0  0  0  0  0  0
    2.8315   -2.7847   -3.1403 C   0  0  0  0  0  0  0  0  0  0  0  0
    2.8060   -2.7194   -1.8085 N   0  0  0  0  0  0  0  0  0  0  0  0
    2.0660   -2.2759   -1.2703 H   0  0  0  0  0  0  0  0  0  0  0  0
    5.8563   -0.4572    2.1346 H   0  0  0  0  0  0  0  0  0  0  0  0
    3.9111   -5.1647    4.2484 H   0  0  0  0  0  0  0  0  0  0  0  0
    3.6985   -7.2976    3.1516 H   0  0  0  0  0  0  0  0  0  0  0  0
    2.0512   -6.6646    3.1337 H   0  0  0  0  0  0  0  0  0  0  0  0
    4.0975   -6.7963    0.8419 H   0  0  0  0  0  0  0  0  0  0  0  0
    2.4731   -7.4659    0.8843 H   0  0  0  0  0  0  0  0  0  0  0  0
    2.4089   -3.2289    0.9689 H   0  0  0  0  0  0  0  0  0  0  0  0
    5.1137   -4.3001    0.1385 H   0  0  0  0  0  0  0  0  0  0  0  0
    5.6110   -4.2198   -2.5871 H   0  0  0  0  0  0  0  0  0  0  0  0
    2.0237   -2.4116   -3.7524 H   0  0  0  0  0  0  0  0  0  0  0  0
    4.3593   -1.3889    0.3725 H   0  0  0  0  0  0  0  0  0  0  0  0
  1  2  3  0
  2  3  1  0
  3 14  1  0
  3  4  1  0
  3 31  1  6
  4  5  1  0
  4  6  1  0
  5 21  1  0
  6  7  1  0
  7 13  1  0
  7  8  2  0
  8  9  1  0
  8 22  1  0
  9 10  1  0
  9 23  1  0
  9 24  1  0
 10 11  1  0
 10 25  1  0
 10 26  1  0
 11 12  2  0
 11 13  1  0
 13 14  1  0
 13 27  1  1
 14 15  1  0
 14 28  1  6
 15 19  1  0
 15 16  2  0
 16 17  1  0
 16 29  1  0
 17 18  2  0
 18 19  1  0
 18 30  1  0
 19 20  1  0
M  CHG  2   4   1   5  -1
M  END
>  <i_m_ct_stereo_status>  (254) 
1

>  <s_m_source_file>  (254) 
/var/tmp/pbs.5076255.sched01/tmp0pz6dnip/90w4u7_w6b.sdf

>  <i_m_source_file_index>  (254) 
17

>  <i_lp_mmshare_version>  (254) 
48012

>  <i_f3d_flags>  (254) 
0

>  <s_epik_input>  (254) 
W25IXTFbY0hdbltjSF1jMVtDQEBIXShbQ0BIXShDI04pL0MoTzIpPU4vW0hdKVtDQEhdKEMyPTMpQyg9TylbQ0gyXVtDSDJdW0NIXTM=

>  <s_epik_cmdline>  (254) 
J2VwaWtfcHl0aG9uJywgJy1waHQnLCAnMi4wJywgJy1waCcsICc3LjAnLCAnLXRuJywgJzgnLCAnLW1hJywgJzIwMCcsICctaW1hZScsICc8aW5maWxlLm1hZT4nLCAnLW9tYWUnLCAnPG91dGZpbGUubWFlPic=

>  <r_lp_tautomer_probability>  (254) 
0.499975

>  <r_epik_Ionization_Penalty>  (254) 
0.412265

>  <r_epik_Ionization_Penalty_Charging>  (254) 
0.412265

>  <r_epik_Ionization_Penalty_Neutral>  (254) 
4.3063e-08

>  <r_epik_State_Penalty>  (254) 
1.29884

>  <r_epik_Charging_Adjusted_Penalty>  (254) 
1.71111

>  <i_epik_Tot_Q>  (254) 
0

>  <i_epik_Tot_abs_Q>  (254) 
2

>  <s_lp_Force_Field>  (254) 
OPLS3e

>  <r_lp_Energy>  (254) 
7.87965

>  <b_lp_Chiralities_Consistent>  (254) 
1

>  <s_lp_Variant>  (254) 
66:0-6

>  <s_i_glide_gridfile>  (254) 
pfpi4k_grid

>  <i_i_glide_lignum>  (254) 
17

>  <i_i_glide_rotatable_bonds>  (254) 
2

>  <r_i_docking_score>  (254) 
-4.47401

>  <r_i_glide_ligand_efficiency>  (254) 
-0.235474

>  <r_i_glide_ligand_efficiency_sa>  (254) 
-0.62834

>  <r_i_glide_ligand_efficiency_ln>  (254) 
-1.13426

>  <r_i_glide_gscore>  (254) 
-4.47401

>  <r_i_glide_lipo>  (254) 
-0.153254

>  <r_i_glide_hbond>  (254) 
-0.408007

>  <r_i_glide_metal>  (254) 
-0

>  <r_i_glide_rewards>  (254) 
-1.78667

>  <r_i_glide_evdw>  (254) 
-20.1531

>  <r_i_glide_ecoul>  (254) 
-8.70954

>  <r_i_glide_erotb>  (254) 
0.26836

>  <r_i_glide_esite>  (254) 
-0.0803514

>  <r_i_glide_emodel>  (254) 
-36.9606

>  <r_i_glide_energy>  (254) 
-28.8626

>  <r_i_glide_einternal>  (254) 
0.633175

>  <r_i_glide_intrahb_reward>  (254) 
-0

>  <i_i_glide_confnum>  (254) 
4

>  <i_i_glide_posenum>  (254) 
40

>  <r_i_glide_eff_state_penalty>  (254) 
0

>  <ligand_id>  (254) 
66

>  <original_smiles>  (254) 
N#CC1C(=N)OC2=CCCC(=O)C2C1c1cnc[nH]1

>  <smiles>  (254) 
[H][N-][C+]1OC2=C([H])C([H])([H])C([H])([H])C(=O)C2([H])C([H])(c2c([H])nc([H])n2[H])C1([H])C#N

$$$$
66:5:1
     RDKit          3D

 31 33  0  0  1  0  0  0  0  0999 V2000
    5.9605   -0.6552    2.5962 N   0  0  0  0  0  0  0  0  0  0  0  0
    5.7963   -1.5766    1.9224 C   0  0  0  0  0  0  0  0  0  0  0  0
    5.5639   -2.7474    1.0751 C   0  0  2  0  0  0  0  0  0  0  0  0
    6.6980   -2.9534    0.0692 C   0  0  0  0  0  0  0  0  0  0  0  0
    7.8856   -3.4010    0.4854 N   0  0  0  0  0  0  0  0  0  0  0  0
    6.4253   -3.4439   -1.1867 O   0  0  0  0  0  0  0  0  0  0  0  0
    5.1676   -3.3654   -1.6979 C   0  0  0  0  0  0  0  0  0  0  0  0
    5.0466   -3.0717   -3.0078 C   0  0  0  0  0  0  0  0  0  0  0  0
    3.7326   -2.8306   -3.7085 C   0  0  0  0  0  0  0  0  0  0  0  0
    2.6180   -2.5153   -2.7063 C   0  0  0  0  0  0  0  0  0  0  0  0
    2.6831   -3.4325   -1.4801 C   0  0  0  0  0  0  0  0  0  0  0  0
    1.6904   -4.0405   -1.1109 O   0  0  0  0  0  0  0  0  0  0  0  0
    4.0149   -3.5717   -0.7300 C   0  0  2  0  0  0  0  0  0  0  0  0
    4.1649   -2.6072    0.4534 C   0  0  1  0  0  0  0  0  0  0  0  0
    3.1013   -2.7262    1.5035 C   0  0  0  0  0  0  0  0  0  0  0  0
    2.7749   -3.7588    2.3624 C   0  0  0  0  0  0  0  0  0  0  0  0
    1.7270   -3.3650    3.2032 N   0  0  0  0  0  0  0  0  0  0  0  0
    1.4522   -2.1193    2.8184 C   0  0  0  0  0  0  0  0  0  0  0  0
    2.2275   -1.6932    1.8144 N   0  0  0  0  0  0  0  0  0  0  0  0
    2.1423   -0.8059    1.3293 H   0  0  0  0  0  0  0  0  0  0  0  0
    7.9858   -3.0806    1.4589 H   0  0  0  0  0  0  0  0  0  0  0  0
    5.9445   -2.9740   -3.5840 H   0  0  0  0  0  0  0  0  0  0  0  0
    3.8560   -1.9768   -4.3765 H   0  0  0  0  0  0  0  0  0  0  0  0
    3.4846   -3.7068   -4.3083 H   0  0  0  0  0  0  0  0  0  0  0  0
    2.6971   -1.4811   -2.3582 H   0  0  0  0  0  0  0  0  0  0  0  0
    1.6445   -2.6117   -3.1838 H   0  0  0  0  0  0  0  0  0  0  0  0
    4.0856   -4.5964   -0.3536 H   0  0  0  0  0  0  0  0  0  0  0  0
    4.0935   -1.5973    0.0573 H   0  0  0  0  0  0  0  0  0  0  0  0
    3.1988   -4.7538    2.4464 H   0  0  0  0  0  0  0  0  0  0  0  0
    0.6528   -1.5153    3.2275 H   0  0  0  0  0  0  0  0  0  0  0  0
    5.5871   -3.6212    1.7353 H   0  0  0  0  0  0  0  0  0  0  0  0
  1  2  3  0
  2  3  1  0
  3 14  1  0
  3  4  1  0
  3 31  1  1
  4  5  1  0
  4  6  1  0
  5 21  1  0
  6  7  1  0
  7 13  1  0
  7  8  2  0
  8  9  1  0
  8 22  1  0
  9 10  1  0
  9 23  1  0
  9 24  1  0
 10 11  1  0
 10 25  1  0
 10 26  1  0
 11 12  2  0
 11 13  1  0
 13 14  1  0
 13 27  1  1
 14 15  1  0
 14 28  1  6
 15 19  1  0
 15 16  2  0
 16 17  1  0
 16 29  1  0
 17 18  2  0
 18 19  1  0
 18 30  1  0
 19 20  1  0
M  CHG  2   4   1   5  -1
M  END
>  <i_m_ct_stereo_status>  (255) 
1

>  <s_m_source_file>  (255) 
/var/tmp/pbs.5076255.sched01/tmp0pz6dnip/90w4u7_w6b.sdf

>  <i_m_source_file_index>  (255) 
17

>  <i_lp_mmshare_version>  (255) 
48012

>  <i_f3d_flags>  (255) 
0

>  <s_epik_input>  (255) 
W25IXTFbY0hdbltjSF1jMVtDQEBIXShbQ0BIXShDI04pL0MoTzIpPU4vW0hdKVtDQEhdKEMyPTMpQyg9TylbQ0gyXVtDSDJdW0NIXTM=

>  <s_epik_cmdline>  (255) 
J2VwaWtfcHl0aG9uJywgJy1waHQnLCAnMi4wJywgJy1waCcsICc3LjAnLCAnLXRuJywgJzgnLCAnLW1hJywgJzIwMCcsICctaW1hZScsICc8aW5maWxlLm1hZT4nLCAnLW9tYWUnLCAnPG91dGZpbGUubWFlPic=

>  <r_lp_tautomer_probability>  (255) 
0.499975

>  <r_epik_Ionization_Penalty>  (255) 
0.412265

>  <r_epik_Ionization_Penalty_Charging>  (255) 
0.412265

>  <r_epik_Ionization_Penalty_Neutral>  (255) 
4.3063e-08

>  <r_epik_State_Penalty>  (255) 
1.29884

>  <r_epik_Charging_Adjusted_Penalty>  (255) 
1.71111

>  <i_epik_Tot_Q>  (255) 
0

>  <i_epik_Tot_abs_Q>  (255) 
2

>  <s_lp_Force_Field>  (255) 
OPLS3e

>  <r_lp_Energy>  (255) 
7.87965

>  <b_lp_Chiralities_Consistent>  (255) 
1

>  <s_lp_Variant>  (255) 
66:0-6

>  <s_i_glide_gridfile>  (255) 
pfpi4k_grid

>  <i_i_glide_lignum>  (255) 
17

>  <i_i_glide_rotatable_bonds>  (255) 
2

>  <r_i_docking_score>  (255) 
-4.02118

>  <r_i_glide_ligand_efficiency>  (255) 
-0.211641

>  <r_i_glide_ligand_efficiency_sa>  (255) 
-0.564743

>  <r_i_glide_ligand_efficiency_ln>  (255) 
-1.01945

>  <r_i_glide_gscore>  (255) 
-4.02118

>  <r_i_glide_lipo>  (255) 
-0.627894

>  <r_i_glide_hbond>  (255) 
-0.00652538

>  <r_i_glide_metal>  (255) 
-0

>  <r_i_glide_rewards>  (255) 
-1.984

>  <r_i_glide_evdw>  (255) 
-22.6374

>  <r_i_glide_ecoul>  (255) 
-3.2199

>  <r_i_glide_erotb>  (255) 
0.26836

>  <r_i_glide_esite>  (255) 
-0.056258

>  <r_i_glide_emodel>  (255) 
-33.0364

>  <r_i_glide_energy>  (255) 
-25.8573

>  <r_i_glide_einternal>  (255) 
0.726129

>  <r_i_glide_intrahb_reward>  (255) 
-0

>  <i_i_glide_confnum>  (255) 
3

>  <i_i_glide_posenum>  (255) 
4

>  <r_i_glide_eff_state_penalty>  (255) 
0

>  <ligand_id>  (255) 
66

>  <original_smiles>  (255) 
N#CC1C(=N)OC2=CCCC(=O)C2C1c1cnc[nH]1

>  <smiles>  (255) 
[H][N-][C+]1OC2=C([H])C([H])([H])C([H])([H])C(=O)C2([H])C([H])(c2c([H])nc([H])n2[H])C1([H])C#N

$$$$
66:5:2
     RDKit          3D

 31 33  0  0  1  0  0  0  0  0999 V2000
    5.7307   -0.2910    2.6264 N   0  0  0  0  0  0  0  0  0  0  0  0
    5.6619   -1.2429    1.9731 C   0  0  0  0  0  0  0  0  0  0  0  0
    5.5594   -2.4587    1.1455 C   0  0  2  0  0  0  0  0  0  0  0  0
    6.5947   -2.4554    0.0238 C   0  0  0  0  0  0  0  0  0  0  0  0
    7.9048   -2.5053    0.2917 N   0  0  0  0  0  0  0  0  0  0  0  0
    6.3330   -3.0481   -1.1792 O   0  0  0  0  0  0  0  0  0  0  0  0
    5.0475   -3.2269   -1.5829 C   0  0  0  0  0  0  0  0  0  0  0  0
    4.7615   -2.9863   -2.8759 C   0  0  0  0  0  0  0  0  0  0  0  0
    3.3675   -3.0582   -3.4492 C   0  0  0  0  0  0  0  0  0  0  0  0
    2.2976   -2.9711   -2.3503 C   0  0  0  0  0  0  0  0  0  0  0  0
    2.6428   -3.8046   -1.1148 C   0  0  0  0  0  0  0  0  0  0  0  0
    1.8206   -4.5709   -0.6090 O   0  0  0  0  0  0  0  0  0  0  0  0
    4.0530   -3.6368   -0.5109 C   0  0  2  0  0  0  0  0  0  0  0  0
    4.1071   -2.6341    0.6537 C   0  0  1  0  0  0  0  0  0  0  0  0
    3.1857   -2.9875    1.7890 C   0  0  0  0  0  0  0  0  0  0  0  0
    2.2226   -2.2269    2.4238 C   0  0  0  0  0  0  0  0  0  0  0  0
    1.6072   -2.9806    3.4251 N   0  0  0  0  0  0  0  0  0  0  0  0
    2.2159   -4.1591    3.3667 C   0  0  0  0  0  0  0  0  0  0  0  0
    3.1597   -4.2242    2.4195 N   0  0  0  0  0  0  0  0  0  0  0  0
    3.7237   -5.0296    2.2023 H   0  0  0  0  0  0  0  0  0  0  0  0
    8.0238   -2.2419    1.2770 H   0  0  0  0  0  0  0  0  0  0  0  0
    5.5583   -2.6967   -3.5404 H   0  0  0  0  0  0  0  0  0  0  0  0
    3.2333   -2.2210   -4.1353 H   0  0  0  0  0  0  0  0  0  0  0  0
    3.2699   -3.9808   -4.0224 H   0  0  0  0  0  0  0  0  0  0  0  0
    2.2160   -1.9361   -2.0175 H   0  0  0  0  0  0  0  0  0  0  0  0
    1.3246   -3.2675   -2.7296 H   0  0  0  0  0  0  0  0  0  0  0  0
    4.3767   -4.6151   -0.1481 H   0  0  0  0  0  0  0  0  0  0  0  0
    3.7819   -1.6677    0.2590 H   0  0  0  0  0  0  0  0  0  0  0  0
    1.9248   -1.2030    2.2421 H   0  0  0  0  0  0  0  0  0  0  0  0
    1.9763   -4.9890    4.0121 H   0  0  0  0  0  0  0  0  0  0  0  0
    5.8186   -3.2919    1.8018 H   0  0  0  0  0  0  0  0  0  0  0  0
  1  2  3  0
  2  3  1  0
  3 14  1  0
  3  4  1  0
  3 31  1  1
  4  5  1  0
  4  6  1  0
  5 21  1  0
  6  7  1  0
  7 13  1  0
  7  8  2  0
  8  9  1  0
  8 22  1  0
  9 10  1  0
  9 23  1  0
  9 24  1  0
 10 11  1  0
 10 25  1  0
 10 26  1  0
 11 12  2  0
 11 13  1  0
 13 14  1  0
 13 27  1  1
 14 15  1  0
 14 28  1  6
 15 19  1  0
 15 16  2  0
 16 17  1  0
 16 29  1  0
 17 18  2  0
 18 19  1  0
 18 30  1  0
 19 20  1  0
M  CHG  2   4   1   5  -1
M  END
>  <i_m_ct_stereo_status>  (256) 
1

>  <s_m_source_file>  (256) 
/var/tmp/pbs.5076255.sched01/tmp0pz6dnip/90w4u7_w6b.sdf

>  <i_m_source_file_index>  (256) 
17

>  <i_lp_mmshare_version>  (256) 
48012

>  <i_f3d_flags>  (256) 
0

>  <s_epik_input>  (256) 
W25IXTFbY0hdbltjSF1jMVtDQEBIXShbQ0BIXShDI04pL0MoTzIpPU4vW0hdKVtDQEhdKEMyPTMpQyg9TylbQ0gyXVtDSDJdW0NIXTM=

>  <s_epik_cmdline>  (256) 
J2VwaWtfcHl0aG9uJywgJy1waHQnLCAnMi4wJywgJy1waCcsICc3LjAnLCAnLXRuJywgJzgnLCAnLW1hJywgJzIwMCcsICctaW1hZScsICc8aW5maWxlLm1hZT4nLCAnLW9tYWUnLCAnPG91dGZpbGUubWFlPic=

>  <r_lp_tautomer_probability>  (256) 
0.499975

>  <r_epik_Ionization_Penalty>  (256) 
0.412265

>  <r_epik_Ionization_Penalty_Charging>  (256) 
0.412265

>  <r_epik_Ionization_Penalty_Neutral>  (256) 
4.3063e-08

>  <r_epik_State_Penalty>  (256) 
1.29884

>  <r_epik_Charging_Adjusted_Penalty>  (256) 
1.71111

>  <i_epik_Tot_Q>  (256) 
0

>  <i_epik_Tot_abs_Q>  (256) 
2

>  <s_lp_Force_Field>  (256) 
OPLS3e

>  <r_lp_Energy>  (256) 
7.87965

>  <b_lp_Chiralities_Consistent>  (256) 
1

>  <s_lp_Variant>  (256) 
66:0-6

>  <s_i_glide_gridfile>  (256) 
pfpi4k_grid

>  <i_i_glide_lignum>  (256) 
17

>  <i_i_glide_rotatable_bonds>  (256) 
2

>  <r_i_docking_score>  (256) 
-3.73472

>  <r_i_glide_ligand_efficiency>  (256) 
-0.196564

>  <r_i_glide_ligand_efficiency_sa>  (256) 
-0.524512

>  <r_i_glide_ligand_efficiency_ln>  (256) 
-0.946831

>  <r_i_glide_gscore>  (256) 
-3.73472

>  <r_i_glide_lipo>  (256) 
-0.500993

>  <r_i_glide_hbond>  (256) 
-0.158685

>  <r_i_glide_metal>  (256) 
-0

>  <r_i_glide_rewards>  (256) 
-1.84278

>  <r_i_glide_evdw>  (256) 
-19.1911

>  <r_i_glide_ecoul>  (256) 
-3.50207

>  <r_i_glide_erotb>  (256) 
0.26836

>  <r_i_glide_esite>  (256) 
-0.0157502

>  <r_i_glide_emodel>  (256) 
-29.4539

>  <r_i_glide_energy>  (256) 
-22.6932

>  <r_i_glide_einternal>  (256) 
0.326035

>  <r_i_glide_intrahb_reward>  (256) 
-0

>  <i_i_glide_confnum>  (256) 
4

>  <i_i_glide_posenum>  (256) 
7

>  <r_i_glide_eff_state_penalty>  (256) 
0

>  <ligand_id>  (256) 
66

>  <original_smiles>  (256) 
N#CC1C(=N)OC2=CCCC(=O)C2C1c1cnc[nH]1

>  <smiles>  (256) 
[H][N-][C+]1OC2=C([H])C([H])([H])C([H])([H])C(=O)C2([H])C([H])(c2c([H])nc([H])n2[H])C1([H])C#N

$$$$
66:6:0
     RDKit          3D

 32 34  0  0  1  0  0  0  0  0999 V2000
    7.6882   -3.0074   -1.0687 N   0  0  0  0  0  0  0  0  0  0  0  0
    7.3187   -3.6434   -0.1743 C   0  0  0  0  0  0  0  0  0  0  0  0
    6.8273   -4.4444    0.9643 C   0  0  2  0  0  0  0  0  0  0  0  0
    7.9178   -5.3969    1.4760 C   0  0  0  0  0  0  0  0  0  0  0  0
    9.1433   -5.2031    1.2923 N   0  0  0  0  0  0  0  0  0  0  0  0
    7.5186   -6.4903    2.2117 O   0  0  0  0  0  0  0  0  0  0  0  0
    6.3050   -7.0687    1.9626 C   0  0  0  0  0  0  0  0  0  0  0  0
    6.2358   -8.4124    1.9268 C   0  0  0  0  0  0  0  0  0  0  0  0
    4.9705   -9.1763    1.6238 C   0  0  0  0  0  0  0  0  0  0  0  0
    3.9417   -8.3003    0.8961 C   0  0  0  0  0  0  0  0  0  0  0  0
    3.8251   -6.9011    1.5051 C   0  0  0  0  0  0  0  0  0  0  0  0
    2.7250   -6.4096    1.7614 O   0  0  0  0  0  0  0  0  0  0  0  0
    5.1269   -6.1146    1.7445 C   0  0  2  0  0  0  0  0  0  0  0  0
    5.4900   -5.1337    0.6138 C   0  0  1  0  0  0  0  0  0  0  0  0
    4.4154   -4.1101    0.3332 C   0  0  0  0  0  0  0  0  0  0  0  0
    4.0847   -2.9079    0.9342 C   0  0  0  0  0  0  0  0  0  0  0  0
    3.0281   -2.3892    0.2277 N   0  0  0  0  0  0  0  0  0  0  0  0
    2.7050   -3.2087   -0.7750 C   0  0  0  0  0  0  0  0  0  0  0  0
    3.5323   -4.2536   -0.7146 N   0  0  0  0  0  0  0  0  0  0  0  0
    3.4893   -5.0331   -1.3741 H   0  0  0  0  0  0  0  0  0  0  0  0
    6.6606   -3.7288    1.7723 H   0  0  0  0  0  0  0  0  0  0  0  0
    9.6832   -5.9491    1.7190 H   0  0  0  0  0  0  0  0  0  0  0  0
    7.1199   -9.0064    2.1140 H   0  0  0  0  0  0  0  0  0  0  0  0
    5.2258  -10.0310    0.9985 H   0  0  0  0  0  0  0  0  0  0  0  0
    4.5601   -9.5724    2.5522 H   0  0  0  0  0  0  0  0  0  0  0  0
    4.2477   -8.1776   -0.1445 H   0  0  0  0  0  0  0  0  0  0  0  0
    2.9695   -8.7948    0.8888 H   0  0  0  0  0  0  0  0  0  0  0  0
    4.9954   -5.5579    2.6739 H   0  0  0  0  0  0  0  0  0  0  0  0
    5.6351   -5.7092   -0.3031 H   0  0  0  0  0  0  0  0  0  0  0  0
    4.5204   -2.3945    1.7879 H   0  0  0  0  0  0  0  0  0  0  0  0
    1.9215   -3.0379   -1.4934 H   0  0  0  0  0  0  0  0  0  0  0  0
    2.5413   -1.5089    0.3949 H   0  0  0  0  0  0  0  0  0  0  0  0
  1  2  3  0
  2  3  1  0
  3 14  1  0
  3  4  1  0
  3 21  1  1
  4  5  2  3
  4  6  1  0
  5 22  1  0
  6  7  1  0
  7 13  1  0
  7  8  2  0
  8  9  1  0
  8 23  1  0
  9 10  1  0
  9 24  1  0
  9 25  1  0
 10 11  1  0
 10 26  1  0
 10 27  1  0
 11 12  2  0
 11 13  1  0
 13 14  1  0
 13 28  1  1
 14 15  1  0
 14 29  1  6
 15 19  1  0
 15 16  2  0
 16 17  1  0
 16 30  1  0
 17 18  2  0
 17 32  1  0
 18 19  1  0
 18 31  1  0
 19 20  1  0
M  CHG  1  17   1
M  END
>  <i_m_ct_stereo_status>  (257) 
1

>  <s_m_source_file>  (257) 
/var/tmp/pbs.5076255.sched01/tmp0pz6dnip/90w4u7_w6b.sdf

>  <i_m_source_file_index>  (257) 
18

>  <i_lp_mmshare_version>  (257) 
48012

>  <i_f3d_flags>  (257) 
0

>  <s_epik_input>  (257) 
W25IXTFbY0hdbltjSF1jMVtDQEBIXShbQ0BIXShDI04pL0MoTzIpPU4vW0hdKVtDQEhdKEMyPTMpQyg9TylbQ0gyXVtDSDJdW0NIXTM=

>  <s_epik_cmdline>  (257) 
J2VwaWtfcHl0aG9uJywgJy1waHQnLCAnMi4wJywgJy1waCcsICc3LjAnLCAnLXRuJywgJzgnLCAnLW1hJywgJzIwMCcsICctaW1hZScsICc8aW5maWxlLm1hZT4nLCAnLW9tYWUnLCAnPG91dGZpbGUubWFlPic=

>  <r_lp_tautomer_probability>  (257) 
0.99995

>  <r_epik_Ionization_Penalty>  (257) 
2.28001

>  <r_epik_Ionization_Penalty_Charging>  (257) 
0

>  <r_epik_Ionization_Penalty_Neutral>  (257) 
2.28001

>  <r_epik_State_Penalty>  (257) 
1.67386

>  <r_epik_Charging_Adjusted_Penalty>  (257) 
1.67386

>  <i_epik_Tot_Q>  (257) 
1

>  <i_epik_Tot_abs_Q>  (257) 
1

>  <s_epik_Chemistry_Notes>  (257) 
This compound has an imine and may undergo hydrolysis.

>  <s_lp_Force_Field>  (257) 
OPLS3e

>  <r_lp_Energy>  (257) 
13.7474

>  <b_lp_Chiralities_Consistent>  (257) 
1

>  <s_lp_Variant>  (257) 
66:0-7

>  <s_i_glide_gridfile>  (257) 
pfpi4k_grid

>  <i_i_glide_lignum>  (257) 
18

>  <i_i_glide_rotatable_bonds>  (257) 
2

>  <r_i_docking_score>  (257) 
-4.8293

>  <r_i_glide_ligand_efficiency>  (257) 
-0.254173

>  <r_i_glide_ligand_efficiency_sa>  (257) 
-0.678237

>  <r_i_glide_ligand_efficiency_ln>  (257) 
-1.22433

>  <r_i_glide_gscore>  (257) 
-4.8293

>  <r_i_glide_lipo>  (257) 
-0.425408

>  <r_i_glide_hbond>  (257) 
-0.0974318

>  <r_i_glide_metal>  (257) 
-0

>  <r_i_glide_rewards>  (257) 
-2.07311

>  <r_i_glide_evdw>  (257) 
-18.5639

>  <r_i_glide_ecoul>  (257) 
-9.73602

>  <r_i_glide_erotb>  (257) 
0.266555

>  <r_i_glide_esite>  (257) 
-0.111303

>  <r_i_glide_emodel>  (257) 
-38.4467

>  <r_i_glide_energy>  (257) 
-28.2999

>  <r_i_glide_einternal>  (257) 
1.06391

>  <r_i_glide_intrahb_reward>  (257) 
-0

>  <i_i_glide_confnum>  (257) 
2

>  <i_i_glide_posenum>  (257) 
6

>  <r_i_glide_eff_state_penalty>  (257) 
0

>  <ligand_id>  (257) 
66

>  <original_smiles>  (257) 
N#CC1C(=N)OC2=CCCC(=O)C2C1c1cnc[nH]1

>  <smiles>  (257) 
[H]N=C1OC2=C([H])C([H])([H])C([H])([H])C(=O)C2([H])C([H])(c2c([H])[n+]([H])c([H])n2[H])C1([H])C#N

$$$$
66:6:1
     RDKit          3D

 32 34  0  0  1  0  0  0  0  0999 V2000
    7.7970   -2.6426   -1.2747 N   0  0  0  0  0  0  0  0  0  0  0  0
    7.4874   -3.2658   -0.3536 C   0  0  0  0  0  0  0  0  0  0  0  0
    7.0731   -4.0521    0.8156 C   0  0  2  0  0  0  0  0  0  0  0  0
    7.8343   -5.3861    0.8866 C   0  0  0  0  0  0  0  0  0  0  0  0
    8.9757   -5.5647    0.3741 N   0  0  0  0  0  0  0  0  0  0  0  0
    7.2489   -6.4122    1.5919 O   0  0  0  0  0  0  0  0  0  0  0  0
    5.8829   -6.4942    1.6808 C   0  0  0  0  0  0  0  0  0  0  0  0
    5.3082   -7.7033    1.5475 C   0  0  0  0  0  0  0  0  0  0  0  0
    3.8159   -7.9310    1.5782 C   0  0  0  0  0  0  0  0  0  0  0  0
    3.0369   -6.6386    1.2786 C   0  0  0  0  0  0  0  0  0  0  0  0
    3.6137   -5.4345    2.0235 C   0  0  0  0  0  0  0  0  0  0  0  0
    2.8790   -4.6781    2.6563 O   0  0  0  0  0  0  0  0  0  0  0  0
    5.1310   -5.1825    1.9237 C   0  0  2  0  0  0  0  0  0  0  0  0
    5.5354   -4.1752    0.8339 C   0  0  1  0  0  0  0  0  0  0  0  0
    4.8895   -2.8175    0.9890 C   0  0  0  0  0  0  0  0  0  0  0  0
    5.1563   -1.7395    1.8107 C   0  0  0  0  0  0  0  0  0  0  0  0
    4.2508   -0.7595    1.4910 N   0  0  0  0  0  0  0  0  0  0  0  0
    3.4357   -1.1874    0.5251 C   0  0  0  0  0  0  0  0  0  0  0  0
    3.8236   -2.4247    0.2098 N   0  0  0  0  0  0  0  0  0  0  0  0
    3.3789   -2.9805   -0.5106 H   0  0  0  0  0  0  0  0  0  0  0  0
    7.3971   -3.4795    1.6830 H   0  0  0  0  0  0  0  0  0  0  0  0
    9.3124   -6.5096    0.5390 H   0  0  0  0  0  0  0  0  0  0  0  0
    5.9233   -8.5804    1.3983 H   0  0  0  0  0  0  0  0  0  0  0  0
    3.5720   -8.6926    0.8371 H   0  0  0  0  0  0  0  0  0  0  0  0
    3.5435   -8.3415    2.5500 H   0  0  0  0  0  0  0  0  0  0  0  0
    3.0996   -6.4172    0.2124 H   0  0  0  0  0  0  0  0  0  0  0  0
    1.9809   -6.7701    1.5164 H   0  0  0  0  0  0  0  0  0  0  0  0
    5.4532   -4.8059    2.8954 H   0  0  0  0  0  0  0  0  0  0  0  0
    5.2183   -4.5786   -0.1314 H   0  0  0  0  0  0  0  0  0  0  0  0
    5.9064   -1.6002    2.5801 H   0  0  0  0  0  0  0  0  0  0  0  0
    2.6144   -0.6451    0.0848 H   0  0  0  0  0  0  0  0  0  0  0  0
    4.1859    0.1555    1.9240 H   0  0  0  0  0  0  0  0  0  0  0  0
  1  2  3  0
  2  3  1  0
  3 14  1  0
  3  4  1  0
  3 21  1  1
  4  5  2  3
  4  6  1  0
  5 22  1  0
  6  7  1  0
  7 13  1  0
  7  8  2  0
  8  9  1  0
  8 23  1  0
  9 10  1  0
  9 24  1  0
  9 25  1  0
 10 11  1  0
 10 26  1  0
 10 27  1  0
 11 12  2  0
 11 13  1  0
 13 14  1  0
 13 28  1  1
 14 15  1  0
 14 29  1  6
 15 19  1  0
 15 16  2  0
 16 17  1  0
 16 30  1  0
 17 18  2  0
 17 32  1  0
 18 19  1  0
 18 31  1  0
 19 20  1  0
M  CHG  1  17   1
M  END
>  <i_m_ct_stereo_status>  (258) 
1

>  <s_m_source_file>  (258) 
/var/tmp/pbs.5076255.sched01/tmp0pz6dnip/90w4u7_w6b.sdf

>  <i_m_source_file_index>  (258) 
18

>  <i_lp_mmshare_version>  (258) 
48012

>  <i_f3d_flags>  (258) 
0

>  <s_epik_input>  (258) 
W25IXTFbY0hdbltjSF1jMVtDQEBIXShbQ0BIXShDI04pL0MoTzIpPU4vW0hdKVtDQEhdKEMyPTMpQyg9TylbQ0gyXVtDSDJdW0NIXTM=

>  <s_epik_cmdline>  (258) 
J2VwaWtfcHl0aG9uJywgJy1waHQnLCAnMi4wJywgJy1waCcsICc3LjAnLCAnLXRuJywgJzgnLCAnLW1hJywgJzIwMCcsICctaW1hZScsICc8aW5maWxlLm1hZT4nLCAnLW9tYWUnLCAnPG91dGZpbGUubWFlPic=

>  <r_lp_tautomer_probability>  (258) 
0.99995

>  <r_epik_Ionization_Penalty>  (258) 
2.28001

>  <r_epik_Ionization_Penalty_Charging>  (258) 
0

>  <r_epik_Ionization_Penalty_Neutral>  (258) 
2.28001

>  <r_epik_State_Penalty>  (258) 
1.67386

>  <r_epik_Charging_Adjusted_Penalty>  (258) 
1.67386

>  <i_epik_Tot_Q>  (258) 
1

>  <i_epik_Tot_abs_Q>  (258) 
1

>  <s_epik_Chemistry_Notes>  (258) 
This compound has an imine and may undergo hydrolysis.

>  <s_lp_Force_Field>  (258) 
OPLS3e

>  <r_lp_Energy>  (258) 
13.7474

>  <b_lp_Chiralities_Consistent>  (258) 
1

>  <s_lp_Variant>  (258) 
66:0-7

>  <s_i_glide_gridfile>  (258) 
pfpi4k_grid

>  <i_i_glide_lignum>  (258) 
18

>  <i_i_glide_rotatable_bonds>  (258) 
2

>  <r_i_docking_score>  (258) 
-4.47319

>  <r_i_glide_ligand_efficiency>  (258) 
-0.235431

>  <r_i_glide_ligand_efficiency_sa>  (258) 
-0.628225

>  <r_i_glide_ligand_efficiency_ln>  (258) 
-1.13405

>  <r_i_glide_gscore>  (258) 
-4.47319

>  <r_i_glide_lipo>  (258) 
-0.500473

>  <r_i_glide_hbond>  (258) 
-0.265606

>  <r_i_glide_metal>  (258) 
-0

>  <r_i_glide_rewards>  (258) 
-2.04967

>  <r_i_glide_evdw>  (258) 
-18.9263

>  <r_i_glide_ecoul>  (258) 
-5.94795

>  <r_i_glide_erotb>  (258) 
0.266555

>  <r_i_glide_esite>  (258) 
-0.0854931

>  <r_i_glide_emodel>  (258) 
-34.2147

>  <r_i_glide_energy>  (258) 
-24.8742

>  <r_i_glide_einternal>  (258) 
1.12391

>  <r_i_glide_intrahb_reward>  (258) 
-0

>  <i_i_glide_confnum>  (258) 
2

>  <i_i_glide_posenum>  (258) 
1

>  <r_i_glide_eff_state_penalty>  (258) 
0

>  <ligand_id>  (258) 
66

>  <original_smiles>  (258) 
N#CC1C(=N)OC2=CCCC(=O)C2C1c1cnc[nH]1

>  <smiles>  (258) 
[H]N=C1OC2=C([H])C([H])([H])C([H])([H])C(=O)C2([H])C([H])(c2c([H])[n+]([H])c([H])n2[H])C1([H])C#N

$$$$
66:6:2
     RDKit          3D

 32 34  0  0  1  0  0  0  0  0999 V2000
   -2.1779    0.9516    6.8883 N   0  0  0  0  0  0  0  0  0  0  0  0
   -1.6814    0.4320    5.9855 C   0  0  0  0  0  0  0  0  0  0  0  0
   -1.0517   -0.2287    4.8371 C   0  0  2  0  0  0  0  0  0  0  0  0
   -0.6898   -1.6730    5.1792 C   0  0  0  0  0  0  0  0  0  0  0  0
   -1.2732   -2.3366    6.0807 N   0  0  0  0  0  0  0  0  0  0  0  0
    0.2805   -2.2808    4.4232 O   0  0  0  0  0  0  0  0  0  0  0  0
    1.2799   -1.5266    3.8623 C   0  0  0  0  0  0  0  0  0  0  0  0
    2.5348   -2.0099    3.9035 C   0  0  0  0  0  0  0  0  0  0  0  0
    3.7395   -1.2615    3.3787 C   0  0  0  0  0  0  0  0  0  0  0  0
    3.4611    0.2466    3.2667 C   0  0  0  0  0  0  0  0  0  0  0  0
    2.0919    0.5356    2.6500 C   0  0  0  0  0  0  0  0  0  0  0  0
    1.9706    1.3368    1.7296 O   0  0  0  0  0  0  0  0  0  0  0  0
    0.8727   -0.1878    3.2441 C   0  0  2  0  0  0  0  0  0  0  0  0
    0.1208    0.6221    4.3075 C   0  0  1  0  0  0  0  0  0  0  0  0
   -0.3944    1.9531    3.8307 C   0  0  0  0  0  0  0  0  0  0  0  0
   -1.4457    2.3083    3.0116 C   0  0  0  0  0  0  0  0  0  0  0  0
   -1.4626    3.6767    2.9635 N   0  0  0  0  0  0  0  0  0  0  0  0
   -0.4540    4.1764    3.6798 C   0  0  0  0  0  0  0  0  0  0  0  0
    0.1872    3.1371    4.2225 N   0  0  0  0  0  0  0  0  0  0  0  0
    1.0148    3.2231    4.7989 H   0  0  0  0  0  0  0  0  0  0  0  0
   -1.8348   -0.2820    4.0793 H   0  0  0  0  0  0  0  0  0  0  0  0
   -0.8950   -3.2724    6.1413 H   0  0  0  0  0  0  0  0  0  0  0  0
    2.7297   -2.9743    4.3439 H   0  0  0  0  0  0  0  0  0  0  0  0
    4.5725   -1.4300    4.0587 H   0  0  0  0  0  0  0  0  0  0  0  0
    4.0209   -1.6849    2.4145 H   0  0  0  0  0  0  0  0  0  0  0  0
    3.4772    0.6958    4.2615 H   0  0  0  0  0  0  0  0  0  0  0  0
    4.2420    0.7333    2.6830 H   0  0  0  0  0  0  0  0  0  0  0  0
    0.2001   -0.4078    2.4141 H   0  0  0  0  0  0  0  0  0  0  0  0
    0.7969    0.8216    5.1395 H   0  0  0  0  0  0  0  0  0  0  0  0
   -2.1607    1.7150    2.4552 H   0  0  0  0  0  0  0  0  0  0  0  0
   -0.1752    5.2112    3.7654 H   0  0  0  0  0  0  0  0  0  0  0  0
   -2.0315    4.2277    2.3334 H   0  0  0  0  0  0  0  0  0  0  0  0
  1  2  3  0
  2  3  1  0
  3 14  1  0
  3  4  1  0
  3 21  1  6
  4  5  2  3
  4  6  1  0
  5 22  1  0
  6  7  1  0
  7 13  1  0
  7  8  2  0
  8  9  1  0
  8 23  1  0
  9 10  1  0
  9 24  1  0
  9 25  1  0
 10 11  1  0
 10 26  1  0
 10 27  1  0
 11 12  2  0
 11 13  1  0
 13 14  1  0
 13 28  1  6
 14 15  1  0
 14 29  1  1
 15 19  1  0
 15 16  2  0
 16 17  1  0
 16 30  1  0
 17 18  2  0
 17 32  1  0
 18 19  1  0
 18 31  1  0
 19 20  1  0
M  CHG  1  17   1
M  END
>  <i_m_ct_stereo_status>  (259) 
1

>  <s_m_source_file>  (259) 
/var/tmp/pbs.5076255.sched01/tmp0pz6dnip/90w4u7_w6b.sdf

>  <i_m_source_file_index>  (259) 
18

>  <i_lp_mmshare_version>  (259) 
48012

>  <i_f3d_flags>  (259) 
0

>  <s_epik_input>  (259) 
W25IXTFbY0hdbltjSF1jMVtDQEBIXShbQ0BIXShDI04pL0MoTzIpPU4vW0hdKVtDQEhdKEMyPTMpQyg9TylbQ0gyXVtDSDJdW0NIXTM=

>  <s_epik_cmdline>  (259) 
J2VwaWtfcHl0aG9uJywgJy1waHQnLCAnMi4wJywgJy1waCcsICc3LjAnLCAnLXRuJywgJzgnLCAnLW1hJywgJzIwMCcsICctaW1hZScsICc8aW5maWxlLm1hZT4nLCAnLW9tYWUnLCAnPG91dGZpbGUubWFlPic=

>  <r_lp_tautomer_probability>  (259) 
0.99995

>  <r_epik_Ionization_Penalty>  (259) 
2.28001

>  <r_epik_Ionization_Penalty_Charging>  (259) 
0

>  <r_epik_Ionization_Penalty_Neutral>  (259) 
2.28001

>  <r_epik_State_Penalty>  (259) 
1.67386

>  <r_epik_Charging_Adjusted_Penalty>  (259) 
1.67386

>  <i_epik_Tot_Q>  (259) 
1

>  <i_epik_Tot_abs_Q>  (259) 
1

>  <s_epik_Chemistry_Notes>  (259) 
This compound has an imine and may undergo hydrolysis.

>  <s_lp_Force_Field>  (259) 
OPLS3e

>  <r_lp_Energy>  (259) 
13.7474

>  <b_lp_Chiralities_Consistent>  (259) 
1

>  <s_lp_Variant>  (259) 
66:0-7

>  <s_i_glide_gridfile>  (259) 
pfpi4k_grid

>  <i_i_glide_lignum>  (259) 
18

>  <i_i_glide_rotatable_bonds>  (259) 
2

>  <r_i_docking_score>  (259) 
-3.72125

>  <r_i_glide_ligand_efficiency>  (259) 
-0.195855

>  <r_i_glide_ligand_efficiency_sa>  (259) 
-0.52262

>  <r_i_glide_ligand_efficiency_ln>  (259) 
-0.943416

>  <r_i_glide_gscore>  (259) 
-3.72125

>  <r_i_glide_lipo>  (259) 
-0.00218221

>  <r_i_glide_hbond>  (259) 
-0.16

>  <r_i_glide_metal>  (259) 
-0

>  <r_i_glide_rewards>  (259) 
-1.65499

>  <r_i_glide_evdw>  (259) 
-17.5609

>  <r_i_glide_ecoul>  (259) 
-6.26011

>  <r_i_glide_erotb>  (259) 
0.266555

>  <r_i_glide_esite>  (259) 
-0.353569

>  <r_i_glide_emodel>  (259) 
-31.2065

>  <r_i_glide_energy>  (259) 
-23.821

>  <r_i_glide_einternal>  (259) 
1.17918

>  <r_i_glide_intrahb_reward>  (259) 
-0

>  <i_i_glide_confnum>  (259) 
3

>  <i_i_glide_posenum>  (259) 
22

>  <r_i_glide_eff_state_penalty>  (259) 
0

>  <ligand_id>  (259) 
66

>  <original_smiles>  (259) 
N#CC1C(=N)OC2=CCCC(=O)C2C1c1cnc[nH]1

>  <smiles>  (259) 
[H]N=C1OC2=C([H])C([H])([H])C([H])([H])C(=O)C2([H])C([H])(c2c([H])[n+]([H])c([H])n2[H])C1([H])C#N

$$$$
66:7:0
     RDKit          3D

 32 34  0  0  1  0  0  0  0  0999 V2000
    7.7003   -2.6428   -1.1019 N   0  0  0  0  0  0  0  0  0  0  0  0
    7.3515   -3.3111   -0.2256 C   0  0  0  0  0  0  0  0  0  0  0  0
    6.8988   -4.1573    0.8917 C   0  0  2  0  0  0  0  0  0  0  0  0
    8.0422   -5.0300    1.4149 C   0  0  0  0  0  0  0  0  0  0  0  0
    9.2516   -4.7127    1.2879 N   0  0  0  0  0  0  0  0  0  0  0  0
    7.7103   -6.1554    2.1342 O   0  0  0  0  0  0  0  0  0  0  0  0
    6.5378   -6.8099    1.8700 C   0  0  0  0  0  0  0  0  0  0  0  0
    6.5579   -8.1542    1.8282 C   0  0  0  0  0  0  0  0  0  0  0  0
    5.3524   -9.0041    1.5017 C   0  0  0  0  0  0  0  0  0  0  0  0
    4.2787   -8.1935    0.7623 C   0  0  0  0  0  0  0  0  0  0  0  0
    4.0597   -6.8097    1.3771 C   0  0  0  0  0  0  0  0  0  0  0  0
    2.9279   -6.3932    1.6144 O   0  0  0  0  0  0  0  0  0  0  0  0
    5.3025   -5.9384    1.6432 C   0  0  2  0  0  0  0  0  0  0  0  0
    5.6143   -4.9280    0.5236 C   0  0  1  0  0  0  0  0  0  0  0  0
    4.4832   -3.9730    0.2342 C   0  0  0  0  0  0  0  0  0  0  0  0
    4.1565   -2.7201    0.7285 C   0  0  0  0  0  0  0  0  0  0  0  0
    3.0227   -2.3161    0.0688 N   0  0  0  0  0  0  0  0  0  0  0  0
    2.6512   -3.2492   -0.8119 C   0  0  0  0  0  0  0  0  0  0  0  0
    3.5231   -4.2517   -0.7170 N   0  0  0  0  0  0  0  0  0  0  0  0
    3.4613   -5.0908   -1.2988 H   0  0  0  0  0  0  0  0  0  0  0  0
    6.6794   -3.4690    1.7096 H   0  0  0  0  0  0  0  0  0  0  0  0
    9.3894   -3.8493    0.7791 H   0  0  0  0  0  0  0  0  0  0  0  0
    7.4768   -8.6854    2.0247 H   0  0  0  0  0  0  0  0  0  0  0  0
    5.6709   -9.8408    0.8787 H   0  0  0  0  0  0  0  0  0  0  0  0
    4.9546   -9.4278    2.4244 H   0  0  0  0  0  0  0  0  0  0  0  0
    4.5995   -8.0388   -0.2701 H   0  0  0  0  0  0  0  0  0  0  0  0
    3.3442   -8.7533    0.7312 H   0  0  0  0  0  0  0  0  0  0  0  0
    5.1214   -5.3956    2.5729 H   0  0  0  0  0  0  0  0  0  0  0  0
    5.8049   -5.4809   -0.3969 H   0  0  0  0  0  0  0  0  0  0  0  0
    4.6459   -2.0990    1.4743 H   0  0  0  0  0  0  0  0  0  0  0  0
    1.8104   -3.1754   -1.4774 H   0  0  0  0  0  0  0  0  0  0  0  0
    2.5050   -1.4447    0.1758 H   0  0  0  0  0  0  0  0  0  0  0  0
  1  2  3  0
  2  3  1  0
  3 14  1  0
  3  4  1  0
  3 21  1  1
  4  5  2  3
  4  6  1  0
  5 22  1  0
  6  7  1  0
  7 13  1  0
  7  8  2  0
  8  9  1  0
  8 23  1  0
  9 10  1  0
  9 24  1  0
  9 25  1  0
 10 11  1  0
 10 26  1  0
 10 27  1  0
 11 12  2  0
 11 13  1  0
 13 14  1  0
 13 28  1  1
 14 15  1  0
 14 29  1  6
 15 19  1  0
 15 16  2  0
 16 17  1  0
 16 30  1  0
 17 18  2  0
 17 32  1  0
 18 19  1  0
 18 31  1  0
 19 20  1  0
M  CHG  1  17   1
M  END
>  <i_m_ct_stereo_status>  (260) 
1

>  <s_m_source_file>  (260) 
/var/tmp/pbs.5076255.sched01/tmp0pz6dnip/90w4u7_w6b.sdf

>  <i_m_source_file_index>  (260) 
19

>  <i_lp_mmshare_version>  (260) 
48012

>  <i_f3d_flags>  (260) 
0

>  <s_epik_input>  (260) 
W25IXTFbY0hdbltjSF1jMVtDQEBIXShbQ0BIXShDI04pL0MoTzIpPU4vW0hdKVtDQEhdKEMyPTMpQyg9TylbQ0gyXVtDSDJdW0NIXTM=

>  <s_epik_cmdline>  (260) 
J2VwaWtfcHl0aG9uJywgJy1waHQnLCAnMi4wJywgJy1waCcsICc3LjAnLCAnLXRuJywgJzgnLCAnLW1hJywgJzIwMCcsICctaW1hZScsICc8aW5maWxlLm1hZT4nLCAnLW9tYWUnLCAnPG91dGZpbGUubWFlPic=

>  <r_lp_tautomer_probability>  (260) 
0.99995

>  <r_epik_Ionization_Penalty>  (260) 
2.28001

>  <r_epik_Ionization_Penalty_Charging>  (260) 
0

>  <r_epik_Ionization_Penalty_Neutral>  (260) 
2.28001

>  <r_epik_State_Penalty>  (260) 
1.67386

>  <r_epik_Charging_Adjusted_Penalty>  (260) 
1.67386

>  <i_epik_Tot_Q>  (260) 
1

>  <i_epik_Tot_abs_Q>  (260) 
1

>  <s_epik_Chemistry_Notes>  (260) 
This compound has an imine and may undergo hydrolysis.

>  <s_lp_Force_Field>  (260) 
OPLS3e

>  <r_lp_Energy>  (260) 
13.5806

>  <b_lp_Chiralities_Consistent>  (260) 
1

>  <s_lp_Variant>  (260) 
66:0-8

>  <s_i_glide_gridfile>  (260) 
pfpi4k_grid

>  <i_i_glide_lignum>  (260) 
19

>  <i_i_glide_rotatable_bonds>  (260) 
2

>  <r_i_docking_score>  (260) 
-4.96389

>  <r_i_glide_ligand_efficiency>  (260) 
-0.261258

>  <r_i_glide_ligand_efficiency_sa>  (260) 
-0.69714

>  <r_i_glide_ligand_efficiency_ln>  (260) 
-1.25845

>  <r_i_glide_gscore>  (260) 
-4.96389

>  <r_i_glide_lipo>  (260) 
-0.455494

>  <r_i_glide_hbond>  (260) 
-0.2205

>  <r_i_glide_metal>  (260) 
-0

>  <r_i_glide_rewards>  (260) 
-2.14567

>  <r_i_glide_evdw>  (260) 
-18.2613

>  <r_i_glide_ecoul>  (260) 
-9.18663

>  <r_i_glide_erotb>  (260) 
0.266555

>  <r_i_glide_esite>  (260) 
-0.117718

>  <r_i_glide_emodel>  (260) 
-37.276

>  <r_i_glide_energy>  (260) 
-27.448

>  <r_i_glide_einternal>  (260) 
0.950745

>  <r_i_glide_intrahb_reward>  (260) 
-0

>  <i_i_glide_confnum>  (260) 
3

>  <i_i_glide_posenum>  (260) 
1

>  <r_i_glide_eff_state_penalty>  (260) 
0

>  <ligand_id>  (260) 
66

>  <original_smiles>  (260) 
N#CC1C(=N)OC2=CCCC(=O)C2C1c1cnc[nH]1

>  <smiles>  (260) 
[H]N=C1OC2=C([H])C([H])([H])C([H])([H])C(=O)C2([H])C([H])(c2c([H])[n+]([H])c([H])n2[H])C1([H])C#N

$$$$
66:7:1
     RDKit          3D

 32 34  0  0  1  0  0  0  0  0999 V2000
    7.2017   -2.2615   -1.1287 N   0  0  0  0  0  0  0  0  0  0  0  0
    6.9805   -2.9467   -0.2273 C   0  0  0  0  0  0  0  0  0  0  0  0
    6.6898   -3.8154    0.9253 C   0  0  2  0  0  0  0  0  0  0  0  0
    7.5906   -5.0513    0.8909 C   0  0  0  0  0  0  0  0  0  0  0  0
    8.7075   -5.0835    0.3021 N   0  0  0  0  0  0  0  0  0  0  0  0
    7.1585   -6.1585    1.5870 O   0  0  0  0  0  0  0  0  0  0  0  0
    5.8141   -6.3869    1.7511 C   0  0  0  0  0  0  0  0  0  0  0  0
    5.3493   -7.6420    1.5972 C   0  0  0  0  0  0  0  0  0  0  0  0
    3.8887   -8.0196    1.7008 C   0  0  0  0  0  0  0  0  0  0  0  0
    2.9720   -6.8016    1.5001 C   0  0  0  0  0  0  0  0  0  0  0  0
    3.4719   -5.5738    2.2653 C   0  0  0  0  0  0  0  0  0  0  0  0
    2.7098   -4.9152    2.9715 O   0  0  0  0  0  0  0  0  0  0  0  0
    4.9509   -5.1712    2.0964 C   0  0  2  0  0  0  0  0  0  0  0  0
    5.1807   -4.0941    1.0269 C   0  0  1  0  0  0  0  0  0  0  0  0
    4.4359   -2.8054    1.2871 C   0  0  0  0  0  0  0  0  0  0  0  0
    4.2281   -2.0461    2.4224 C   0  0  0  0  0  0  0  0  0  0  0  0
    3.4710   -0.9624    2.0473 N   0  0  0  0  0  0  0  0  0  0  0  0
    3.2158   -1.0196    0.7390 C   0  0  0  0  0  0  0  0  0  0  0  0
    3.7993   -2.1242    0.2728 N   0  0  0  0  0  0  0  0  0  0  0  0
    3.7387   -2.4163   -0.6967 H   0  0  0  0  0  0  0  0  0  0  0  0
    6.9983   -3.2436    1.7953 H   0  0  0  0  0  0  0  0  0  0  0  0
    8.9558   -4.2364   -0.1904 H   0  0  0  0  0  0  0  0  0  0  0  0
    6.0323   -8.4462    1.3794 H   0  0  0  0  0  0  0  0  0  0  0  0
    3.6750   -8.7693    0.9400 H   0  0  0  0  0  0  0  0  0  0  0  0
    3.7156   -8.4895    2.6694 H   0  0  0  0  0  0  0  0  0  0  0  0
    2.9491   -6.5344    0.4436 H   0  0  0  0  0  0  0  0  0  0  0  0
    1.9492   -7.0424    1.7943 H   0  0  0  0  0  0  0  0  0  0  0  0
    5.2951   -4.8006    3.0649 H   0  0  0  0  0  0  0  0  0  0  0  0
    4.8376   -4.4817    0.0672 H   0  0  0  0  0  0  0  0  0  0  0  0
    4.5435   -2.1976    3.4512 H   0  0  0  0  0  0  0  0  0  0  0  0
    2.6202   -0.3256    0.1693 H   0  0  0  0  0  0  0  0  0  0  0  0
    3.1301   -0.2288    2.6587 H   0  0  0  0  0  0  0  0  0  0  0  0
  1  2  3  0
  2  3  1  0
  3 14  1  0
  3  4  1  0
  3 21  1  1
  4  5  2  3
  4  6  1  0
  5 22  1  0
  6  7  1  0
  7 13  1  0
  7  8  2  0
  8  9  1  0
  8 23  1  0
  9 10  1  0
  9 24  1  0
  9 25  1  0
 10 11  1  0
 10 26  1  0
 10 27  1  0
 11 12  2  0
 11 13  1  0
 13 14  1  0
 13 28  1  1
 14 15  1  0
 14 29  1  6
 15 19  1  0
 15 16  2  0
 16 17  1  0
 16 30  1  0
 17 18  2  0
 17 32  1  0
 18 19  1  0
 18 31  1  0
 19 20  1  0
M  CHG  1  17   1
M  END
>  <i_m_ct_stereo_status>  (261) 
1

>  <s_m_source_file>  (261) 
/var/tmp/pbs.5076255.sched01/tmp0pz6dnip/90w4u7_w6b.sdf

>  <i_m_source_file_index>  (261) 
19

>  <i_lp_mmshare_version>  (261) 
48012

>  <i_f3d_flags>  (261) 
0

>  <s_epik_input>  (261) 
W25IXTFbY0hdbltjSF1jMVtDQEBIXShbQ0BIXShDI04pL0MoTzIpPU4vW0hdKVtDQEhdKEMyPTMpQyg9TylbQ0gyXVtDSDJdW0NIXTM=

>  <s_epik_cmdline>  (261) 
J2VwaWtfcHl0aG9uJywgJy1waHQnLCAnMi4wJywgJy1waCcsICc3LjAnLCAnLXRuJywgJzgnLCAnLW1hJywgJzIwMCcsICctaW1hZScsICc8aW5maWxlLm1hZT4nLCAnLW9tYWUnLCAnPG91dGZpbGUubWFlPic=

>  <r_lp_tautomer_probability>  (261) 
0.99995

>  <r_epik_Ionization_Penalty>  (261) 
2.28001

>  <r_epik_Ionization_Penalty_Charging>  (261) 
0

>  <r_epik_Ionization_Penalty_Neutral>  (261) 
2.28001

>  <r_epik_State_Penalty>  (261) 
1.67386

>  <r_epik_Charging_Adjusted_Penalty>  (261) 
1.67386

>  <i_epik_Tot_Q>  (261) 
1

>  <i_epik_Tot_abs_Q>  (261) 
1

>  <s_epik_Chemistry_Notes>  (261) 
This compound has an imine and may undergo hydrolysis.

>  <s_lp_Force_Field>  (261) 
OPLS3e

>  <r_lp_Energy>  (261) 
13.5806

>  <b_lp_Chiralities_Consistent>  (261) 
1

>  <s_lp_Variant>  (261) 
66:0-8

>  <s_i_glide_gridfile>  (261) 
pfpi4k_grid

>  <i_i_glide_lignum>  (261) 
19

>  <i_i_glide_rotatable_bonds>  (261) 
2

>  <r_i_docking_score>  (261) 
-3.88372

>  <r_i_glide_ligand_efficiency>  (261) 
-0.204406

>  <r_i_glide_ligand_efficiency_sa>  (261) 
-0.545438

>  <r_i_glide_ligand_efficiency_ln>  (261) 
-0.984607

>  <r_i_glide_gscore>  (261) 
-3.88372

>  <r_i_glide_lipo>  (261) 
-0.351852

>  <r_i_glide_hbond>  (261) 
-0.16

>  <r_i_glide_metal>  (261) 
-0

>  <r_i_glide_rewards>  (261) 
-1.92165

>  <r_i_glide_evdw>  (261) 
-16.3564

>  <r_i_glide_ecoul>  (261) 
-5.29934

>  <r_i_glide_erotb>  (261) 
0.266555

>  <r_i_glide_esite>  (261) 
-0.104054

>  <r_i_glide_emodel>  (261) 
-29.1612

>  <r_i_glide_energy>  (261) 
-21.6558

>  <r_i_glide_einternal>  (261) 
1.11046

>  <r_i_glide_intrahb_reward>  (261) 
-0

>  <i_i_glide_confnum>  (261) 
2

>  <i_i_glide_posenum>  (261) 
27

>  <r_i_glide_eff_state_penalty>  (261) 
0

>  <ligand_id>  (261) 
66

>  <original_smiles>  (261) 
N#CC1C(=N)OC2=CCCC(=O)C2C1c1cnc[nH]1

>  <smiles>  (261) 
[H]N=C1OC2=C([H])C([H])([H])C([H])([H])C(=O)C2([H])C([H])(c2c([H])[n+]([H])c([H])n2[H])C1([H])C#N

$$$$
66:7:2
     RDKit          3D

 32 34  0  0  1  0  0  0  0  0999 V2000
    6.3627   -1.4644   -0.3272 N   0  0  0  0  0  0  0  0  0  0  0  0
    5.4471   -1.8450    0.2629 C   0  0  0  0  0  0  0  0  0  0  0  0
    4.2728   -2.3349    1.0008 C   0  0  2  0  0  0  0  0  0  0  0  0
    4.5573   -2.3219    2.5072 C   0  0  0  0  0  0  0  0  0  0  0  0
    5.3954   -1.5484    3.0534 N   0  0  0  0  0  0  0  0  0  0  0  0
    3.8158   -3.1750    3.2932 O   0  0  0  0  0  0  0  0  0  0  0  0
    3.3593   -4.3608    2.7753 C   0  0  0  0  0  0  0  0  0  0  0  0
    3.4396   -5.4664    3.5431 C   0  0  0  0  0  0  0  0  0  0  0  0
    3.0123   -6.8460    3.0851 C   0  0  0  0  0  0  0  0  0  0  0  0
    2.9617   -6.9423    1.5539 C   0  0  0  0  0  0  0  0  0  0  0  0
    2.2831   -5.7239    0.9356 C   0  0  0  0  0  0  0  0  0  0  0  0
    1.3493   -5.8623    0.1473 O   0  0  0  0  0  0  0  0  0  0  0  0
    2.7807   -4.3236    1.3601 C   0  0  2  0  0  0  0  0  0  0  0  0
    3.8332   -3.6971    0.4248 C   0  0  1  0  0  0  0  0  0  0  0  0
    3.3715   -3.5251   -1.0085 C   0  0  0  0  0  0  0  0  0  0  0  0
    2.1301   -3.4509   -1.5904 C   0  0  0  0  0  0  0  0  0  0  0  0
    2.3107   -3.2898   -2.9340 N   0  0  0  0  0  0  0  0  0  0  0  0
    3.6153   -3.2796   -3.2153 C   0  0  0  0  0  0  0  0  0  0  0  0
    4.2608   -3.4211   -2.0530 N   0  0  0  0  0  0  0  0  0  0  0  0
    5.2681   -3.4763   -1.9749 H   0  0  0  0  0  0  0  0  0  0  0  0
    3.4767   -1.6059    0.8412 H   0  0  0  0  0  0  0  0  0  0  0  0
    5.9061   -0.9349    2.4264 H   0  0  0  0  0  0  0  0  0  0  0  0
    3.8393   -5.4029    4.5413 H   0  0  0  0  0  0  0  0  0  0  0  0
    3.7285   -7.5682    3.4687 H   0  0  0  0  0  0  0  0  0  0  0  0
    2.0469   -7.0793    3.5318 H   0  0  0  0  0  0  0  0  0  0  0  0
    3.9729   -6.9957    1.1511 H   0  0  0  0  0  0  0  0  0  0  0  0
    2.4435   -7.8532    1.2505 H   0  0  0  0  0  0  0  0  0  0  0  0
    1.9122   -3.6623    1.4016 H   0  0  0  0  0  0  0  0  0  0  0  0
    4.6974   -4.3602    0.4025 H   0  0  0  0  0  0  0  0  0  0  0  0
    1.1358   -3.4907   -1.1661 H   0  0  0  0  0  0  0  0  0  0  0  0
    4.0549   -3.2271   -4.1952 H   0  0  0  0  0  0  0  0  0  0  0  0
    1.5630   -3.2686   -3.6169 H   0  0  0  0  0  0  0  0  0  0  0  0
  1  2  3  0
  2  3  1  0
  3 14  1  0
  3  4  1  0
  3 21  1  1
  4  5  2  3
  4  6  1  0
  5 22  1  0
  6  7  1  0
  7 13  1  0
  7  8  2  0
  8  9  1  0
  8 23  1  0
  9 10  1  0
  9 24  1  0
  9 25  1  0
 10 11  1  0
 10 26  1  0
 10 27  1  0
 11 12  2  0
 11 13  1  0
 13 14  1  0
 13 28  1  1
 14 15  1  0
 14 29  1  6
 15 19  1  0
 15 16  2  0
 16 17  1  0
 16 30  1  0
 17 18  2  0
 17 32  1  0
 18 19  1  0
 18 31  1  0
 19 20  1  0
M  CHG  1  17   1
M  END
>  <i_m_ct_stereo_status>  (262) 
1

>  <s_m_source_file>  (262) 
/var/tmp/pbs.5076255.sched01/tmp0pz6dnip/90w4u7_w6b.sdf

>  <i_m_source_file_index>  (262) 
19

>  <i_lp_mmshare_version>  (262) 
48012

>  <i_f3d_flags>  (262) 
0

>  <s_epik_input>  (262) 
W25IXTFbY0hdbltjSF1jMVtDQEBIXShbQ0BIXShDI04pL0MoTzIpPU4vW0hdKVtDQEhdKEMyPTMpQyg9TylbQ0gyXVtDSDJdW0NIXTM=

>  <s_epik_cmdline>  (262) 
J2VwaWtfcHl0aG9uJywgJy1waHQnLCAnMi4wJywgJy1waCcsICc3LjAnLCAnLXRuJywgJzgnLCAnLW1hJywgJzIwMCcsICctaW1hZScsICc8aW5maWxlLm1hZT4nLCAnLW9tYWUnLCAnPG91dGZpbGUubWFlPic=

>  <r_lp_tautomer_probability>  (262) 
0.99995

>  <r_epik_Ionization_Penalty>  (262) 
2.28001

>  <r_epik_Ionization_Penalty_Charging>  (262) 
0

>  <r_epik_Ionization_Penalty_Neutral>  (262) 
2.28001

>  <r_epik_State_Penalty>  (262) 
1.67386

>  <r_epik_Charging_Adjusted_Penalty>  (262) 
1.67386

>  <i_epik_Tot_Q>  (262) 
1

>  <i_epik_Tot_abs_Q>  (262) 
1

>  <s_epik_Chemistry_Notes>  (262) 
This compound has an imine and may undergo hydrolysis.

>  <s_lp_Force_Field>  (262) 
OPLS3e

>  <r_lp_Energy>  (262) 
13.5806

>  <b_lp_Chiralities_Consistent>  (262) 
1

>  <s_lp_Variant>  (262) 
66:0-8

>  <s_i_glide_gridfile>  (262) 
pfpi4k_grid

>  <i_i_glide_lignum>  (262) 
19

>  <i_i_glide_rotatable_bonds>  (262) 
2

>  <r_i_docking_score>  (262) 
-3.7865

>  <r_i_glide_ligand_efficiency>  (262) 
-0.19929

>  <r_i_glide_ligand_efficiency_sa>  (262) 
-0.531785

>  <r_i_glide_ligand_efficiency_ln>  (262) 
-0.95996

>  <r_i_glide_gscore>  (262) 
-3.7865

>  <r_i_glide_lipo>  (262) 
-0.212873

>  <r_i_glide_hbond>  (262) 
-0.31814

>  <r_i_glide_metal>  (262) 
-0

>  <r_i_glide_rewards>  (262) 
-1.86085

>  <r_i_glide_evdw>  (262) 
-16.2951

>  <r_i_glide_ecoul>  (262) 
-5.24656

>  <r_i_glide_erotb>  (262) 
0.266555

>  <r_i_glide_esite>  (262) 
-0.0594517

>  <r_i_glide_emodel>  (262) 
-28.8175

>  <r_i_glide_energy>  (262) 
-21.5417

>  <r_i_glide_einternal>  (262) 
1.05576

>  <r_i_glide_intrahb_reward>  (262) 
-0

>  <i_i_glide_confnum>  (262) 
2

>  <i_i_glide_posenum>  (262) 
13

>  <r_i_glide_eff_state_penalty>  (262) 
0

>  <ligand_id>  (262) 
66

>  <original_smiles>  (262) 
N#CC1C(=N)OC2=CCCC(=O)C2C1c1cnc[nH]1

>  <smiles>  (262) 
[H]N=C1OC2=C([H])C([H])([H])C([H])([H])C(=O)C2([H])C([H])(c2c([H])[n+]([H])c([H])n2[H])C1([H])C#N

$$$$
66:8:0
     RDKit          3D

 31 33  0  0  1  0  0  0  0  0999 V2000
    6.9863   -2.2591   -1.5834 N   0  0  0  0  0  0  0  0  0  0  0  0
    6.9424   -2.8284   -0.5800 C   0  0  0  0  0  0  0  0  0  0  0  0
    6.8899   -3.5609    0.6829 C   0  0  2  0  0  0  0  0  0  0  0  0
    8.1225   -4.4421    0.8162 C   0  0  0  0  0  0  0  0  0  0  0  0
    9.3447   -3.8868    0.8814 N   0  0  0  0  0  0  0  0  0  0  0  0
    8.0600   -5.6385    1.4905 O   0  0  0  0  0  0  0  0  0  0  0  0
    6.8549   -6.2706    1.6511 C   0  0  0  0  0  0  0  0  0  0  0  0
    6.8088   -7.6119    1.5281 C   0  0  0  0  0  0  0  0  0  0  0  0
    5.5325   -8.4181    1.5692 C   0  0  0  0  0  0  0  0  0  0  0  0
    4.2899   -7.5577    1.2982 C   0  0  0  0  0  0  0  0  0  0  0  0
    4.3690   -6.2227    2.0337 C   0  0  0  0  0  0  0  0  0  0  0  0
    3.4342   -5.8320    2.7205 O   0  0  0  0  0  0  0  0  0  0  0  0
    5.6453   -5.3767    1.8880 C   0  0  2  0  0  0  0  0  0  0  0  0
    5.5630   -4.3245    0.7758 C   0  0  1  0  0  0  0  0  0  0  0  0
    4.4065   -3.3706    0.9271 C   0  0  0  0  0  0  0  0  0  0  0  0
    3.4573   -3.0320   -0.0129 C   0  0  0  0  0  0  0  0  0  0  0  0
    2.6228   -2.1230    0.6103 N   0  0  0  0  0  0  0  0  0  0  0  0
    3.0832   -1.9352    1.8539 C   0  0  0  0  0  0  0  0  0  0  0  0
    4.1833   -2.6382    2.1011 N   0  0  0  0  0  0  0  0  0  0  0  0
    1.8689   -1.6132    0.1518 H   0  0  0  0  0  0  0  0  0  0  0  0
    9.2838   -2.9128    0.5524 H   0  0  0  0  0  0  0  0  0  0  0  0
    7.7092   -8.1666    1.3458 H   0  0  0  0  0  0  0  0  0  0  0  0
    5.5858   -9.1983    0.8102 H   0  0  0  0  0  0  0  0  0  0  0  0
    5.4634   -8.9101    2.5399 H   0  0  0  0  0  0  0  0  0  0  0  0
    4.2031   -7.3276    0.2374 H   0  0  0  0  0  0  0  0  0  0  0  0
    3.3775   -8.0879    1.5807 H   0  0  0  0  0  0  0  0  0  0  0  0
    5.8081   -4.8595    2.8368 H   0  0  0  0  0  0  0  0  0  0  0  0
    5.4479   -4.8632   -0.1668 H   0  0  0  0  0  0  0  0  0  0  0  0
    3.3281   -3.3311   -1.0447 H   0  0  0  0  0  0  0  0  0  0  0  0
    2.6244   -1.2610    2.5656 H   0  0  0  0  0  0  0  0  0  0  0  0
    6.9527   -2.8210    1.4750 H   0  0  0  0  0  0  0  0  0  0  0  0
  1  2  3  0
  2  3  1  0
  3 14  1  0
  3  4  1  0
  3 31  1  1
  4  5  1  0
  4  6  1  0
  5 21  1  0
  6  7  1  0
  7 13  1  0
  7  8  2  0
  8  9  1  0
  8 22  1  0
  9 10  1  0
  9 23  1  0
  9 24  1  0
 10 11  1  0
 10 25  1  0
 10 26  1  0
 11 12  2  0
 11 13  1  0
 13 14  1  0
 13 27  1  1
 14 28  1  6
 14 15  1  0
 15 16  2  0
 15 19  1  0
 16 29  1  0
 16 17  1  0
 17 20  1  0
 17 18  1  0
 18 30  1  0
 18 19  2  0
M  CHG  2   4   1   5  -1
M  END
>  <i_m_ct_stereo_status>  (263) 
1

>  <s_m_source_file>  (263) 
/var/tmp/pbs.5076255.sched01/tmp0pz6dnip/90w4u7_w6b.sdf

>  <i_m_source_file_index>  (263) 
20

>  <i_lp_mmshare_version>  (263) 
48012

>  <i_f3d_flags>  (263) 
0

>  <s_epik_input>  (263) 
W25IXTFbY0hdbltjSF1jMVtDQEBIXShbQ0BIXShDI04pL0MoTzIpPU4vW0hdKVtDQEhdKEMyPTMpQyg9TylbQ0gyXVtDSDJdW0NIXTM=

>  <s_epik_cmdline>  (263) 
J2VwaWtfcHl0aG9uJywgJy1waHQnLCAnMi4wJywgJy1waCcsICc3LjAnLCAnLXRuJywgJzgnLCAnLW1hJywgJzIwMCcsICctaW1hZScsICc8aW5maWxlLm1hZT4nLCAnLW9tYWUnLCAnPG91dGZpbGUubWFlPic=

>  <r_lp_tautomer_probability>  (263) 
0.499975

>  <r_epik_Ionization_Penalty>  (263) 
1.26972

>  <r_epik_Ionization_Penalty_Charging>  (263) 
1.26972

>  <r_epik_Ionization_Penalty_Neutral>  (263) 
8.80052e-08

>  <r_epik_State_Penalty>  (263) 
1.68515

>  <r_epik_Charging_Adjusted_Penalty>  (263) 
2.95487

>  <i_epik_Tot_Q>  (263) 
0

>  <i_epik_Tot_abs_Q>  (263) 
2

>  <s_lp_Force_Field>  (263) 
OPLS3e

>  <r_lp_Energy>  (263) 
6.97653

>  <b_lp_Chiralities_Consistent>  (263) 
1

>  <s_lp_Variant>  (263) 
66:0-9

>  <s_i_glide_gridfile>  (263) 
pfpi4k_grid

>  <i_i_glide_lignum>  (263) 
20

>  <i_i_glide_rotatable_bonds>  (263) 
2

>  <r_i_docking_score>  (263) 
-4.80403

>  <r_i_glide_ligand_efficiency>  (263) 
-0.252844

>  <r_i_glide_ligand_efficiency_sa>  (263) 
-0.674689

>  <r_i_glide_ligand_efficiency_ln>  (263) 
-1.21793

>  <r_i_glide_gscore>  (263) 
-4.80403

>  <r_i_glide_lipo>  (263) 
-0.70571

>  <r_i_glide_hbond>  (263) 
-0.371583

>  <r_i_glide_metal>  (263) 
-0

>  <r_i_glide_rewards>  (263) 
-1.69409

>  <r_i_glide_evdw>  (263) 
-14.1371

>  <r_i_glide_ecoul>  (263) 
-10.0882

>  <r_i_glide_erotb>  (263) 
0.26836

>  <r_i_glide_esite>  (263) 
-0.0809219

>  <r_i_glide_emodel>  (263) 
-33.3897

>  <r_i_glide_energy>  (263) 
-24.2253

>  <r_i_glide_einternal>  (263) 
0.534697

>  <r_i_glide_intrahb_reward>  (263) 
-0

>  <i_i_glide_confnum>  (263) 
5

>  <i_i_glide_posenum>  (263) 
23

>  <r_i_glide_eff_state_penalty>  (263) 
0

>  <ligand_id>  (263) 
66

>  <original_smiles>  (263) 
N#CC1C(=N)OC2=CCCC(=O)C2C1c1cnc[nH]1

>  <smiles>  (263) 
[H][N-][C+]1OC2=C([H])C([H])([H])C([H])([H])C(=O)C2([H])C([H])(c2nc([H])n([H])c2[H])C1([H])C#N

$$$$
66:8:1
     RDKit          3D

 31 33  0  0  1  0  0  0  0  0999 V2000
    5.7302   -0.2849    2.6816 N   0  0  0  0  0  0  0  0  0  0  0  0
    5.6594   -1.2274    2.0072 C   0  0  0  0  0  0  0  0  0  0  0  0
    5.5561   -2.4263    1.1551 C   0  0  2  0  0  0  0  0  0  0  0  0
    6.5921   -2.4204    0.0332 C   0  0  0  0  0  0  0  0  0  0  0  0
    7.8999   -2.4220    0.2870 N   0  0  0  0  0  0  0  0  0  0  0  0
    6.3360   -3.0003   -1.1781 O   0  0  0  0  0  0  0  0  0  0  0  0
    5.0519   -3.2058   -1.5811 C   0  0  0  0  0  0  0  0  0  0  0  0
    4.7643   -2.9834   -2.8761 C   0  0  0  0  0  0  0  0  0  0  0  0
    3.3741   -3.0717   -3.4526 C   0  0  0  0  0  0  0  0  0  0  0  0
    2.3049   -2.9823   -2.3584 C   0  0  0  0  0  0  0  0  0  0  0  0
    2.6483   -3.7868   -1.1044 C   0  0  0  0  0  0  0  0  0  0  0  0
    1.8264   -4.5523   -0.6029 O   0  0  0  0  0  0  0  0  0  0  0  0
    4.0545   -3.6048   -0.4986 C   0  0  2  0  0  0  0  0  0  0  0  0
    4.1127   -2.5779    0.6387 C   0  0  1  0  0  0  0  0  0  0  0  0
    3.1649   -2.8838    1.7670 C   0  0  0  0  0  0  0  0  0  0  0  0
    2.1444   -2.1014    2.2581 C   0  0  0  0  0  0  0  0  0  0  0  0
    1.5849   -2.8289    3.2989 N   0  0  0  0  0  0  0  0  0  0  0  0
    2.2639   -3.9742    3.3967 C   0  0  0  0  0  0  0  0  0  0  0  0
    3.2428   -4.0722    2.4994 N   0  0  0  0  0  0  0  0  0  0  0  0
    0.8088   -2.5390    3.8736 H   0  0  0  0  0  0  0  0  0  0  0  0
    8.0226   -2.1873    1.2775 H   0  0  0  0  0  0  0  0  0  0  0  0
    5.5592   -2.6955   -3.5439 H   0  0  0  0  0  0  0  0  0  0  0  0
    3.2340   -2.2535   -4.1595 H   0  0  0  0  0  0  0  0  0  0  0  0
    3.2919   -4.0081   -4.0029 H   0  0  0  0  0  0  0  0  0  0  0  0
    2.2192   -1.9438   -2.0443 H   0  0  0  0  0  0  0  0  0  0  0  0
    1.3345   -3.2929   -2.7355 H   0  0  0  0  0  0  0  0  0  0  0  0
    4.3790   -4.5736   -0.1144 H   0  0  0  0  0  0  0  0  0  0  0  0
    3.8334   -1.6151    0.2045 H   0  0  0  0  0  0  0  0  0  0  0  0
    1.7861   -1.1287    1.9441 H   0  0  0  0  0  0  0  0  0  0  0  0
    2.0409   -4.7352    4.1292 H   0  0  0  0  0  0  0  0  0  0  0  0
    5.7982   -3.2799    1.7913 H   0  0  0  0  0  0  0  0  0  0  0  0
  1  2  3  0
  2  3  1  0
  3 14  1  0
  3  4  1  0
  3 31  1  1
  4  5  1  0
  4  6  1  0
  5 21  1  0
  6  7  1  0
  7 13  1  0
  7  8  2  0
  8  9  1  0
  8 22  1  0
  9 10  1  0
  9 23  1  0
  9 24  1  0
 10 11  1  0
 10 25  1  0
 10 26  1  0
 11 12  2  0
 11 13  1  0
 13 14  1  0
 13 27  1  1
 14 28  1  6
 14 15  1  0
 15 16  2  0
 15 19  1  0
 16 29  1  0
 16 17  1  0
 17 20  1  0
 17 18  1  0
 18 30  1  0
 18 19  2  0
M  CHG  2   4   1   5  -1
M  END
>  <i_m_ct_stereo_status>  (264) 
1

>  <s_m_source_file>  (264) 
/var/tmp/pbs.5076255.sched01/tmp0pz6dnip/90w4u7_w6b.sdf

>  <i_m_source_file_index>  (264) 
20

>  <i_lp_mmshare_version>  (264) 
48012

>  <i_f3d_flags>  (264) 
0

>  <s_epik_input>  (264) 
W25IXTFbY0hdbltjSF1jMVtDQEBIXShbQ0BIXShDI04pL0MoTzIpPU4vW0hdKVtDQEhdKEMyPTMpQyg9TylbQ0gyXVtDSDJdW0NIXTM=

>  <s_epik_cmdline>  (264) 
J2VwaWtfcHl0aG9uJywgJy1waHQnLCAnMi4wJywgJy1waCcsICc3LjAnLCAnLXRuJywgJzgnLCAnLW1hJywgJzIwMCcsICctaW1hZScsICc8aW5maWxlLm1hZT4nLCAnLW9tYWUnLCAnPG91dGZpbGUubWFlPic=

>  <r_lp_tautomer_probability>  (264) 
0.499975

>  <r_epik_Ionization_Penalty>  (264) 
1.26972

>  <r_epik_Ionization_Penalty_Charging>  (264) 
1.26972

>  <r_epik_Ionization_Penalty_Neutral>  (264) 
8.80052e-08

>  <r_epik_State_Penalty>  (264) 
1.68515

>  <r_epik_Charging_Adjusted_Penalty>  (264) 
2.95487

>  <i_epik_Tot_Q>  (264) 
0

>  <i_epik_Tot_abs_Q>  (264) 
2

>  <s_lp_Force_Field>  (264) 
OPLS3e

>  <r_lp_Energy>  (264) 
6.97653

>  <b_lp_Chiralities_Consistent>  (264) 
1

>  <s_lp_Variant>  (264) 
66:0-9

>  <s_i_glide_gridfile>  (264) 
pfpi4k_grid

>  <i_i_glide_lignum>  (264) 
20

>  <i_i_glide_rotatable_bonds>  (264) 
2

>  <r_i_docking_score>  (264) 
-4.02268

>  <r_i_glide_ligand_efficiency>  (264) 
-0.21172

>  <r_i_glide_ligand_efficiency_sa>  (264) 
-0.564954

>  <r_i_glide_ligand_efficiency_ln>  (264) 
-1.01984

>  <r_i_glide_gscore>  (264) 
-4.02268

>  <r_i_glide_lipo>  (264) 
-0.507834

>  <r_i_glide_hbond>  (264) 
-0.146865

>  <r_i_glide_metal>  (264) 
-0

>  <r_i_glide_rewards>  (264) 
-1.84068

>  <r_i_glide_evdw>  (264) 
-19.4112

>  <r_i_glide_ecoul>  (264) 
-5.40107

>  <r_i_glide_erotb>  (264) 
0.26836

>  <r_i_glide_esite>  (264) 
-0.0149373

>  <r_i_glide_emodel>  (264) 
-32.5909

>  <r_i_glide_energy>  (264) 
-24.8123

>  <r_i_glide_einternal>  (264) 
0.223419

>  <r_i_glide_intrahb_reward>  (264) 
-0

>  <i_i_glide_confnum>  (264) 
4

>  <i_i_glide_posenum>  (264) 
14

>  <r_i_glide_eff_state_penalty>  (264) 
0

>  <ligand_id>  (264) 
66

>  <original_smiles>  (264) 
N#CC1C(=N)OC2=CCCC(=O)C2C1c1cnc[nH]1

>  <smiles>  (264) 
[H][N-][C+]1OC2=C([H])C([H])([H])C([H])([H])C(=O)C2([H])C([H])(c2nc([H])n([H])c2[H])C1([H])C#N

$$$$
66:8:2
     RDKit          3D

 31 33  0  0  1  0  0  0  0  0999 V2000
    5.6123   -0.2773    2.7314 N   0  0  0  0  0  0  0  0  0  0  0  0
    5.5608   -1.2071    2.0400 C   0  0  0  0  0  0  0  0  0  0  0  0
    5.4911   -2.3908    1.1628 C   0  0  2  0  0  0  0  0  0  0  0  0
    6.5148   -2.2986    0.0302 C   0  0  0  0  0  0  0  0  0  0  0  0
    7.8257   -2.2772    0.2747 N   0  0  0  0  0  0  0  0  0  0  0  0
    6.2678   -2.8521   -1.1946 O   0  0  0  0  0  0  0  0  0  0  0  0
    4.9900   -3.0978   -1.5961 C   0  0  0  0  0  0  0  0  0  0  0  0
    4.6885   -2.8496   -2.8815 C   0  0  0  0  0  0  0  0  0  0  0  0
    3.3030   -2.9874   -3.4584 C   0  0  0  0  0  0  0  0  0  0  0  0
    2.2492   -2.9622   -2.3489 C   0  0  0  0  0  0  0  0  0  0  0  0
    2.6147   -3.7861   -1.1194 C   0  0  0  0  0  0  0  0  0  0  0  0
    1.8112   -4.5819   -0.6300 O   0  0  0  0  0  0  0  0  0  0  0  0
    4.0257   -3.5843   -0.5196 C   0  0  2  0  0  0  0  0  0  0  0  0
    4.0496   -2.6007    0.6596 C   0  0  1  0  0  0  0  0  0  0  0  0
    3.1330   -2.9906    1.7905 C   0  0  0  0  0  0  0  0  0  0  0  0
    2.8461   -4.2329    2.3177 C   0  0  0  0  0  0  0  0  0  0  0  0
    1.9126   -4.0006    3.3166 N   0  0  0  0  0  0  0  0  0  0  0  0
    1.6934   -2.6842    3.3606 C   0  0  0  0  0  0  0  0  0  0  0  0
    2.4069   -2.0121    2.4673 N   0  0  0  0  0  0  0  0  0  0  0  0
    1.4904   -4.6965    3.9130 H   0  0  0  0  0  0  0  0  0  0  0  0
    7.9495   -2.0660    1.2728 H   0  0  0  0  0  0  0  0  0  0  0  0
    5.4545   -2.5007   -3.5525 H   0  0  0  0  0  0  0  0  0  0  0  0
    3.1186   -2.1402   -4.1228 H   0  0  0  0  0  0  0  0  0  0  0  0
    3.2411   -3.9036   -4.0430 H   0  0  0  0  0  0  0  0  0  0  0  0
    2.1986   -1.9292   -2.0090 H   0  0  0  0  0  0  0  0  0  0  0  0
    1.2668   -3.2634   -2.7177 H   0  0  0  0  0  0  0  0  0  0  0  0
    4.3911   -4.5556   -0.1871 H   0  0  0  0  0  0  0  0  0  0  0  0
    3.7176   -1.6364    0.2655 H   0  0  0  0  0  0  0  0  0  0  0  0
    3.2083   -5.2199    2.0554 H   0  0  0  0  0  0  0  0  0  0  0  0
    1.0090   -2.2117    4.0516 H   0  0  0  0  0  0  0  0  0  0  0  0
    5.7797   -3.2454    1.7773 H   0  0  0  0  0  0  0  0  0  0  0  0
  1  2  3  0
  2  3  1  0
  3 14  1  0
  3  4  1  0
  3 31  1  1
  4  5  1  0
  4  6  1  0
  5 21  1  0
  6  7  1  0
  7 13  1  0
  7  8  2  0
  8  9  1  0
  8 22  1  0
  9 10  1  0
  9 23  1  0
  9 24  1  0
 10 11  1  0
 10 25  1  0
 10 26  1  0
 11 12  2  0
 11 13  1  0
 13 14  1  0
 13 27  1  1
 14 28  1  6
 14 15  1  0
 15 16  2  0
 15 19  1  0
 16 29  1  0
 16 17  1  0
 17 20  1  0
 17 18  1  0
 18 30  1  0
 18 19  2  0
M  CHG  2   4   1   5  -1
M  END
>  <i_m_ct_stereo_status>  (265) 
1

>  <s_m_source_file>  (265) 
/var/tmp/pbs.5076255.sched01/tmp0pz6dnip/90w4u7_w6b.sdf

>  <i_m_source_file_index>  (265) 
20

>  <i_lp_mmshare_version>  (265) 
48012

>  <i_f3d_flags>  (265) 
0

>  <s_epik_input>  (265) 
W25IXTFbY0hdbltjSF1jMVtDQEBIXShbQ0BIXShDI04pL0MoTzIpPU4vW0hdKVtDQEhdKEMyPTMpQyg9TylbQ0gyXVtDSDJdW0NIXTM=

>  <s_epik_cmdline>  (265) 
J2VwaWtfcHl0aG9uJywgJy1waHQnLCAnMi4wJywgJy1waCcsICc3LjAnLCAnLXRuJywgJzgnLCAnLW1hJywgJzIwMCcsICctaW1hZScsICc8aW5maWxlLm1hZT4nLCAnLW9tYWUnLCAnPG91dGZpbGUubWFlPic=

>  <r_lp_tautomer_probability>  (265) 
0.499975

>  <r_epik_Ionization_Penalty>  (265) 
1.26972

>  <r_epik_Ionization_Penalty_Charging>  (265) 
1.26972

>  <r_epik_Ionization_Penalty_Neutral>  (265) 
8.80052e-08

>  <r_epik_State_Penalty>  (265) 
1.68515

>  <r_epik_Charging_Adjusted_Penalty>  (265) 
2.95487

>  <i_epik_Tot_Q>  (265) 
0

>  <i_epik_Tot_abs_Q>  (265) 
2

>  <s_lp_Force_Field>  (265) 
OPLS3e

>  <r_lp_Energy>  (265) 
6.97653

>  <b_lp_Chiralities_Consistent>  (265) 
1

>  <s_lp_Variant>  (265) 
66:0-9

>  <s_i_glide_gridfile>  (265) 
pfpi4k_grid

>  <i_i_glide_lignum>  (265) 
20

>  <i_i_glide_rotatable_bonds>  (265) 
2

>  <r_i_docking_score>  (265) 
-3.83768

>  <r_i_glide_ligand_efficiency>  (265) 
-0.201983

>  <r_i_glide_ligand_efficiency_sa>  (265) 
-0.538972

>  <r_i_glide_ligand_efficiency_ln>  (265) 
-0.972934

>  <r_i_glide_gscore>  (265) 
-3.83768

>  <r_i_glide_lipo>  (265) 
-0.458319

>  <r_i_glide_hbond>  (265) 
-0.122782

>  <r_i_glide_metal>  (265) 
-0

>  <r_i_glide_rewards>  (265) 
-1.86902

>  <r_i_glide_evdw>  (265) 
-19.6378

>  <r_i_glide_ecoul>  (265) 
-4.38557

>  <r_i_glide_erotb>  (265) 
0.26836

>  <r_i_glide_esite>  (265) 
-0.0161899

>  <r_i_glide_emodel>  (265) 
-30.4705

>  <r_i_glide_energy>  (265) 
-24.0234

>  <r_i_glide_einternal>  (265) 
2.06015

>  <r_i_glide_intrahb_reward>  (265) 
-0

>  <i_i_glide_confnum>  (265) 
4

>  <i_i_glide_posenum>  (265) 
3

>  <r_i_glide_eff_state_penalty>  (265) 
0

>  <ligand_id>  (265) 
66

>  <original_smiles>  (265) 
N#CC1C(=N)OC2=CCCC(=O)C2C1c1cnc[nH]1

>  <smiles>  (265) 
[H][N-][C+]1OC2=C([H])C([H])([H])C([H])([H])C(=O)C2([H])C([H])(c2nc([H])n([H])c2[H])C1([H])C#N

$$$$
68:0:0
     RDKit          3D

 56 60  0  0  1  0  0  0  0  0999 V2000
    4.7866   -0.1800    2.1856 C   0  0  0  0  0  0  0  0  0  0  0  0
    4.7770   -1.6595    1.8031 C   0  0  2  0  0  0  0  0  0  0  0  0
    6.0799   -2.2722    2.2918 C   0  0  0  0  0  0  0  0  0  0  0  0
    6.3735   -3.7273    1.8728 C   0  0  0  0  0  0  0  0  0  0  0  0
    5.2063   -4.2831    1.1244 C   0  0  2  0  0  0  0  0  0  0  0  0
    5.1931   -5.7870    0.8416 C   0  0  1  0  0  0  0  0  0  0  0  0
    5.6410   -6.6803    2.0281 C   0  0  0  0  0  0  0  0  0  0  0  0
    3.7091   -6.0947    0.3857 C   0  0  1  0  0  0  0  0  0  0  0  0
    2.9949   -6.7008    1.4311 O   0  0  0  0  0  0  0  0  0  0  0  0
    1.6505   -6.8789    1.2797 C   0  0  0  0  0  0  0  0  0  0  0  0
    0.8912   -6.2565    0.5320 O   0  0  0  0  0  0  0  0  0  0  0  0
    1.1806   -7.9534    2.1607 C   0  0  0  0  0  0  0  0  0  0  0  0
    2.0519   -9.0206    2.5133 C   0  0  0  0  0  0  0  0  0  0  0  0
    1.5949  -10.0870    3.3086 C   0  0  0  0  0  0  0  0  0  0  0  0
    0.2626  -10.0951    3.7632 C   0  0  0  0  0  0  0  0  0  0  0  0
   -0.6183   -9.0402    3.4208 C   0  0  0  0  0  0  0  0  0  0  0  0
   -0.1557   -7.9784    2.6152 C   0  0  0  0  0  0  0  0  0  0  0  0
   -1.0063   -6.9676    2.3135 F   0  0  0  0  0  0  0  0  0  0  0  0
    3.1187   -4.9223   -0.1195 O   0  0  0  0  0  0  0  0  0  0  0  0
    3.9486   -4.1888   -0.9525 C   0  0  1  0  0  0  0  0  0  0  0  0
    3.2999   -3.4330   -1.9037 O   0  0  0  0  0  0  0  0  0  0  0  0
    4.1453   -2.4589   -2.4891 C   0  0  1  0  0  0  0  0  0  0  0  0
    3.8054   -2.4062   -3.9775 C   0  0  0  0  0  0  0  0  0  0  0  0
    3.7406   -1.1302   -1.8524 C   0  0  0  0  0  0  0  0  0  0  0  0
    3.4911   -1.2801   -0.3615 C   0  0  0  0  0  0  0  0  0  0  0  0
    4.6963   -1.9134    0.2864 C   0  0  2  0  0  0  0  0  0  0  0  0
    4.9662   -3.4058   -0.1362 C   0  0  1  0  0  0  0  0  0  0  0  0
    6.0563   -3.3160   -1.0401 O   0  0  0  0  0  0  0  0  0  0  0  0
    5.5758   -2.7258   -2.3972 O   0  0  0  0  0  0  0  0  0  0  0  0
    5.5354    0.3295    1.5805 H   0  0  0  0  0  0  0  0  0  0  0  0
    5.0386   -0.0119    3.2285 H   0  0  0  0  0  0  0  0  0  0  0  0
    3.8346    0.3148    2.0174 H   0  0  0  0  0  0  0  0  0  0  0  0
    3.9432   -2.1362    2.3258 H   0  0  0  0  0  0  0  0  0  0  0  0
    6.9206   -1.6440    1.9726 H   0  0  0  0  0  0  0  0  0  0  0  0
    6.0580   -2.2398    3.3849 H   0  0  0  0  0  0  0  0  0  0  0  0
    7.2926   -3.7855    1.2774 H   0  0  0  0  0  0  0  0  0  0  0  0
    6.5507   -4.3177    2.7772 H   0  0  0  0  0  0  0  0  0  0  0  0
    4.3611   -4.1760    1.8104 H   0  0  0  0  0  0  0  0  0  0  0  0
    5.8548   -5.9844   -0.0014 H   0  0  0  0  0  0  0  0  0  0  0  0
    5.0964   -6.4102    2.9363 H   0  0  0  0  0  0  0  0  0  0  0  0
    6.6992   -6.5610    2.2504 H   0  0  0  0  0  0  0  0  0  0  0  0
    5.4728   -7.7378    1.8400 H   0  0  0  0  0  0  0  0  0  0  0  0
    3.8033   -6.8390   -0.4121 H   0  0  0  0  0  0  0  0  0  0  0  0
    3.0646   -9.0462    2.1569 H   0  0  0  0  0  0  0  0  0  0  0  0
    2.2589  -10.9035    3.5585 H   0  0  0  0  0  0  0  0  0  0  0  0
   -0.0914  -10.9076    4.3782 H   0  0  0  0  0  0  0  0  0  0  0  0
   -1.6381   -9.0601    3.7778 H   0  0  0  0  0  0  0  0  0  0  0  0
    4.4996   -4.9124   -1.5596 H   0  0  0  0  0  0  0  0  0  0  0  0
    4.0365   -3.3474   -4.4679 H   0  0  0  0  0  0  0  0  0  0  0  0
    4.3755   -1.6098   -4.4591 H   0  0  0  0  0  0  0  0  0  0  0  0
    2.7470   -2.1942   -4.1466 H   0  0  0  0  0  0  0  0  0  0  0  0
    4.4887   -0.3635   -2.0660 H   0  0  0  0  0  0  0  0  0  0  0  0
    2.8012   -0.7680   -2.2825 H   0  0  0  0  0  0  0  0  0  0  0  0
    3.2843   -0.2779   -0.0100 H   0  0  0  0  0  0  0  0  0  0  0  0
    2.6126   -1.8749   -0.1248 H   0  0  0  0  0  0  0  0  0  0  0  0
    5.5510   -1.3473   -0.0911 H   0  0  0  0  0  0  0  0  0  0  0  0
  1  2  1  0
  1 30  1  0
  1 31  1  0
  1 32  1  0
  2 26  1  0
  2  3  1  0
  2 33  1  1
  3  4  1  0
  3 34  1  0
  3 35  1  0
  4  5  1  0
  4 36  1  0
  4 37  1  0
  5 27  1  0
  5  6  1  0
  5 38  1  1
  6  7  1  0
  6  8  1  0
  6 39  1  6
  7 40  1  0
  7 41  1  0
  7 42  1  0
  8  9  1  0
  8 19  1  0
  8 43  1  6
  9 10  1  0
 10 11  2  0
 10 12  1  0
 12 17  1  0
 12 13  2  0
 13 14  1  0
 13 44  1  0
 14 15  2  0
 14 45  1  0
 15 16  1  0
 15 46  1  0
 16 17  2  0
 16 47  1  0
 17 18  1  0
 19 20  1  0
 20 27  1  0
 20 21  1  0
 20 48  1  6
 21 22  1  0
 22 29  1  0
 22 23  1  6
 22 24  1  0
 23 49  1  0
 23 50  1  0
 23 51  1  0
 24 25  1  0
 24 52  1  0
 24 53  1  0
 25 26  1  0
 25 54  1  0
 25 55  1  0
 26 27  1  0
 26 56  1  6
 27 28  1  6
 28 29  1  0
M  END
>  <i_m_ct_stereo_status>  (266) 
1

>  <s_m_source_file>  (266) 
/var/tmp/pbs.5076255.sched01/tmp0pz6dnip/90w4u7_w6b.sdf

>  <i_m_source_file_index>  (266) 
22

>  <i_lp_mmshare_version>  (266) 
48012

>  <i_f3d_flags>  (266) 
0

>  <s_epik_input>  (266) 
W0NAXTEyM1tDQEBIXTRbQ0gyXVtDSDJdW0NAQEhdKFtDSDNdKVtDQEBIXTJbQ0gyXVtDSDJdW0NAQF0oW0NIM10pKE9PMylPW0NAQEhdMU9bQ0BASF0oW0NAQEhdNFtDSDNdKU9DKD1PKWM1W2NIXVtjSF1bY0hdW2NIXWM1Rg==

>  <s_epik_cmdline>  (266) 
J2VwaWtfcHl0aG9uJywgJy1waHQnLCAnMi4wJywgJy1waCcsICc3LjAnLCAnLXRuJywgJzgnLCAnLW1hJywgJzIwMCcsICctaW1hZScsICc8aW5maWxlLm1hZT4nLCAnLW9tYWUnLCAnPG91dGZpbGUubWFlPic=

>  <r_lp_tautomer_probability>  (266) 
1

>  <r_epik_Ionization_Penalty>  (266) 
9.20908e-16

>  <r_epik_Ionization_Penalty_Charging>  (266) 
0

>  <r_epik_Ionization_Penalty_Neutral>  (266) 
9.20908e-16

>  <r_epik_State_Penalty>  (266) 
-0

>  <r_epik_Charging_Adjusted_Penalty>  (266) 
0

>  <i_epik_Tot_Q>  (266) 
0

>  <i_epik_Tot_abs_Q>  (266) 
0

>  <s_epik_Chemistry_Notes>  (266) 
This compound has an ester and may undergo hydrolysis at high or low pH. This compound contains an acetal/aminal-like group ( X-CH(R)-Y where X, Y are N, S, or O) that may be acid/base labile, releasing an aldehyde.

>  <s_lp_Force_Field>  (266) 
OPLS3e

>  <r_lp_Energy>  (266) 
79.5702

>  <b_lp_Chiralities_Consistent>  (266) 
1

>  <s_lp_Variant>  (266) 
68:0-1

>  <s_i_glide_gridfile>  (266) 
pfpi4k_grid

>  <i_i_glide_lignum>  (266) 
22

>  <i_i_glide_rotatable_bonds>  (266) 
3

>  <r_i_docking_score>  (266) 
-3.1241

>  <r_i_glide_ligand_efficiency>  (266) 
-0.107728

>  <r_i_glide_ligand_efficiency_sa>  (266) 
-0.330973

>  <r_i_glide_ligand_efficiency_ln>  (266) 
-0.71534

>  <r_i_glide_gscore>  (266) 
-3.1241

>  <r_i_glide_lipo>  (266) 
-0.546309

>  <r_i_glide_hbond>  (266) 
-0.188048

>  <r_i_glide_metal>  (266) 
-0

>  <r_i_glide_rewards>  (266) 
-0.795641

>  <r_i_glide_evdw>  (266) 
-22.7019

>  <r_i_glide_ecoul>  (266) 
-4.26091

>  <r_i_glide_erotb>  (266) 
0.357071

>  <r_i_glide_esite>  (266) 
-0.176943

>  <r_i_glide_emodel>  (266) 
-30.2239

>  <r_i_glide_energy>  (266) 
-26.9628

>  <r_i_glide_einternal>  (266) 
4.85827

>  <r_i_glide_intrahb_reward>  (266) 
-0

>  <i_i_glide_confnum>  (266) 
4

>  <i_i_glide_posenum>  (266) 
34

>  <r_i_glide_eff_state_penalty>  (266) 
0

>  <ligand_id>  (266) 
68

>  <original_smiles>  (266) 
CC1CCC2C(C)C(OC(=O)c3ccccc3F)OC3OC4(C)CCC1C32OO4

>  <smiles>  (266) 
[H]c1c([H])c([H])c(C(=O)OC2([H])OC3([H])OC4(C([H])([H])[H])OOC35C([H])(C([H])([H])C([H])([H])C([H])(C([H])([H])[H])C5([H])C([H])([H])C4([H])[H])C2([H])C([H])([H])[H])c(F)c1[H]

$$$$
68:0:1
     RDKit          3D

 56 60  0  0  1  0  0  0  0  0999 V2000
    4.5904   -0.0948    2.3703 C   0  0  0  0  0  0  0  0  0  0  0  0
    4.5094   -1.5986    2.0753 C   0  0  2  0  0  0  0  0  0  0  0  0
    5.6859   -2.2713    2.7915 C   0  0  0  0  0  0  0  0  0  0  0  0
    5.8814   -3.7597    2.4684 C   0  0  0  0  0  0  0  0  0  0  0  0
    4.7951   -4.2746    1.5587 C   0  0  2  0  0  0  0  0  0  0  0  0
    4.7175   -5.7851    1.3228 C   0  0  1  0  0  0  0  0  0  0  0  0
    4.9376   -6.6375    2.5956 C   0  0  0  0  0  0  0  0  0  0  0  0
    3.2994   -6.0284    0.7058 C   0  0  1  0  0  0  0  0  0  0  0  0
    2.4125   -6.4685    1.7026 O   0  0  0  0  0  0  0  0  0  0  0  0
    1.1107   -6.6106    1.3661 C   0  0  0  0  0  0  0  0  0  0  0  0
    0.6175   -6.3016    0.2781 O   0  0  0  0  0  0  0  0  0  0  0  0
    0.2854   -7.1538    2.4604 C   0  0  0  0  0  0  0  0  0  0  0  0
   -0.8711   -7.8784    2.1024 C   0  0  0  0  0  0  0  0  0  0  0  0
   -1.7070   -8.4230    3.0890 C   0  0  0  0  0  0  0  0  0  0  0  0
   -1.3851   -8.2464    4.4419 C   0  0  0  0  0  0  0  0  0  0  0  0
   -0.2383   -7.5138    4.8168 C   0  0  0  0  0  0  0  0  0  0  0  0
    0.5971   -6.9689    3.8272 C   0  0  0  0  0  0  0  0  0  0  0  0
    1.6739   -6.2403    4.2115 F   0  0  0  0  0  0  0  0  0  0  0  0
    2.8253   -4.8570    0.0552 O   0  0  0  0  0  0  0  0  0  0  0  0
    3.8100   -4.2198   -0.6997 C   0  0  1  0  0  0  0  0  0  0  0  0
    3.3538   -3.4585   -1.7500 O   0  0  0  0  0  0  0  0  0  0  0  0
    4.3423   -2.5710   -2.2534 C   0  0  1  0  0  0  0  0  0  0  0  0
    4.2016   -2.5622   -3.7793 C   0  0  0  0  0  0  0  0  0  0  0  0
    3.9768   -1.1777   -1.7268 C   0  0  0  0  0  0  0  0  0  0  0  0
    3.5570   -1.2346   -0.2636 C   0  0  0  0  0  0  0  0  0  0  0  0
    4.6100   -1.9263    0.5605 C   0  0  2  0  0  0  0  0  0  0  0  0
    4.7922   -3.4616    0.2286 C   0  0  1  0  0  0  0  0  0  0  0  0
    5.9871   -3.5018   -0.5387 O   0  0  0  0  0  0  0  0  0  0  0  0
    5.7255   -2.9333   -1.9684 O   0  0  0  0  0  0  0  0  0  0  0  0
    5.4544    0.3209    1.8538 H   0  0  0  0  0  0  0  0  0  0  0  0
    4.7113    0.1214    3.4320 H   0  0  0  0  0  0  0  0  0  0  0  0
    3.7108    0.4572    2.0423 H   0  0  0  0  0  0  0  0  0  0  0  0
    3.5689   -1.9703    2.4894 H   0  0  0  0  0  0  0  0  0  0  0  0
    6.5982   -1.7418    2.4983 H   0  0  0  0  0  0  0  0  0  0  0  0
    5.5722   -2.1628    3.8708 H   0  0  0  0  0  0  0  0  0  0  0  0
    6.8463   -3.9087    1.9771 H   0  0  0  0  0  0  0  0  0  0  0  0
    5.9218   -4.3176    3.4017 H   0  0  0  0  0  0  0  0  0  0  0  0
    3.8681   -4.0739    2.1041 H   0  0  0  0  0  0  0  0  0  0  0  0
    5.4576   -6.0700    0.5787 H   0  0  0  0  0  0  0  0  0  0  0  0
    4.3087   -6.2801    3.4135 H   0  0  0  0  0  0  0  0  0  0  0  0
    5.9671   -6.5879    2.9514 H   0  0  0  0  0  0  0  0  0  0  0  0
    4.7042   -7.6916    2.4359 H   0  0  0  0  0  0  0  0  0  0  0  0
    3.4069   -6.8271   -0.0216 H   0  0  0  0  0  0  0  0  0  0  0  0
   -1.1075   -8.0411    1.0621 H   0  0  0  0  0  0  0  0  0  0  0  0
   -2.5796   -8.9990    2.8036 H   0  0  0  0  0  0  0  0  0  0  0  0
   -2.0125   -8.6877    5.1973 H   0  0  0  0  0  0  0  0  0  0  0  0
   -0.0083   -7.3820    5.8654 H   0  0  0  0  0  0  0  0  0  0  0  0
    4.3568   -5.0143   -1.2177 H   0  0  0  0  0  0  0  0  0  0  0  0
    4.4289   -3.5383   -4.2086 H   0  0  0  0  0  0  0  0  0  0  0  0
    4.8839   -1.8247   -4.2045 H   0  0  0  0  0  0  0  0  0  0  0  0
    3.1923   -2.2862   -4.0930 H   0  0  0  0  0  0  0  0  0  0  0  0
    4.8066   -0.4809   -1.8874 H   0  0  0  0  0  0  0  0  0  0  0  0
    3.1263   -0.7685   -2.2762 H   0  0  0  0  0  0  0  0  0  0  0  0
    3.4044   -0.2199    0.0669 H   0  0  0  0  0  0  0  0  0  0  0  0
    2.6203   -1.7583   -0.1241 H   0  0  0  0  0  0  0  0  0  0  0  0
    5.5530   -1.4513    0.2738 H   0  0  0  0  0  0  0  0  0  0  0  0
  1  2  1  0
  1 30  1  0
  1 31  1  0
  1 32  1  0
  2 26  1  0
  2  3  1  0
  2 33  1  1
  3  4  1  0
  3 34  1  0
  3 35  1  0
  4  5  1  0
  4 36  1  0
  4 37  1  0
  5 27  1  0
  5  6  1  0
  5 38  1  1
  6  7  1  0
  6  8  1  0
  6 39  1  6
  7 40  1  0
  7 41  1  0
  7 42  1  0
  8  9  1  0
  8 19  1  0
  8 43  1  6
  9 10  1  0
 10 11  2  0
 10 12  1  0
 12 17  1  0
 12 13  2  0
 13 14  1  0
 13 44  1  0
 14 15  2  0
 14 45  1  0
 15 16  1  0
 15 46  1  0
 16 17  2  0
 16 47  1  0
 17 18  1  0
 19 20  1  0
 20 27  1  0
 20 21  1  0
 20 48  1  6
 21 22  1  0
 22 29  1  0
 22 23  1  6
 22 24  1  0
 23 49  1  0
 23 50  1  0
 23 51  1  0
 24 25  1  0
 24 52  1  0
 24 53  1  0
 25 26  1  0
 25 54  1  0
 25 55  1  0
 26 27  1  0
 26 56  1  6
 27 28  1  6
 28 29  1  0
M  END
>  <i_m_ct_stereo_status>  (267) 
1

>  <s_m_source_file>  (267) 
/var/tmp/pbs.5076255.sched01/tmp0pz6dnip/90w4u7_w6b.sdf

>  <i_m_source_file_index>  (267) 
22

>  <i_lp_mmshare_version>  (267) 
48012

>  <i_f3d_flags>  (267) 
0

>  <s_epik_input>  (267) 
W0NAXTEyM1tDQEBIXTRbQ0gyXVtDSDJdW0NAQEhdKFtDSDNdKVtDQEBIXTJbQ0gyXVtDSDJdW0NAQF0oW0NIM10pKE9PMylPW0NAQEhdMU9bQ0BASF0oW0NAQEhdNFtDSDNdKU9DKD1PKWM1W2NIXVtjSF1bY0hdW2NIXWM1Rg==

>  <s_epik_cmdline>  (267) 
J2VwaWtfcHl0aG9uJywgJy1waHQnLCAnMi4wJywgJy1waCcsICc3LjAnLCAnLXRuJywgJzgnLCAnLW1hJywgJzIwMCcsICctaW1hZScsICc8aW5maWxlLm1hZT4nLCAnLW9tYWUnLCAnPG91dGZpbGUubWFlPic=

>  <r_lp_tautomer_probability>  (267) 
1

>  <r_epik_Ionization_Penalty>  (267) 
9.20908e-16

>  <r_epik_Ionization_Penalty_Charging>  (267) 
0

>  <r_epik_Ionization_Penalty_Neutral>  (267) 
9.20908e-16

>  <r_epik_State_Penalty>  (267) 
-0

>  <r_epik_Charging_Adjusted_Penalty>  (267) 
0

>  <i_epik_Tot_Q>  (267) 
0

>  <i_epik_Tot_abs_Q>  (267) 
0

>  <s_epik_Chemistry_Notes>  (267) 
This compound has an ester and may undergo hydrolysis at high or low pH. This compound contains an acetal/aminal-like group ( X-CH(R)-Y where X, Y are N, S, or O) that may be acid/base labile, releasing an aldehyde.

>  <s_lp_Force_Field>  (267) 
OPLS3e

>  <r_lp_Energy>  (267) 
79.5702

>  <b_lp_Chiralities_Consistent>  (267) 
1

>  <s_lp_Variant>  (267) 
68:0-1

>  <s_i_glide_gridfile>  (267) 
pfpi4k_grid

>  <i_i_glide_lignum>  (267) 
22

>  <i_i_glide_rotatable_bonds>  (267) 
3

>  <r_i_docking_score>  (267) 
-2.85793

>  <r_i_glide_ligand_efficiency>  (267) 
-0.0985492

>  <r_i_glide_ligand_efficiency_sa>  (267) 
-0.302774

>  <r_i_glide_ligand_efficiency_ln>  (267) 
-0.654393

>  <r_i_glide_gscore>  (267) 
-2.85793

>  <r_i_glide_lipo>  (267) 
-0.375606

>  <r_i_glide_hbond>  (267) 
-0.344263

>  <r_i_glide_metal>  (267) 
-0

>  <r_i_glide_rewards>  (267) 
-0.682054

>  <r_i_glide_evdw>  (267) 
-26.4214

>  <r_i_glide_ecoul>  (267) 
-2.52702

>  <r_i_glide_erotb>  (267) 
0.357071

>  <r_i_glide_esite>  (267) 
-0.112951

>  <r_i_glide_emodel>  (267) 
-33.0624

>  <r_i_glide_energy>  (267) 
-28.9484

>  <r_i_glide_einternal>  (267) 
1.73724

>  <r_i_glide_intrahb_reward>  (267) 
-0

>  <i_i_glide_confnum>  (267) 
5

>  <i_i_glide_posenum>  (267) 
38

>  <r_i_glide_eff_state_penalty>  (267) 
0

>  <ligand_id>  (267) 
68

>  <original_smiles>  (267) 
CC1CCC2C(C)C(OC(=O)c3ccccc3F)OC3OC4(C)CCC1C32OO4

>  <smiles>  (267) 
[H]c1c([H])c([H])c(C(=O)OC2([H])OC3([H])OC4(C([H])([H])[H])OOC35C([H])(C([H])([H])C([H])([H])C([H])(C([H])([H])[H])C5([H])C([H])([H])C4([H])[H])C2([H])C([H])([H])[H])c(F)c1[H]

$$$$
68:0:2
     RDKit          3D

 56 60  0  0  1  0  0  0  0  0999 V2000
    3.0660   -2.0004    4.7449 C   0  0  0  0  0  0  0  0  0  0  0  0
    3.6039   -3.1712    3.8941 C   0  0  2  0  0  0  0  0  0  0  0  0
    4.7568   -3.8615    4.6746 C   0  0  0  0  0  0  0  0  0  0  0  0
    5.5305   -4.9380    3.8863 C   0  0  0  0  0  0  0  0  0  0  0  0
    4.9054   -5.1511    2.5007 C   0  0  2  0  0  0  0  0  0  0  0  0
    5.3747   -6.3434    1.6697 C   0  0  1  0  0  0  0  0  0  0  0  0
    5.5829   -7.6414    2.4961 C   0  0  0  0  0  0  0  0  0  0  0  0
    4.2884   -6.5494    0.5459 C   0  0  1  0  0  0  0  0  0  0  0  0
    3.3821   -7.5326    0.9628 O   0  0  0  0  0  0  0  0  0  0  0  0
    2.2535   -7.1877    1.6649 C   0  0  0  0  0  0  0  0  0  0  0  0
    1.7574   -6.0559    1.7310 O   0  0  0  0  0  0  0  0  0  0  0  0
    1.6922   -8.3674    2.3622 C   0  0  0  0  0  0  0  0  0  0  0  0
    2.3817   -9.6085    2.3842 C   0  0  0  0  0  0  0  0  0  0  0  0
    1.8471  -10.7174    3.0591 C   0  0  0  0  0  0  0  0  0  0  0  0
    0.6151  -10.6034    3.7189 C   0  0  0  0  0  0  0  0  0  0  0  0
   -0.0836   -9.3827    3.7085 C   0  0  0  0  0  0  0  0  0  0  0  0
    0.4526   -8.2658    3.0360 C   0  0  0  0  0  0  0  0  0  0  0  0
   -0.2453   -7.1087    3.0684 F   0  0  0  0  0  0  0  0  0  0  0  0
    3.6642   -5.3367    0.1672 O   0  0  0  0  0  0  0  0  0  0  0  0
    4.4978   -4.2348    0.1936 C   0  0  1  0  0  0  0  0  0  0  0  0
    4.0422   -3.1730   -0.5504 O   0  0  0  0  0  0  0  0  0  0  0  0
    4.7319   -1.9744   -0.2466 C   0  0  1  0  0  0  0  0  0  0  0  0
    4.9563   -1.2629   -1.5834 C   0  0  0  0  0  0  0  0  0  0  0  0
    3.7873   -1.1195    0.6078 C   0  0  0  0  0  0  0  0  0  0  0  0
    3.0552   -1.9349    1.6665 C   0  0  0  0  0  0  0  0  0  0  0  0
    4.0770   -2.7328    2.4737 C   0  0  2  0  0  0  0  0  0  0  0  0
    4.8765   -3.8372    1.6635 C   0  0  1  0  0  0  0  0  0  0  0  0
    6.1448   -3.2436    1.4509 O   0  0  0  0  0  0  0  0  0  0  0  0
    6.0504   -2.1431    0.3533 O   0  0  0  0  0  0  0  0  0  0  0  0
    3.8006   -1.1971    4.8019 H   0  0  0  0  0  0  0  0  0  0  0  0
    2.8481   -2.3077    5.7686 H   0  0  0  0  0  0  0  0  0  0  0  0
    2.1463   -1.5744    4.3436 H   0  0  0  0  0  0  0  0  0  0  0  0
    2.7791   -3.8768    3.7837 H   0  0  0  0  0  0  0  0  0  0  0  0
    5.4724   -3.1130    5.0169 H   0  0  0  0  0  0  0  0  0  0  0  0
    4.3472   -4.3186    5.5793 H   0  0  0  0  0  0  0  0  0  0  0  0
    6.5829   -4.6707    3.7868 H   0  0  0  0  0  0  0  0  0  0  0  0
    5.5052   -5.8583    4.4735 H   0  0  0  0  0  0  0  0  0  0  0  0
    3.8815   -5.4127    2.7554 H   0  0  0  0  0  0  0  0  0  0  0  0
    6.3179   -6.0925    1.1881 H   0  0  0  0  0  0  0  0  0  0  0  0
    4.7110   -7.8604    3.1195 H   0  0  0  0  0  0  0  0  0  0  0  0
    6.4259   -7.5731    3.1797 H   0  0  0  0  0  0  0  0  0  0  0  0
    5.7512   -8.5127    1.8652 H   0  0  0  0  0  0  0  0  0  0  0  0
    4.7816   -6.9542   -0.3386 H   0  0  0  0  0  0  0  0  0  0  0  0
    3.3391   -9.7422    1.8989 H   0  0  0  0  0  0  0  0  0  0  0  0
    2.3828  -11.6638    3.0604 H   0  0  0  0  0  0  0  0  0  0  0  0
    0.1923  -11.4584    4.2312 H   0  0  0  0  0  0  0  0  0  0  0  0
   -1.0259   -9.2904    4.2251 H   0  0  0  0  0  0  0  0  0  0  0  0
    5.3974   -4.5236   -0.3673 H   0  0  0  0  0  0  0  0  0  0  0  0
    5.5860   -1.8536   -2.2451 H   0  0  0  0  0  0  0  0  0  0  0  0
    5.4252   -0.2923   -1.4214 H   0  0  0  0  0  0  0  0  0  0  0  0
    4.0088   -1.0826   -2.0979 H   0  0  0  0  0  0  0  0  0  0  0  0
    4.3386   -0.2962    1.0671 H   0  0  0  0  0  0  0  0  0  0  0  0
    3.0178   -0.6553   -0.0126 H   0  0  0  0  0  0  0  0  0  0  0  0
    2.5096   -1.2079    2.2650 H   0  0  0  0  0  0  0  0  0  0  0  0
    2.3060   -2.5992    1.2280 H   0  0  0  0  0  0  0  0  0  0  0  0
    4.8309   -1.9932    2.7426 H   0  0  0  0  0  0  0  0  0  0  0  0
  1  2  1  0
  1 30  1  0
  1 31  1  0
  1 32  1  0
  2 26  1  0
  2  3  1  0
  2 33  1  6
  3  4  1  0
  3 34  1  0
  3 35  1  0
  4  5  1  0
  4 36  1  0
  4 37  1  0
  5 27  1  0
  5  6  1  0
  5 38  1  1
  6  7  1  0
  6  8  1  0
  6 39  1  6
  7 40  1  0
  7 41  1  0
  7 42  1  0
  8  9  1  0
  8 19  1  0
  8 43  1  6
  9 10  1  0
 10 11  2  0
 10 12  1  0
 12 17  1  0
 12 13  2  0
 13 14  1  0
 13 44  1  0
 14 15  2  0
 14 45  1  0
 15 16  1  0
 15 46  1  0
 16 17  2  0
 16 47  1  0
 17 18  1  0
 19 20  1  0
 20 27  1  0
 20 21  1  0
 20 48  1  6
 21 22  1  0
 22 29  1  0
 22 23  1  6
 22 24  1  0
 23 49  1  0
 23 50  1  0
 23 51  1  0
 24 25  1  0
 24 52  1  0
 24 53  1  0
 25 26  1  0
 25 54  1  0
 25 55  1  0
 26 27  1  0
 26 56  1  1
 27 28  1  6
 28 29  1  0
M  END
>  <i_m_ct_stereo_status>  (268) 
1

>  <s_m_source_file>  (268) 
/var/tmp/pbs.5076255.sched01/tmp0pz6dnip/90w4u7_w6b.sdf

>  <i_m_source_file_index>  (268) 
22

>  <i_lp_mmshare_version>  (268) 
48012

>  <i_f3d_flags>  (268) 
0

>  <s_epik_input>  (268) 
W0NAXTEyM1tDQEBIXTRbQ0gyXVtDSDJdW0NAQEhdKFtDSDNdKVtDQEBIXTJbQ0gyXVtDSDJdW0NAQF0oW0NIM10pKE9PMylPW0NAQEhdMU9bQ0BASF0oW0NAQEhdNFtDSDNdKU9DKD1PKWM1W2NIXVtjSF1bY0hdW2NIXWM1Rg==

>  <s_epik_cmdline>  (268) 
J2VwaWtfcHl0aG9uJywgJy1waHQnLCAnMi4wJywgJy1waCcsICc3LjAnLCAnLXRuJywgJzgnLCAnLW1hJywgJzIwMCcsICctaW1hZScsICc8aW5maWxlLm1hZT4nLCAnLW9tYWUnLCAnPG91dGZpbGUubWFlPic=

>  <r_lp_tautomer_probability>  (268) 
1

>  <r_epik_Ionization_Penalty>  (268) 
9.20908e-16

>  <r_epik_Ionization_Penalty_Charging>  (268) 
0

>  <r_epik_Ionization_Penalty_Neutral>  (268) 
9.20908e-16

>  <r_epik_State_Penalty>  (268) 
-0

>  <r_epik_Charging_Adjusted_Penalty>  (268) 
0

>  <i_epik_Tot_Q>  (268) 
0

>  <i_epik_Tot_abs_Q>  (268) 
0

>  <s_epik_Chemistry_Notes>  (268) 
This compound has an ester and may undergo hydrolysis at high or low pH. This compound contains an acetal/aminal-like group ( X-CH(R)-Y where X, Y are N, S, or O) that may be acid/base labile, releasing an aldehyde.

>  <s_lp_Force_Field>  (268) 
OPLS3e

>  <r_lp_Energy>  (268) 
79.5702

>  <b_lp_Chiralities_Consistent>  (268) 
1

>  <s_lp_Variant>  (268) 
68:0-1

>  <s_i_glide_gridfile>  (268) 
pfpi4k_grid

>  <i_i_glide_lignum>  (268) 
22

>  <i_i_glide_rotatable_bonds>  (268) 
3

>  <r_i_docking_score>  (268) 
-2.41133

>  <r_i_glide_ligand_efficiency>  (268) 
-0.0831494

>  <r_i_glide_ligand_efficiency_sa>  (268) 
-0.255461

>  <r_i_glide_ligand_efficiency_ln>  (268) 
-0.552134

>  <r_i_glide_gscore>  (268) 
-2.41133

>  <r_i_glide_lipo>  (268) 
-0.237225

>  <r_i_glide_hbond>  (268) 
0

>  <r_i_glide_metal>  (268) 
-0

>  <r_i_glide_rewards>  (268) 
-0.863532

>  <r_i_glide_evdw>  (268) 
-27.5591

>  <r_i_glide_ecoul>  (268) 
-1.26843

>  <r_i_glide_erotb>  (268) 
0.357071

>  <r_i_glide_esite>  (268) 
-0.0994265

>  <r_i_glide_emodel>  (268) 
-29.9003

>  <r_i_glide_energy>  (268) 
-28.8276

>  <r_i_glide_einternal>  (268) 
6.53941

>  <r_i_glide_intrahb_reward>  (268) 
-0

>  <i_i_glide_confnum>  (268) 
6

>  <i_i_glide_posenum>  (268) 
33

>  <r_i_glide_eff_state_penalty>  (268) 
0

>  <ligand_id>  (268) 
68

>  <original_smiles>  (268) 
CC1CCC2C(C)C(OC(=O)c3ccccc3F)OC3OC4(C)CCC1C32OO4

>  <smiles>  (268) 
[H]c1c([H])c([H])c(C(=O)OC2([H])OC3([H])OC4(C([H])([H])[H])OOC35C([H])(C([H])([H])C([H])([H])C([H])(C([H])([H])[H])C5([H])C([H])([H])C4([H])[H])C2([H])C([H])([H])[H])c(F)c1[H]

$$$$
69:0:0
     RDKit          3D

 25 27  0  0  1  0  0  0  0  0999 V2000
    5.3379   -5.2481    1.5507 C   0  0  0  0  0  0  0  0  0  0  0  0
    4.4804   -4.6317    0.5485 N   0  0  0  0  0  0  0  0  0  0  0  0
    3.1157   -4.7903    0.3168 C   0  0  0  0  0  0  0  0  0  0  0  0
    2.2208   -5.6865    1.1208 C   0  0  0  0  0  0  0  0  0  0  0  0
    2.4167   -5.9456    2.4946 C   0  0  0  0  0  0  0  0  0  0  0  0
    1.5006   -6.7836    3.1490 C   0  0  0  0  0  0  0  0  0  0  0  0
    0.4464   -7.3080    2.5019 N   0  0  0  0  0  0  0  0  0  0  0  0
    0.3622   -7.0507    1.2036 C   0  0  0  0  0  0  0  0  0  0  0  0
    1.1522   -6.2415    0.4930 N   0  0  0  0  0  0  0  0  0  0  0  0
    2.6884   -4.0082   -0.7191 N   0  0  0  0  0  0  0  0  0  0  0  0
    3.8690   -3.4295   -1.0823 N   0  0  0  0  0  0  0  0  0  0  0  0
    4.1874   -2.5851   -2.0574 C   0  0  0  0  0  0  0  0  0  0  0  0
    3.3043   -1.9758   -3.1080 C   0  0  0  0  0  0  0  0  0  0  0  0
    2.1763   -2.6615   -3.2962 F   0  0  0  0  0  0  0  0  0  0  0  0
    3.0106   -0.7198   -2.7832 F   0  0  0  0  0  0  0  0  0  0  0  0
    3.9529   -1.9417   -4.2726 F   0  0  0  0  0  0  0  0  0  0  0  0
    5.5114   -2.3405   -1.9002 N   0  0  0  0  0  0  0  0  0  0  0  0
    5.9813   -3.1201   -0.7976 N   0  0  0  0  0  0  0  0  0  0  0  0
    4.9257   -3.7622   -0.3613 C   0  0  0  0  0  0  0  0  0  0  0  0
    5.2393   -6.3351    1.5307 H   0  0  0  0  0  0  0  0  0  0  0  0
    5.1176   -4.8531    2.5426 H   0  0  0  0  0  0  0  0  0  0  0  0
    6.3796   -4.9878    1.3515 H   0  0  0  0  0  0  0  0  0  0  0  0
    3.2142   -5.5186    3.0750 H   0  0  0  0  0  0  0  0  0  0  0  0
    1.5966   -7.0098    4.2022 H   0  0  0  0  0  0  0  0  0  0  0  0
   -0.5013   -7.4611    0.7013 H   0  0  0  0  0  0  0  0  0  0  0  0
  1  2  1  0
  1 20  1  0
  1 21  1  0
  1 22  1  0
  2 19  1  0
  2  3  1  0
  3  4  1  0
  3 10  2  0
  4  9  1  0
  4  5  2  0
  5  6  1  0
  5 23  1  0
  6  7  2  0
  6 24  1  0
  7  8  1  0
  8  9  2  0
  8 25  1  0
 10 11  1  0
 11 19  1  0
 11 12  1  0
 12 13  1  0
 12 17  2  0
 13 14  1  0
 13 15  1  0
 13 16  1  0
 17 18  1  0
 18 19  2  0
M  END
>  <i_m_ct_stereo_status>  (269) 
1

>  <s_m_source_file>  (269) 
/var/tmp/pbs.5076255.sched01/tmp0pz6dnip/90w4u7_w6b.sdf

>  <i_m_source_file_index>  (269) 
23

>  <i_lp_mmshare_version>  (269) 
48012

>  <i_f3d_flags>  (269) 
0

>  <s_epik_input>  (269) 
RkMoRikoRiljMW5uYyhuMTIpbihbQ0gzXSljKG4yKS1jM1tjSF1bY0hdbltjSF1uMw==

>  <s_epik_cmdline>  (269) 
J2VwaWtfcHl0aG9uJywgJy1waHQnLCAnMi4wJywgJy1waCcsICc3LjAnLCAnLXRuJywgJzgnLCAnLW1hJywgJzIwMCcsICctaW1hZScsICc8aW5maWxlLm1hZT4nLCAnLW9tYWUnLCAnPG91dGZpbGUubWFlPic=

>  <r_lp_tautomer_probability>  (269) 
1

>  <r_epik_Ionization_Penalty>  (269) 
1.79208e-06

>  <r_epik_Ionization_Penalty_Charging>  (269) 
0

>  <r_epik_Ionization_Penalty_Neutral>  (269) 
1.79208e-06

>  <r_epik_State_Penalty>  (269) 
-0

>  <r_epik_Charging_Adjusted_Penalty>  (269) 
0

>  <i_epik_Tot_Q>  (269) 
0

>  <i_epik_Tot_abs_Q>  (269) 
0

>  <s_lp_Force_Field>  (269) 
OPLS3e

>  <r_lp_Energy>  (269) 
19.5295

>  <b_lp_Chiralities_Consistent>  (269) 
1

>  <s_lp_Variant>  (269) 
69:0-1

>  <s_i_glide_gridfile>  (269) 
pfpi4k_grid

>  <i_i_glide_lignum>  (269) 
23

>  <i_i_glide_rotatable_bonds>  (269) 
2

>  <r_i_docking_score>  (269) 
-4.06743

>  <r_i_glide_ligand_efficiency>  (269) 
-0.214075

>  <r_i_glide_ligand_efficiency_sa>  (269) 
-0.571239

>  <r_i_glide_ligand_efficiency_ln>  (269) 
-1.03118

>  <r_i_glide_gscore>  (269) 
-4.06743

>  <r_i_glide_lipo>  (269) 
-0.0948404

>  <r_i_glide_hbond>  (269) 
-0.166331

>  <r_i_glide_metal>  (269) 
-0

>  <r_i_glide_rewards>  (269) 
-1.93545

>  <r_i_glide_evdw>  (269) 
-24.1368

>  <r_i_glide_ecoul>  (269) 
-4.58481

>  <r_i_glide_erotb>  (269) 
0.246529

>  <r_i_glide_esite>  (269) 
-0.222772

>  <r_i_glide_emodel>  (269) 
-34.1576

>  <r_i_glide_energy>  (269) 
-28.7216

>  <r_i_glide_einternal>  (269) 
3.00042

>  <r_i_glide_intrahb_reward>  (269) 
-0

>  <i_i_glide_confnum>  (269) 
3

>  <i_i_glide_posenum>  (269) 
33

>  <r_i_glide_eff_state_penalty>  (269) 
0

>  <ligand_id>  (269) 
69

>  <original_smiles>  (269) 
Cn1c(-c2ccncn2)nn2c(C(F)(F)F)nnc12

>  <smiles>  (269) 
[H]c1nc([H])c([H])c(-c2nn3c(C(F)(F)F)nnc3n2C([H])([H])[H])n1

$$$$
69:0:1
     RDKit          3D

 25 27  0  0  1  0  0  0  0  0999 V2000
   -1.0273   -0.5321    4.4814 C   0  0  0  0  0  0  0  0  0  0  0  0
    0.1241   -0.2400    3.6393 N   0  0  0  0  0  0  0  0  0  0  0  0
    0.5539    0.9679    3.1159 C   0  0  0  0  0  0  0  0  0  0  0  0
   -0.1697    2.2488    3.3111 C   0  0  0  0  0  0  0  0  0  0  0  0
   -1.5585    2.3924    3.1186 C   0  0  0  0  0  0  0  0  0  0  0  0
   -2.1066    3.6695    3.3116 C   0  0  0  0  0  0  0  0  0  0  0  0
   -1.3543    4.7202    3.6855 N   0  0  0  0  0  0  0  0  0  0  0  0
   -0.0485    4.4854    3.8081 C   0  0  0  0  0  0  0  0  0  0  0  0
    0.5787    3.3155    3.6744 N   0  0  0  0  0  0  0  0  0  0  0  0
    1.7014    0.8320    2.3923 N   0  0  0  0  0  0  0  0  0  0  0  0
    1.8997   -0.5126    2.5270 N   0  0  0  0  0  0  0  0  0  0  0  0
    2.8434   -1.3261    2.0635 C   0  0  0  0  0  0  0  0  0  0  0  0
    4.0248   -1.0028    1.1977 C   0  0  0  0  0  0  0  0  0  0  0  0
    5.1491   -1.3264    1.8340 F   0  0  0  0  0  0  0  0  0  0  0  0
    3.9709   -1.7110    0.0697 F   0  0  0  0  0  0  0  0  0  0  0  0
    4.1024    0.2875    0.8812 F   0  0  0  0  0  0  0  0  0  0  0  0
    2.5306   -2.5498    2.5522 N   0  0  0  0  0  0  0  0  0  0  0  0
    1.3365   -2.4314    3.3281 N   0  0  0  0  0  0  0  0  0  0  0  0
    1.0127   -1.1631    3.2580 C   0  0  0  0  0  0  0  0  0  0  0  0
   -1.9541   -0.2099    4.0138 H   0  0  0  0  0  0  0  0  0  0  0  0
   -0.9129   -0.0640    5.4578 H   0  0  0  0  0  0  0  0  0  0  0  0
   -1.0974   -1.6152    4.6215 H   0  0  0  0  0  0  0  0  0  0  0  0
   -2.1828    1.5796    2.8001 H   0  0  0  0  0  0  0  0  0  0  0  0
   -3.1604    3.8685    3.1691 H   0  0  0  0  0  0  0  0  0  0  0  0
    0.5463    5.3312    4.1112 H   0  0  0  0  0  0  0  0  0  0  0  0
  1  2  1  0
  1 20  1  0
  1 21  1  0
  1 22  1  0
  2 19  1  0
  2  3  1  0
  3  4  1  0
  3 10  2  0
  4  9  1  0
  4  5  2  0
  5  6  1  0
  5 23  1  0
  6  7  2  0
  6 24  1  0
  7  8  1  0
  8  9  2  0
  8 25  1  0
 10 11  1  0
 11 19  1  0
 11 12  1  0
 12 13  1  0
 12 17  2  0
 13 14  1  0
 13 15  1  0
 13 16  1  0
 17 18  1  0
 18 19  2  0
M  END
>  <i_m_ct_stereo_status>  (270) 
1

>  <s_m_source_file>  (270) 
/var/tmp/pbs.5076255.sched01/tmp0pz6dnip/90w4u7_w6b.sdf

>  <i_m_source_file_index>  (270) 
23

>  <i_lp_mmshare_version>  (270) 
48012

>  <i_f3d_flags>  (270) 
0

>  <s_epik_input>  (270) 
RkMoRikoRiljMW5uYyhuMTIpbihbQ0gzXSljKG4yKS1jM1tjSF1bY0hdbltjSF1uMw==

>  <s_epik_cmdline>  (270) 
J2VwaWtfcHl0aG9uJywgJy1waHQnLCAnMi4wJywgJy1waCcsICc3LjAnLCAnLXRuJywgJzgnLCAnLW1hJywgJzIwMCcsICctaW1hZScsICc8aW5maWxlLm1hZT4nLCAnLW9tYWUnLCAnPG91dGZpbGUubWFlPic=

>  <r_lp_tautomer_probability>  (270) 
1

>  <r_epik_Ionization_Penalty>  (270) 
1.79208e-06

>  <r_epik_Ionization_Penalty_Charging>  (270) 
0

>  <r_epik_Ionization_Penalty_Neutral>  (270) 
1.79208e-06

>  <r_epik_State_Penalty>  (270) 
-0

>  <r_epik_Charging_Adjusted_Penalty>  (270) 
0

>  <i_epik_Tot_Q>  (270) 
0

>  <i_epik_Tot_abs_Q>  (270) 
0

>  <s_lp_Force_Field>  (270) 
OPLS3e

>  <r_lp_Energy>  (270) 
19.5295

>  <b_lp_Chiralities_Consistent>  (270) 
1

>  <s_lp_Variant>  (270) 
69:0-1

>  <s_i_glide_gridfile>  (270) 
pfpi4k_grid

>  <i_i_glide_lignum>  (270) 
23

>  <i_i_glide_rotatable_bonds>  (270) 
2

>  <r_i_docking_score>  (270) 
-3.40179

>  <r_i_glide_ligand_efficiency>  (270) 
-0.179042

>  <r_i_glide_ligand_efficiency_sa>  (270) 
-0.477755

>  <r_i_glide_ligand_efficiency_ln>  (270) 
-0.862427

>  <r_i_glide_gscore>  (270) 
-3.40179

>  <r_i_glide_lipo>  (270) 
-0.00331083

>  <r_i_glide_hbond>  (270) 
-0.16

>  <r_i_glide_metal>  (270) 
-0

>  <r_i_glide_rewards>  (270) 
-1.74992

>  <r_i_glide_evdw>  (270) 
-19.3751

>  <r_i_glide_ecoul>  (270) 
-3.44262

>  <r_i_glide_erotb>  (270) 
0.246529

>  <r_i_glide_esite>  (270) 
-0.249939

>  <r_i_glide_emodel>  (270) 
-26.765

>  <r_i_glide_energy>  (270) 
-22.8177

>  <r_i_glide_einternal>  (270) 
4.00221

>  <r_i_glide_intrahb_reward>  (270) 
-0

>  <i_i_glide_confnum>  (270) 
2

>  <i_i_glide_posenum>  (270) 
7

>  <r_i_glide_eff_state_penalty>  (270) 
0

>  <ligand_id>  (270) 
69

>  <original_smiles>  (270) 
Cn1c(-c2ccncn2)nn2c(C(F)(F)F)nnc12

>  <smiles>  (270) 
[H]c1nc([H])c([H])c(-c2nn3c(C(F)(F)F)nnc3n2C([H])([H])[H])n1

$$$$
69:0:2
     RDKit          3D

 25 27  0  0  1  0  0  0  0  0999 V2000
    1.1591    0.0081    2.4186 C   0  0  0  0  0  0  0  0  0  0  0  0
    0.5100   -0.6310    3.5523 N   0  0  0  0  0  0  0  0  0  0  0  0
   -0.4284   -0.1597    4.4590 C   0  0  0  0  0  0  0  0  0  0  0  0
   -1.0231    1.2166    4.3936 C   0  0  0  0  0  0  0  0  0  0  0  0
   -1.0303    2.0507    3.2523 C   0  0  0  0  0  0  0  0  0  0  0  0
   -1.6147    3.3161    3.3548 C   0  0  0  0  0  0  0  0  0  0  0  0
   -2.1764    3.7324    4.4992 N   0  0  0  0  0  0  0  0  0  0  0  0
   -2.1324    2.8878    5.5193 C   0  0  0  0  0  0  0  0  0  0  0  0
   -1.5986    1.6661    5.5333 N   0  0  0  0  0  0  0  0  0  0  0  0
   -0.7628   -1.1176    5.3747 N   0  0  0  0  0  0  0  0  0  0  0  0
    0.0233   -2.1385    4.9449 N   0  0  0  0  0  0  0  0  0  0  0  0
    0.1780   -3.3813    5.3907 C   0  0  0  0  0  0  0  0  0  0  0  0
   -0.4730   -4.0427    6.5711 C   0  0  0  0  0  0  0  0  0  0  0  0
    0.3300   -3.9847    7.6332 F   0  0  0  0  0  0  0  0  0  0  0  0
   -1.6424   -3.4916    6.8861 F   0  0  0  0  0  0  0  0  0  0  0  0
   -0.6934   -5.3280    6.2876 F   0  0  0  0  0  0  0  0  0  0  0  0
    1.0879   -3.9408    4.5722 N   0  0  0  0  0  0  0  0  0  0  0  0
    1.4664   -2.9624    3.5901 N   0  0  0  0  0  0  0  0  0  0  0  0
    0.7811   -1.9015    3.8919 C   0  0  0  0  0  0  0  0  0  0  0  0
    1.6025    0.9612    2.7156 H   0  0  0  0  0  0  0  0  0  0  0  0
    0.4613    0.1364    1.5894 H   0  0  0  0  0  0  0  0  0  0  0  0
    1.9540   -0.6300    2.0229 H   0  0  0  0  0  0  0  0  0  0  0  0
   -0.6318    1.8016    2.2923 H   0  0  0  0  0  0  0  0  0  0  0  0
   -1.6448    3.9884    2.5072 H   0  0  0  0  0  0  0  0  0  0  0  0
   -2.5944    3.2466    6.4228 H   0  0  0  0  0  0  0  0  0  0  0  0
  1  2  1  0
  1 20  1  0
  1 21  1  0
  1 22  1  0
  2 19  1  0
  2  3  1  0
  3  4  1  0
  3 10  2  0
  4  9  1  0
  4  5  2  0
  5  6  1  0
  5 23  1  0
  6  7  2  0
  6 24  1  0
  7  8  1  0
  8  9  2  0
  8 25  1  0
 10 11  1  0
 11 19  1  0
 11 12  1  0
 12 13  1  0
 12 17  2  0
 13 14  1  0
 13 15  1  0
 13 16  1  0
 17 18  1  0
 18 19  2  0
M  END
>  <i_m_ct_stereo_status>  (271) 
1

>  <s_m_source_file>  (271) 
/var/tmp/pbs.5076255.sched01/tmp0pz6dnip/90w4u7_w6b.sdf

>  <i_m_source_file_index>  (271) 
23

>  <i_lp_mmshare_version>  (271) 
48012

>  <i_f3d_flags>  (271) 
0

>  <s_epik_input>  (271) 
RkMoRikoRiljMW5uYyhuMTIpbihbQ0gzXSljKG4yKS1jM1tjSF1bY0hdbltjSF1uMw==

>  <s_epik_cmdline>  (271) 
J2VwaWtfcHl0aG9uJywgJy1waHQnLCAnMi4wJywgJy1waCcsICc3LjAnLCAnLXRuJywgJzgnLCAnLW1hJywgJzIwMCcsICctaW1hZScsICc8aW5maWxlLm1hZT4nLCAnLW9tYWUnLCAnPG91dGZpbGUubWFlPic=

>  <r_lp_tautomer_probability>  (271) 
1

>  <r_epik_Ionization_Penalty>  (271) 
1.79208e-06

>  <r_epik_Ionization_Penalty_Charging>  (271) 
0

>  <r_epik_Ionization_Penalty_Neutral>  (271) 
1.79208e-06

>  <r_epik_State_Penalty>  (271) 
-0

>  <r_epik_Charging_Adjusted_Penalty>  (271) 
0

>  <i_epik_Tot_Q>  (271) 
0

>  <i_epik_Tot_abs_Q>  (271) 
0

>  <s_lp_Force_Field>  (271) 
OPLS3e

>  <r_lp_Energy>  (271) 
19.5295

>  <b_lp_Chiralities_Consistent>  (271) 
1

>  <s_lp_Variant>  (271) 
69:0-1

>  <s_i_glide_gridfile>  (271) 
pfpi4k_grid

>  <i_i_glide_lignum>  (271) 
23

>  <i_i_glide_rotatable_bonds>  (271) 
2

>  <r_i_docking_score>  (271) 
-3.06214

>  <r_i_glide_ligand_efficiency>  (271) 
-0.161165

>  <r_i_glide_ligand_efficiency_sa>  (271) 
-0.430053

>  <r_i_glide_ligand_efficiency_ln>  (271) 
-0.776317

>  <r_i_glide_gscore>  (271) 
-3.06214

>  <r_i_glide_lipo>  (271) 
0

>  <r_i_glide_hbond>  (271) 
0

>  <r_i_glide_metal>  (271) 
-0

>  <r_i_glide_rewards>  (271) 
-1.72924

>  <r_i_glide_evdw>  (271) 
-20.0187

>  <r_i_glide_ecoul>  (271) 
-3.1875

>  <r_i_glide_erotb>  (271) 
0.246529

>  <r_i_glide_esite>  (271) 
-0.100367

>  <r_i_glide_emodel>  (271) 
-26.6129

>  <r_i_glide_energy>  (271) 
-23.2062

>  <r_i_glide_einternal>  (271) 
3.12987

>  <r_i_glide_intrahb_reward>  (271) 
-0

>  <i_i_glide_confnum>  (271) 
6

>  <i_i_glide_posenum>  (271) 
8

>  <r_i_glide_eff_state_penalty>  (271) 
0

>  <ligand_id>  (271) 
69

>  <original_smiles>  (271) 
Cn1c(-c2ccncn2)nn2c(C(F)(F)F)nnc12

>  <smiles>  (271) 
[H]c1nc([H])c([H])c(-c2nn3c(C(F)(F)F)nnc3n2C([H])([H])[H])n1

$$$$
70:0:0
     RDKit          3D

 69 75  0  0  1  0  0  0  0  0999 V2000
    1.4738   -5.4781    4.4312 C   0  0  0  0  0  0  0  0  0  0  0  0
    0.9774   -6.1112    3.1827 C   0  0  0  0  0  0  0  0  0  0  0  0
   -0.3083   -6.6562    3.2695 N   0  0  0  0  0  0  0  0  0  0  0  0
   -0.6462   -7.2577    2.1411 C   0  0  0  0  0  0  0  0  0  0  0  0
    0.5416   -7.0841    0.8789 S   0  0  0  0  0  0  0  0  0  0  0  0
    1.6113   -6.2844    1.9761 C   0  0  0  0  0  0  0  0  0  0  0  0
    3.0000   -5.8749    1.4694 C   0  0  2  0  0  0  0  0  0  0  0  0
    4.2048   -6.1068    2.4183 C   0  0  0  0  0  0  0  0  0  0  0  0
    4.1998   -7.0155    3.4274 C   0  0  0  0  0  0  0  0  0  0  0  0
    4.2150   -8.4435    2.8726 C   0  0  0  0  0  0  0  0  0  0  0  0
    5.2301   -8.5071    1.6899 C   0  0  0  0  0  0  0  0  0  0  0  0
    6.1249   -7.2560    1.6796 C   0  0  0  0  0  0  0  0  0  0  0  0
    5.5311   -6.0383    1.7954 C   0  0  0  0  0  0  0  0  0  0  0  0
    6.2680   -4.7051    1.8319 C   0  0  0  0  0  0  0  0  0  0  0  0
    6.7431   -4.2237    0.4387 C   0  0  0  0  0  0  0  0  0  0  0  0
    6.2093   -2.8612   -0.0875 C   0  0  2  0  0  0  0  0  0  0  0  0
    6.7677   -2.6183   -1.5079 C   0  0  0  0  0  0  0  0  0  0  0  0
    6.6528   -1.7332    0.8832 C   0  0  1  0  0  0  0  0  0  0  0  0
    7.8415   -1.1389    0.4736 O   0  0  0  0  0  0  0  0  0  0  0  0
    5.6003   -0.8397    0.9167 O   0  0  0  0  0  0  0  0  0  0  0  0
    4.3917   -1.5792    0.9320 C   0  0  0  0  0  0  0  0  0  0  0  0
    4.6763   -2.6462   -0.1358 C   0  0  2  0  0  0  0  0  0  0  0  0
    3.8191   -3.9212   -0.1248 C   0  0  2  0  0  0  0  0  0  0  0  0
    2.3169   -3.8862   -0.1759 C   0  0  0  0  0  0  0  0  0  0  0  0
    2.9982   -4.4001    1.0697 C   0  0  1  0  0  0  0  0  0  0  0  0
    7.4655   -7.4853    2.3421 C   0  0  0  0  0  0  0  0  0  0  0  0
    7.2364   -7.9694    3.8104 C   0  0  0  0  0  0  0  0  0  0  0  0
    6.3789   -7.0896    4.7591 C   0  0  0  0  0  0  0  0  0  0  0  0
    5.0541   -6.7284    4.5994 C   0  0  0  0  0  0  0  0  0  0  0  0
    4.3752   -5.9282    5.6955 C   0  0  0  0  0  0  0  0  0  0  0  0
    4.8898   -6.1590    7.0874 C   0  0  0  0  0  0  0  0  0  0  0  0
    6.3951   -5.9730    7.1150 C   0  0  0  0  0  0  0  0  0  0  0  0
    6.9511   -5.2358    7.9296 O   0  0  0  0  0  0  0  0  0  0  0  0
    7.1755   -6.7284    6.0300 C   0  0  0  0  0  0  0  0  0  0  0  0
    2.4650   -5.0616    4.2532 H   0  0  0  0  0  0  0  0  0  0  0  0
    1.5223   -6.2826    5.1673 H   0  0  0  0  0  0  0  0  0  0  0  0
    0.8067   -4.6895    4.7962 H   0  0  0  0  0  0  0  0  0  0  0  0
   -1.6364   -7.6823    2.0638 H   0  0  0  0  0  0  0  0  0  0  0  0
    3.1871   -6.4426    0.5530 H   0  0  0  0  0  0  0  0  0  0  0  0
    4.4998   -9.1500    3.6520 H   0  0  0  0  0  0  0  0  0  0  0  0
    3.2278   -8.7506    2.5116 H   0  0  0  0  0  0  0  0  0  0  0  0
    5.8145   -9.4280    1.6913 H   0  0  0  0  0  0  0  0  0  0  0  0
    4.6787   -8.5093    0.7461 H   0  0  0  0  0  0  0  0  0  0  0  0
    5.6011   -3.9676    2.2782 H   0  0  0  0  0  0  0  0  0  0  0  0
    7.1240   -4.7639    2.4986 H   0  0  0  0  0  0  0  0  0  0  0  0
    7.8285   -4.1538    0.4656 H   0  0  0  0  0  0  0  0  0  0  0  0
    6.5341   -4.9912   -0.3065 H   0  0  0  0  0  0  0  0  0  0  0  0
    6.5022   -1.6324   -1.8808 H   0  0  0  0  0  0  0  0  0  0  0  0
    6.3637   -3.3462   -2.2098 H   0  0  0  0  0  0  0  0  0  0  0  0
    7.8481   -2.7183   -1.5409 H   0  0  0  0  0  0  0  0  0  0  0  0
    6.7929   -2.1080    1.8959 H   0  0  0  0  0  0  0  0  0  0  0  0
    7.9955   -0.3669    1.0698 H   0  0  0  0  0  0  0  0  0  0  0  0
    4.2368   -2.0121    1.9224 H   0  0  0  0  0  0  0  0  0  0  0  0
    3.5320   -0.9431    0.6947 H   0  0  0  0  0  0  0  0  0  0  0  0
    4.4303   -2.1477   -1.0756 H   0  0  0  0  0  0  0  0  0  0  0  0
    4.2319   -4.6976   -0.7661 H   0  0  0  0  0  0  0  0  0  0  0  0
    1.8688   -2.8956   -0.1295 H   0  0  0  0  0  0  0  0  0  0  0  0
    1.8390   -4.6079   -0.8407 H   0  0  0  0  0  0  0  0  0  0  0  0
    2.8844   -3.7314    1.9185 H   0  0  0  0  0  0  0  0  0  0  0  0
    8.0019   -8.2591    1.8001 H   0  0  0  0  0  0  0  0  0  0  0  0
    8.1031   -6.6050    2.3184 H   0  0  0  0  0  0  0  0  0  0  0  0
    6.8232   -8.9856    3.8308 H   0  0  0  0  0  0  0  0  0  0  0  0
    8.2257   -8.0708    4.2736 H   0  0  0  0  0  0  0  0  0  0  0  0
    4.4485   -4.8629    5.4546 H   0  0  0  0  0  0  0  0  0  0  0  0
    3.3754   -6.3001    5.8599 H   0  0  0  0  0  0  0  0  0  0  0  0
    4.3957   -5.4861    7.7853 H   0  0  0  0  0  0  0  0  0  0  0  0
    4.6420   -7.1755    7.4017 H   0  0  0  0  0  0  0  0  0  0  0  0
    7.5296   -7.6551    6.4959 H   0  0  0  0  0  0  0  0  0  0  0  0
    8.0345   -6.1073    5.7446 H   0  0  0  0  0  0  0  0  0  0  0  0
  1  2  1  0
  1 35  1  0
  1 36  1  0
  1 37  1  0
  2  6  2  0
  2  3  1  0
  3  4  2  0
  4  5  1  0
  4 38  1  0
  5  6  1  0
  6  7  1  0
  7 25  1  0
  7  8  1  0
  7 39  1  6
  8 13  1  0
  8  9  2  0
  9 29  1  0
  9 10  1  0
 10 11  1  0
 10 40  1  0
 10 41  1  0
 11 12  1  0
 11 42  1  0
 11 43  1  0
 12 13  2  0
 12 26  1  0
 13 14  1  0
 14 15  1  0
 14 44  1  0
 14 45  1  0
 15 16  1  0
 15 46  1  0
 15 47  1  0
 16 22  1  0
 16 17  1  6
 16 18  1  0
 17 48  1  0
 17 49  1  0
 17 50  1  0
 18 19  1  0
 18 20  1  0
 18 51  1  1
 19 52  1  0
 20 21  1  0
 21 22  1  0
 21 53  1  0
 21 54  1  0
 22 23  1  0
 22 55  1  6
 23 25  1  0
 23 24  1  0
 23 56  1  6
 24 25  1  0
 24 57  1  0
 24 58  1  0
 25 59  1  1
 26 27  1  0
 26 60  1  0
 26 61  1  0
 27 28  1  0
 27 62  1  0
 27 63  1  0
 28 34  1  0
 28 29  2  0
 29 30  1  0
 30 31  1  0
 30 64  1  0
 30 65  1  0
 31 32  1  0
 31 66  1  0
 31 67  1  0
 32 33  2  0
 32 34  1  0
 34 68  1  0
 34 69  1  0
M  END
>  <i_m_ct_stereo_status>  (272) 
1

>  <s_m_source_file>  (272) 
/var/tmp/pbs.5076255.sched01/tmp0pz6dnip/90w4u7_w6b.sdf

>  <i_m_source_file_index>  (272) 
24

>  <i_lp_mmshare_version>  (272) 
48012

>  <i_f3d_flags>  (272) 
0

>  <s_epik_input>  (272) 
W09IXVtDQEhdMU9bQ0gyXVtDQEBIXShbQ0BAXTEyW0NIM10pW0NASF0zW0NAQEhdKFtDSDJdMylbQ0BIXShjNHNbY0hdbmM0W0NIM10pQzU9QzZDNz1DKFtDSDJdQyg9TylbQ0gyXVtDSDJdNylbQ0gyXVtDSDJdQyhbQ0gyXVtDSDJdNik9QzVbQ0gyXVtDSDJdMg==

>  <s_epik_cmdline>  (272) 
J2VwaWtfcHl0aG9uJywgJy1waHQnLCAnMi4wJywgJy1waCcsICc3LjAnLCAnLXRuJywgJzgnLCAnLW1hJywgJzIwMCcsICctaW1hZScsICc8aW5maWxlLm1hZT4nLCAnLW9tYWUnLCAnPG91dGZpbGUubWFlPic=

>  <r_lp_tautomer_probability>  (272) 
0.99995

>  <r_epik_Ionization_Penalty>  (272) 
0.00169602

>  <r_epik_Ionization_Penalty_Charging>  (272) 
0

>  <r_epik_Ionization_Penalty_Neutral>  (272) 
0.00169602

>  <r_epik_State_Penalty>  (272) 
0.00114567

>  <r_epik_Charging_Adjusted_Penalty>  (272) 
0.00114567

>  <i_epik_Tot_Q>  (272) 
0

>  <i_epik_Tot_abs_Q>  (272) 
0

>  <s_epik_Chemistry_Notes>  (272) 
This compound contains an acetal/aminal-like group ( X-CH(R)-Y where X, Y are N, S, or O) that may be acid/base labile, releasing an aldehyde.

>  <s_lp_Force_Field>  (272) 
OPLS3e

>  <r_lp_Energy>  (272) 
124.515

>  <b_lp_Chiralities_Consistent>  (272) 
1

>  <s_lp_Variant>  (272) 
70:0-1

>  <s_i_glide_gridfile>  (272) 
pfpi4k_grid

>  <i_i_glide_lignum>  (272) 
24

>  <i_i_glide_rotatable_bonds>  (272) 
2

>  <r_i_docking_score>  (272) 
-2.74267

>  <r_i_glide_ligand_efficiency>  (272) 
-0.0806668

>  <r_i_glide_ligand_efficiency_sa>  (272) 
-0.261329

>  <r_i_glide_ligand_efficiency_ln>  (272) 
-0.605933

>  <r_i_glide_gscore>  (272) 
-2.74267

>  <r_i_glide_lipo>  (272) 
-0.400888

>  <r_i_glide_hbond>  (272) 
-0.139561

>  <r_i_glide_metal>  (272) 
-0

>  <r_i_glide_rewards>  (272) 
-0.208735

>  <r_i_glide_evdw>  (272) 
-24.0788

>  <r_i_glide_ecoul>  (272) 
-5.85561

>  <r_i_glide_erotb>  (272) 
0.0887925

>  <r_i_glide_esite>  (272) 
0

>  <r_i_glide_emodel>  (272) 
-31.8009

>  <r_i_glide_energy>  (272) 
-29.9344

>  <r_i_glide_einternal>  (272) 
1.19882

>  <r_i_glide_intrahb_reward>  (272) 
-0

>  <i_i_glide_confnum>  (272) 
2

>  <i_i_glide_posenum>  (272) 
6

>  <r_i_glide_eff_state_penalty>  (272) 
0

>  <ligand_id>  (272) 
70

>  <original_smiles>  (272) 
Cc1ncsc1C1C2=C3CCC(=C2CCC2(C)C(O)OCC2C2CC12)CCC1=C3CCC(=O)C1

>  <smiles>  (272) 
[H]OC1([H])OC([H])([H])C2([H])C3([H])C([H])([H])C3([H])C([H])(c3sc([H])nc3C([H])([H])[H])C3=C4C5=C(C([H])([H])C(=O)C([H])([H])C5([H])[H])C([H])([H])C([H])([H])C(=C3C([H])([H])C([H])([H])C12C([H])([H])[H])C([H])([H])C4([H])[H]

$$$$
70:0:1
     RDKit          3D

 69 75  0  0  1  0  0  0  0  0999 V2000
    1.5785   -5.3383    4.6452 C   0  0  0  0  0  0  0  0  0  0  0  0
    1.0057   -6.0559    3.4805 C   0  0  0  0  0  0  0  0  0  0  0  0
   -0.2590   -6.5801    3.6349 N   0  0  0  0  0  0  0  0  0  0  0  0
   -0.7065   -7.2047    2.5457 C   0  0  0  0  0  0  0  0  0  0  0  0
    0.3981   -7.0943    1.2005 S   0  0  0  0  0  0  0  0  0  0  0  0
    1.5737   -6.3192    2.2268 C   0  0  0  0  0  0  0  0  0  0  0  0
    2.9602   -5.9992    1.6680 C   0  0  2  0  0  0  0  0  0  0  0  0
    4.1910   -6.2135    2.5743 C   0  0  0  0  0  0  0  0  0  0  0  0
    4.1920   -7.0624    3.6445 C   0  0  0  0  0  0  0  0  0  0  0  0
    4.1379   -8.5257    3.1942 C   0  0  0  0  0  0  0  0  0  0  0  0
    5.0947   -8.7069    1.9790 C   0  0  0  0  0  0  0  0  0  0  0  0
    6.0321   -7.4901    1.8461 C   0  0  0  0  0  0  0  0  0  0  0  0
    5.4889   -6.2431    1.9161 C   0  0  0  0  0  0  0  0  0  0  0  0
    6.2853   -4.9441    1.8372 C   0  0  0  0  0  0  0  0  0  0  0  0
    6.7142   -4.5816    0.3919 C   0  0  0  0  0  0  0  0  0  0  0  0
    6.2105   -3.2325   -0.2095 C   0  0  2  0  0  0  0  0  0  0  0  0
    6.7092   -3.1094   -1.6696 C   0  0  0  0  0  0  0  0  0  0  0  0
    6.7449   -2.0679    0.6423 C   0  0  1  0  0  0  0  0  0  0  0  0
    7.9595   -1.5378    0.1361 O   0  0  0  0  0  0  0  0  0  0  0  0
    5.7288   -1.1245    0.6767 O   0  0  0  0  0  0  0  0  0  0  0  0
    4.4832   -1.8198    0.7844 C   0  0  0  0  0  0  0  0  0  0  0  0
    4.6762   -2.9626   -0.2198 C   0  0  2  0  0  0  0  0  0  0  0  0
    3.7801   -4.2017   -0.0849 C   0  0  2  0  0  0  0  0  0  0  0  0
    2.2848   -4.1047   -0.0821 C   0  0  0  0  0  0  0  0  0  0  0  0
    2.9982   -4.5605    1.1684 C   0  0  1  0  0  0  0  0  0  0  0  0
    7.3898   -7.7333    2.4739 C   0  0  0  0  0  0  0  0  0  0  0  0
    7.1980   -8.0967    3.9874 C   0  0  0  0  0  0  0  0  0  0  0  0
    6.4155   -7.1210    4.9066 C   0  0  0  0  0  0  0  0  0  0  0  0
    5.0887   -6.7315    4.7643 C   0  0  0  0  0  0  0  0  0  0  0  0
    4.4641   -5.8487    5.8201 C   0  0  0  0  0  0  0  0  0  0  0  0
    5.0606   -5.9892    7.2055 C   0  0  0  0  0  0  0  0  0  0  0  0
    6.5702   -5.8549    7.1553 C   0  0  0  0  0  0  0  0  0  0  0  0
    7.2006   -5.1148    7.8932 O   0  0  0  0  0  0  0  0  0  0  0  0
    7.2772   -6.7142    6.1072 C   0  0  0  0  0  0  0  0  0  0  0  0
    2.6210   -5.0045    4.4984 H   0  0  0  0  0  0  0  0  0  0  0  0
    1.6469   -6.0455    5.4487 H   0  0  0  0  0  0  0  0  0  0  0  0
    0.9556   -4.4981    4.9611 H   0  0  0  0  0  0  0  0  0  0  0  0
   -1.7102   -7.6094    2.5439 H   0  0  0  0  0  0  0  0  0  0  0  0
    3.0859   -6.6470    0.7893 H   0  0  0  0  0  0  0  0  0  0  0  0
    4.4263   -9.1860    4.0128 H   0  0  0  0  0  0  0  0  0  0  0  0
    3.1285   -8.8073    2.8961 H   0  0  0  0  0  0  0  0  0  0  0  0
    5.6464   -9.6416    2.0236 H   0  0  0  0  0  0  0  0  0  0  0  0
    4.5033   -8.7483    1.0669 H   0  0  0  0  0  0  0  0  0  0  0  0
    5.6583   -4.1557    2.2449 H   0  0  0  0  0  0  0  0  0  0  0  0
    7.1558   -4.9879    2.4964 H   0  0  0  0  0  0  0  0  0  0  0  0
    7.7991   -4.5579    0.3587 H   0  0  0  0  0  0  0  0  0  0  0  0
    6.4255   -5.3828   -0.2801 H   0  0  0  0  0  0  0  0  0  0  0  0
    6.4879   -2.1267   -2.0873 H   0  0  0  0  0  0  0  0  0  0  0  0
    6.2409   -3.8613   -2.3060 H   0  0  0  0  0  0  0  0  0  0  0  0
    7.7838   -3.2578   -1.7386 H   0  0  0  0  0  0  0  0  0  0  0  0
    6.9306   -2.3644    1.6773 H   0  0  0  0  0  0  0  0  0  0  0  0
    8.6840   -2.0264    0.4964 H   0  0  0  0  0  0  0  0  0  0  0  0
    4.3665   -2.1841    1.8041 H   0  0  0  0  0  0  0  0  0  0  0  0
    3.6388   -1.1640    0.5458 H   0  0  0  0  0  0  0  0  0  0  0  0
    4.4190   -2.5215   -1.1833 H   0  0  0  0  0  0  0  0  0  0  0  0
    4.1354   -5.0325   -0.6903 H   0  0  0  0  0  0  0  0  0  0  0  0
    1.8777   -3.0910   -0.0948 H   0  0  0  0  0  0  0  0  0  0  0  0
    1.7561   -4.8448   -0.6819 H   0  0  0  0  0  0  0  0  0  0  0  0
    2.9395   -3.8369    1.9777 H   0  0  0  0  0  0  0  0  0  0  0  0
    7.8566   -8.5746    1.9621 H   0  0  0  0  0  0  0  0  0  0  0  0
    8.0648   -6.8868    2.3540 H   0  0  0  0  0  0  0  0  0  0  0  0
    6.7603   -9.1040    4.0813 H   0  0  0  0  0  0  0  0  0  0  0  0
    8.2134   -8.2221    4.3998 H   0  0  0  0  0  0  0  0  0  0  0  0
    4.5974   -4.8143    5.5182 H   0  0  0  0  0  0  0  0  0  0  0  0
    3.4428   -6.1219    5.9438 H   0  0  0  0  0  0  0  0  0  0  0  0
    4.6402   -5.2576    7.8808 H   0  0  0  0  0  0  0  0  0  0  0  0
    4.8007   -6.9749    7.6071 H   0  0  0  0  0  0  0  0  0  0  0  0
    7.6385   -7.6371    6.6172 H   0  0  0  0  0  0  0  0  0  0  0  0
    8.1687   -6.1616    5.7440 H   0  0  0  0  0  0  0  0  0  0  0  0
  1  2  1  0
  1 35  1  0
  1 36  1  0
  1 37  1  0
  2  6  2  0
  2  3  1  0
  3  4  2  0
  4  5  1  0
  4 38  1  0
  5  6  1  0
  6  7  1  0
  7 25  1  0
  7  8  1  0
  7 39  1  6
  8 13  1  0
  8  9  2  0
  9 29  1  0
  9 10  1  0
 10 11  1  0
 10 40  1  0
 10 41  1  0
 11 12  1  0
 11 42  1  0
 11 43  1  0
 12 13  2  0
 12 26  1  0
 13 14  1  0
 14 15  1  0
 14 44  1  0
 14 45  1  0
 15 16  1  0
 15 46  1  0
 15 47  1  0
 16 22  1  0
 16 17  1  6
 16 18  1  0
 17 48  1  0
 17 49  1  0
 17 50  1  0
 18 19  1  0
 18 20  1  0
 18 51  1  1
 19 52  1  0
 20 21  1  0
 21 22  1  0
 21 53  1  0
 21 54  1  0
 22 23  1  0
 22 55  1  6
 23 25  1  0
 23 24  1  0
 23 56  1  6
 24 25  1  0
 24 57  1  0
 24 58  1  0
 25 59  1  1
 26 27  1  0
 26 60  1  0
 26 61  1  0
 27 28  1  0
 27 62  1  0
 27 63  1  0
 28 34  1  0
 28 29  2  0
 29 30  1  0
 30 31  1  0
 30 64  1  0
 30 65  1  0
 31 32  1  0
 31 66  1  0
 31 67  1  0
 32 33  2  0
 32 34  1  0
 34 68  1  0
 34 69  1  0
M  END
>  <i_m_ct_stereo_status>  (273) 
1

>  <s_m_source_file>  (273) 
/var/tmp/pbs.5076255.sched01/tmp0pz6dnip/90w4u7_w6b.sdf

>  <i_m_source_file_index>  (273) 
24

>  <i_lp_mmshare_version>  (273) 
48012

>  <i_f3d_flags>  (273) 
0

>  <s_epik_input>  (273) 
W09IXVtDQEhdMU9bQ0gyXVtDQEBIXShbQ0BAXTEyW0NIM10pW0NASF0zW0NAQEhdKFtDSDJdMylbQ0BIXShjNHNbY0hdbmM0W0NIM10pQzU9QzZDNz1DKFtDSDJdQyg9TylbQ0gyXVtDSDJdNylbQ0gyXVtDSDJdQyhbQ0gyXVtDSDJdNik9QzVbQ0gyXVtDSDJdMg==

>  <s_epik_cmdline>  (273) 
J2VwaWtfcHl0aG9uJywgJy1waHQnLCAnMi4wJywgJy1waCcsICc3LjAnLCAnLXRuJywgJzgnLCAnLW1hJywgJzIwMCcsICctaW1hZScsICc8aW5maWxlLm1hZT4nLCAnLW9tYWUnLCAnPG91dGZpbGUubWFlPic=

>  <r_lp_tautomer_probability>  (273) 
0.99995

>  <r_epik_Ionization_Penalty>  (273) 
0.00169602

>  <r_epik_Ionization_Penalty_Charging>  (273) 
0

>  <r_epik_Ionization_Penalty_Neutral>  (273) 
0.00169602

>  <r_epik_State_Penalty>  (273) 
0.00114567

>  <r_epik_Charging_Adjusted_Penalty>  (273) 
0.00114567

>  <i_epik_Tot_Q>  (273) 
0

>  <i_epik_Tot_abs_Q>  (273) 
0

>  <s_epik_Chemistry_Notes>  (273) 
This compound contains an acetal/aminal-like group ( X-CH(R)-Y where X, Y are N, S, or O) that may be acid/base labile, releasing an aldehyde.

>  <s_lp_Force_Field>  (273) 
OPLS3e

>  <r_lp_Energy>  (273) 
124.515

>  <b_lp_Chiralities_Consistent>  (273) 
1

>  <s_lp_Variant>  (273) 
70:0-1

>  <s_i_glide_gridfile>  (273) 
pfpi4k_grid

>  <i_i_glide_lignum>  (273) 
24

>  <i_i_glide_rotatable_bonds>  (273) 
2

>  <r_i_docking_score>  (273) 
-2.24046

>  <r_i_glide_ligand_efficiency>  (273) 
-0.0658959

>  <r_i_glide_ligand_efficiency_sa>  (273) 
-0.213477

>  <r_i_glide_ligand_efficiency_ln>  (273) 
-0.494981

>  <r_i_glide_gscore>  (273) 
-2.24046

>  <r_i_glide_lipo>  (273) 
-0.452438

>  <r_i_glide_hbond>  (273) 
-0.0678547

>  <r_i_glide_metal>  (273) 
-0

>  <r_i_glide_rewards>  (273) 
-0.225528

>  <r_i_glide_evdw>  (273) 
-25.9529

>  <r_i_glide_ecoul>  (273) 
-1.90526

>  <r_i_glide_erotb>  (273) 
0.0887925

>  <r_i_glide_esite>  (273) 
0

>  <r_i_glide_emodel>  (273) 
-27.4938

>  <r_i_glide_energy>  (273) 
-27.8582

>  <r_i_glide_einternal>  (273) 
2.67285

>  <r_i_glide_intrahb_reward>  (273) 
-0

>  <i_i_glide_confnum>  (273) 
2

>  <i_i_glide_posenum>  (273) 
11

>  <r_i_glide_eff_state_penalty>  (273) 
0

>  <ligand_id>  (273) 
70

>  <original_smiles>  (273) 
Cc1ncsc1C1C2=C3CCC(=C2CCC2(C)C(O)OCC2C2CC12)CCC1=C3CCC(=O)C1

>  <smiles>  (273) 
[H]OC1([H])OC([H])([H])C2([H])C3([H])C([H])([H])C3([H])C([H])(c3sc([H])nc3C([H])([H])[H])C3=C4C5=C(C([H])([H])C(=O)C([H])([H])C5([H])[H])C([H])([H])C([H])([H])C(=C3C([H])([H])C([H])([H])C12C([H])([H])[H])C([H])([H])C4([H])[H]

$$$$
70:0:2
     RDKit          3D

 69 75  0  0  1  0  0  0  0  0999 V2000
    2.5740   -9.8615    2.4633 C   0  0  0  0  0  0  0  0  0  0  0  0
    1.3317   -9.0933    2.7960 C   0  0  0  0  0  0  0  0  0  0  0  0
    0.1210   -9.7863    2.7177 N   0  0  0  0  0  0  0  0  0  0  0  0
   -0.9260   -9.0179    2.9907 C   0  0  0  0  0  0  0  0  0  0  0  0
   -0.5084   -7.3655    3.4082 S   0  0  0  0  0  0  0  0  0  0  0  0
    1.1923   -7.7701    3.1807 C   0  0  0  0  0  0  0  0  0  0  0  0
    2.2847   -6.7349    3.3657 C   0  0  2  0  0  0  0  0  0  0  0  0
    2.3178   -6.0655    4.7495 C   0  0  0  0  0  0  0  0  0  0  0  0
    1.7886   -6.6426    5.8615 C   0  0  0  0  0  0  0  0  0  0  0  0
    2.6127   -7.8349    6.3326 C   0  0  0  0  0  0  0  0  0  0  0  0
    4.1160   -7.4755    6.1922 C   0  0  0  0  0  0  0  0  0  0  0  0
    4.2961   -5.9579    6.0045 C   0  0  0  0  0  0  0  0  0  0  0  0
    3.5228   -5.3146    5.0857 C   0  0  0  0  0  0  0  0  0  0  0  0
    3.5642   -3.8159    4.8061 C   0  0  0  0  0  0  0  0  0  0  0  0
    4.7727   -3.3852    3.9301 C   0  0  0  0  0  0  0  0  0  0  0  0
    4.4720   -2.7014    2.5598 C   0  0  2  0  0  0  0  0  0  0  0  0
    5.8154   -2.4224    1.8377 C   0  0  0  0  0  0  0  0  0  0  0  0
    3.6891   -1.3725    2.7983 C   0  0  1  0  0  0  0  0  0  0  0  0
    4.5158   -0.2332    2.8435 O   0  0  0  0  0  0  0  0  0  0  0  0
    2.7580   -1.2911    1.7717 O   0  0  0  0  0  0  0  0  0  0  0  0
    2.2801   -2.5995    1.5120 C   0  0  0  0  0  0  0  0  0  0  0  0
    3.5497   -3.4510    1.5655 C   0  0  2  0  0  0  0  0  0  0  0  0
    3.3924   -4.9581    1.7796 C   0  0  2  0  0  0  0  0  0  0  0  0
    2.5316   -5.8110    0.8835 C   0  0  0  0  0  0  0  0  0  0  0  0
    2.1449   -5.6232    2.3343 C   0  0  1  0  0  0  0  0  0  0  0  0
    4.6455   -5.2467    7.2890 C   0  0  0  0  0  0  0  0  0  0  0  0
    3.5193   -5.5153    8.3332 C   0  0  0  0  0  0  0  0  0  0  0  0
    2.0477   -5.1988    7.9536 C   0  0  0  0  0  0  0  0  0  0  0  0
    1.3047   -5.7305    6.9191 C   0  0  0  0  0  0  0  0  0  0  0  0
   -0.1527   -5.3171    6.7511 C   0  0  0  0  0  0  0  0  0  0  0  0
   -0.8550   -4.9739    8.0659 C   0  0  0  0  0  0  0  0  0  0  0  0
   -0.0408   -3.9385    8.8101 C   0  0  0  0  0  0  0  0  0  0  0  0
   -0.5657   -2.9203    9.2609 O   0  0  0  0  0  0  0  0  0  0  0  0
    1.4457   -4.2338    8.9918 C   0  0  0  0  0  0  0  0  0  0  0  0
    3.4948   -9.2957    2.5829 H   0  0  0  0  0  0  0  0  0  0  0  0
    2.5546  -10.2207    1.4348 H   0  0  0  0  0  0  0  0  0  0  0  0
    2.6634  -10.7470    3.0907 H   0  0  0  0  0  0  0  0  0  0  0  0
   -1.9274   -9.4295    2.9631 H   0  0  0  0  0  0  0  0  0  0  0  0
    3.2614   -7.2077    3.2145 H   0  0  0  0  0  0  0  0  0  0  0  0
    2.3719   -8.0765    7.3691 H   0  0  0  0  0  0  0  0  0  0  0  0
    2.3797   -8.7181    5.7385 H   0  0  0  0  0  0  0  0  0  0  0  0
    4.7142   -7.8561    7.0200 H   0  0  0  0  0  0  0  0  0  0  0  0
    4.5084   -7.9523    5.2940 H   0  0  0  0  0  0  0  0  0  0  0  0
    2.6320   -3.5515    4.3113 H   0  0  0  0  0  0  0  0  0  0  0  0
    3.5501   -3.2459    5.7351 H   0  0  0  0  0  0  0  0  0  0  0  0
    5.3807   -2.6957    4.5138 H   0  0  0  0  0  0  0  0  0  0  0  0
    5.4284   -4.2411    3.7633 H   0  0  0  0  0  0  0  0  0  0  0  0
    5.6717   -1.8409    0.9240 H   0  0  0  0  0  0  0  0  0  0  0  0
    6.3096   -3.3578    1.5640 H   0  0  0  0  0  0  0  0  0  0  0  0
    6.4996   -1.8630    2.4736 H   0  0  0  0  0  0  0  0  0  0  0  0
    3.1414   -1.3902    3.7417 H   0  0  0  0  0  0  0  0  0  0  0  0
    3.9506    0.5230    2.9057 H   0  0  0  0  0  0  0  0  0  0  0  0
    1.5524   -2.8638    2.2788 H   0  0  0  0  0  0  0  0  0  0  0  0
    1.8118   -2.6435    0.5309 H   0  0  0  0  0  0  0  0  0  0  0  0
    3.9781   -3.3486    0.5669 H   0  0  0  0  0  0  0  0  0  0  0  0
    4.3374   -5.4362    2.0256 H   0  0  0  0  0  0  0  0  0  0  0  0
    1.9486   -5.2964    0.1218 H   0  0  0  0  0  0  0  0  0  0  0  0
    2.9366   -6.7800    0.5958 H   0  0  0  0  0  0  0  0  0  0  0  0
    1.2481   -5.0220    2.4771 H   0  0  0  0  0  0  0  0  0  0  0  0
    5.5873   -5.6435    7.6705 H   0  0  0  0  0  0  0  0  0  0  0  0
    4.8107   -4.1804    7.1532 H   0  0  0  0  0  0  0  0  0  0  0  0
    3.5545   -6.5491    8.6778 H   0  0  0  0  0  0  0  0  0  0  0  0
    3.7769   -4.9439    9.2243 H   0  0  0  0  0  0  0  0  0  0  0  0
   -0.1747   -4.4471    6.0915 H   0  0  0  0  0  0  0  0  0  0  0  0
   -0.7010   -6.1147    6.2449 H   0  0  0  0  0  0  0  0  0  0  0  0
   -1.8627   -4.6014    7.8873 H   0  0  0  0  0  0  0  0  0  0  0  0
   -0.9464   -5.8566    8.6959 H   0  0  0  0  0  0  0  0  0  0  0  0
    1.5757   -4.6536    9.9871 H   0  0  0  0  0  0  0  0  0  0  0  0
    1.9994   -3.2960    8.9833 H   0  0  0  0  0  0  0  0  0  0  0  0
  1  2  1  0
  1 35  1  0
  1 36  1  0
  1 37  1  0
  2  6  2  0
  2  3  1  0
  3  4  2  0
  4  5  1  0
  4 38  1  0
  5  6  1  0
  6  7  1  0
  7 25  1  0
  7  8  1  0
  7 39  1  6
  8 13  1  0
  8  9  2  0
  9 29  1  0
  9 10  1  0
 10 11  1  0
 10 40  1  0
 10 41  1  0
 11 12  1  0
 11 42  1  0
 11 43  1  0
 12 13  2  0
 12 26  1  0
 13 14  1  0
 14 15  1  0
 14 44  1  0
 14 45  1  0
 15 16  1  0
 15 46  1  0
 15 47  1  0
 16 22  1  0
 16 17  1  6
 16 18  1  0
 17 48  1  0
 17 49  1  0
 17 50  1  0
 18 19  1  0
 18 20  1  0
 18 51  1  1
 19 52  1  0
 20 21  1  0
 21 22  1  0
 21 53  1  0
 21 54  1  0
 22 23  1  0
 22 55  1  6
 23 25  1  0
 23 24  1  0
 23 56  1  1
 24 25  1  0
 24 57  1  0
 24 58  1  0
 25 59  1  6
 26 27  1  0
 26 60  1  0
 26 61  1  0
 27 28  1  0
 27 62  1  0
 27 63  1  0
 28 34  1  0
 28 29  2  0
 29 30  1  0
 30 31  1  0
 30 64  1  0
 30 65  1  0
 31 32  1  0
 31 66  1  0
 31 67  1  0
 32 33  2  0
 32 34  1  0
 34 68  1  0
 34 69  1  0
M  END
>  <i_m_ct_stereo_status>  (274) 
1

>  <s_m_source_file>  (274) 
/var/tmp/pbs.5076255.sched01/tmp0pz6dnip/90w4u7_w6b.sdf

>  <i_m_source_file_index>  (274) 
24

>  <i_lp_mmshare_version>  (274) 
48012

>  <i_f3d_flags>  (274) 
0

>  <s_epik_input>  (274) 
W09IXVtDQEhdMU9bQ0gyXVtDQEBIXShbQ0BAXTEyW0NIM10pW0NASF0zW0NAQEhdKFtDSDJdMylbQ0BIXShjNHNbY0hdbmM0W0NIM10pQzU9QzZDNz1DKFtDSDJdQyg9TylbQ0gyXVtDSDJdNylbQ0gyXVtDSDJdQyhbQ0gyXVtDSDJdNik9QzVbQ0gyXVtDSDJdMg==

>  <s_epik_cmdline>  (274) 
J2VwaWtfcHl0aG9uJywgJy1waHQnLCAnMi4wJywgJy1waCcsICc3LjAnLCAnLXRuJywgJzgnLCAnLW1hJywgJzIwMCcsICctaW1hZScsICc8aW5maWxlLm1hZT4nLCAnLW9tYWUnLCAnPG91dGZpbGUubWFlPic=

>  <r_lp_tautomer_probability>  (274) 
0.99995

>  <r_epik_Ionization_Penalty>  (274) 
0.00169602

>  <r_epik_Ionization_Penalty_Charging>  (274) 
0

>  <r_epik_Ionization_Penalty_Neutral>  (274) 
0.00169602

>  <r_epik_State_Penalty>  (274) 
0.00114567

>  <r_epik_Charging_Adjusted_Penalty>  (274) 
0.00114567

>  <i_epik_Tot_Q>  (274) 
0

>  <i_epik_Tot_abs_Q>  (274) 
0

>  <s_epik_Chemistry_Notes>  (274) 
This compound contains an acetal/aminal-like group ( X-CH(R)-Y where X, Y are N, S, or O) that may be acid/base labile, releasing an aldehyde.

>  <s_lp_Force_Field>  (274) 
OPLS3e

>  <r_lp_Energy>  (274) 
124.515

>  <b_lp_Chiralities_Consistent>  (274) 
1

>  <s_lp_Variant>  (274) 
70:0-1

>  <s_i_glide_gridfile>  (274) 
pfpi4k_grid

>  <i_i_glide_lignum>  (274) 
24

>  <i_i_glide_rotatable_bonds>  (274) 
2

>  <r_i_docking_score>  (274) 
-2.00787

>  <r_i_glide_ligand_efficiency>  (274) 
-0.0590549

>  <r_i_glide_ligand_efficiency_sa>  (274) 
-0.191315

>  <r_i_glide_ligand_efficiency_ln>  (274) 
-0.443594

>  <r_i_glide_gscore>  (274) 
-2.00787

>  <r_i_glide_lipo>  (274) 
-0.192499

>  <r_i_glide_hbond>  (274) 
-0.16

>  <r_i_glide_metal>  (274) 
-0

>  <r_i_glide_rewards>  (274) 
-0.152324

>  <r_i_glide_evdw>  (274) 
-23.7888

>  <r_i_glide_ecoul>  (274) 
-2.52701

>  <r_i_glide_erotb>  (274) 
0.0887925

>  <r_i_glide_esite>  (274) 
-0.0233466

>  <r_i_glide_emodel>  (274) 
-29.7919

>  <r_i_glide_energy>  (274) 
-26.3158

>  <r_i_glide_einternal>  (274) 
0.492969

>  <r_i_glide_intrahb_reward>  (274) 
-0

>  <i_i_glide_confnum>  (274) 
2

>  <i_i_glide_posenum>  (274) 
32

>  <r_i_glide_eff_state_penalty>  (274) 
0

>  <ligand_id>  (274) 
70

>  <original_smiles>  (274) 
Cc1ncsc1C1C2=C3CCC(=C2CCC2(C)C(O)OCC2C2CC12)CCC1=C3CCC(=O)C1

>  <smiles>  (274) 
[H]OC1([H])OC([H])([H])C2([H])C3([H])C([H])([H])C3([H])C([H])(c3sc([H])nc3C([H])([H])[H])C3=C4C5=C(C([H])([H])C(=O)C([H])([H])C5([H])[H])C([H])([H])C([H])([H])C(=C3C([H])([H])C([H])([H])C12C([H])([H])[H])C([H])([H])C4([H])[H]

$$$$
71:0:0
     RDKit          3D

 65 69  0  0  1  0  0  0  0  0999 V2000
    2.9494   -6.1504    6.4937 C   0  0  0  0  0  0  0  0  0  0  0  0
    2.0016   -5.7959    5.3103 C   0  0  0  0  0  0  0  0  0  0  0  0
    1.2530   -7.1166    4.9933 C   0  0  0  0  0  0  0  0  0  0  0  0
    0.9575   -4.7226    5.7274 C   0  0  1  0  0  0  0  0  0  0  0  0
    0.2951   -5.0807    6.9217 O   0  0  0  0  0  0  0  0  0  0  0  0
    1.5504   -3.3116    5.8848 C   0  0  0  0  0  0  0  0  0  0  0  0
    2.3368   -2.8683    4.6349 C   0  0  1  0  0  0  0  0  0  0  0  0
    2.8476   -1.5654    4.8484 O   0  0  0  0  0  0  0  0  0  0  0  0
    3.4558   -3.8688    4.1567 C   0  0  1  0  0  0  0  0  0  0  0  0
    4.5379   -3.8082    5.2843 C   0  0  0  0  0  0  0  0  0  0  0  0
    2.7971   -5.2944    4.0346 C   0  0  2  0  0  0  0  0  0  0  0  0
    1.9360   -5.3574    2.7393 C   0  0  0  0  0  0  0  0  0  0  0  0
    2.7043   -5.0198    1.4465 C   0  0  1  0  0  0  0  0  0  0  0  0
    1.8280   -5.2530    0.3554 O   0  0  0  0  0  0  0  0  0  0  0  0
    3.3877   -3.6062    1.4006 C   0  0  1  0  0  0  0  0  0  0  0  0
    2.3002   -2.4912    1.4821 C   0  0  0  0  0  0  0  0  0  0  0  0
    4.2007   -3.5053    2.7675 C   0  0  2  0  0  0  0  0  0  0  0  0
    5.5710   -4.2466    2.6716 C   0  0  0  0  0  0  0  0  0  0  0  0
    6.5206   -3.9134    1.5115 C   0  0  1  0  0  0  0  0  0  0  0  0
    6.3221   -4.9364    0.3786 C   0  0  0  0  0  0  0  0  0  0  0  0
    5.0167   -4.7235   -0.4226 C   0  0  0  0  0  0  0  0  0  0  0  0
    4.2628   -3.4361    0.0195 C   0  0  1  0  0  0  0  0  0  0  0  0
    3.4587   -2.8123   -1.1608 C   0  0  0  0  0  0  0  0  0  0  0  0
    2.7244   -3.4541   -1.9028 O   0  0  0  0  0  0  0  0  0  0  0  0
    3.6717   -1.3584   -1.2080 C   0  0  0  0  0  0  0  0  0  0  0  0
    4.7238   -1.0614   -0.4452 C   0  0  0  0  0  0  0  0  0  0  0  0
    5.3634   -2.3468   -0.0151 C   0  0  1  0  0  0  0  0  0  0  0  0
    6.4788   -2.4373    1.0045 C   0  0  1  0  0  0  0  0  0  0  0  0
    6.3548   -1.4258    1.9841 O   0  0  0  0  0  0  0  0  0  0  0  0
    2.5125   -6.8971    7.1589 H   0  0  0  0  0  0  0  0  0  0  0  0
    3.1666   -5.3006    7.1376 H   0  0  0  0  0  0  0  0  0  0  0  0
    3.8964   -6.5662    6.1427 H   0  0  0  0  0  0  0  0  0  0  0  0
    0.4034   -6.9533    4.3316 H   0  0  0  0  0  0  0  0  0  0  0  0
    0.8424   -7.5764    5.8929 H   0  0  0  0  0  0  0  0  0  0  0  0
    1.9179   -7.8474    4.5287 H   0  0  0  0  0  0  0  0  0  0  0  0
    0.1889   -4.6673    4.9587 H   0  0  0  0  0  0  0  0  0  0  0  0
    0.9513   -5.2335    7.5898 H   0  0  0  0  0  0  0  0  0  0  0  0
    0.7295   -2.6105    6.0364 H   0  0  0  0  0  0  0  0  0  0  0  0
    2.1508   -3.2305    6.7854 H   0  0  0  0  0  0  0  0  0  0  0  0
    1.5427   -2.7669    3.9222 H   0  0  0  0  0  0  0  0  0  0  0  0
    3.1839   -1.2341    4.0278 H   0  0  0  0  0  0  0  0  0  0  0  0
    5.1520   -4.7079    5.3180 H   0  0  0  0  0  0  0  0  0  0  0  0
    4.1454   -3.6672    6.2827 H   0  0  0  0  0  0  0  0  0  0  0  0
    5.2022   -2.9506    5.1537 H   0  0  0  0  0  0  0  0  0  0  0  0
    3.6029   -6.0136    3.8803 H   0  0  0  0  0  0  0  0  0  0  0  0
    1.5732   -6.3722    2.5908 H   0  0  0  0  0  0  0  0  0  0  0  0
    1.0409   -4.7479    2.8398 H   0  0  0  0  0  0  0  0  0  0  0  0
    3.4717   -5.7897    1.4089 H   0  0  0  0  0  0  0  0  0  0  0  0
    2.3058   -5.1436   -0.4619 H   0  0  0  0  0  0  0  0  0  0  0  0
    2.6456   -1.5653    1.9544 H   0  0  0  0  0  0  0  0  0  0  0  0
    1.4246   -2.8464    1.9975 H   0  0  0  0  0  0  0  0  0  0  0  0
    1.8183   -2.2388    0.5485 H   0  0  0  0  0  0  0  0  0  0  0  0
    4.4390   -2.4568    2.8876 H   0  0  0  0  0  0  0  0  0  0  0  0
    6.1852   -4.0019    3.5274 H   0  0  0  0  0  0  0  0  0  0  0  0
    5.4281   -5.3261    2.7408 H   0  0  0  0  0  0  0  0  0  0  0  0
    7.5288   -4.1057    1.8754 H   0  0  0  0  0  0  0  0  0  0  0  0
    7.1727   -4.8402   -0.2974 H   0  0  0  0  0  0  0  0  0  0  0  0
    6.3617   -5.9593    0.7633 H   0  0  0  0  0  0  0  0  0  0  0  0
    5.2987   -4.6294   -1.4710 H   0  0  0  0  0  0  0  0  0  0  0  0
    4.4162   -5.6300   -0.4377 H   0  0  0  0  0  0  0  0  0  0  0  0
    2.9875   -0.6757   -1.6895 H   0  0  0  0  0  0  0  0  0  0  0  0
    5.9420   -2.5510   -0.9198 H   0  0  0  0  0  0  0  0  0  0  0  0
    5.0970   -0.0784   -0.2019 H   0  0  0  0  0  0  0  0  0  0  0  0
    7.4271   -2.2545    0.4878 H   0  0  0  0  0  0  0  0  0  0  0  0
    6.7738   -0.6349    1.6666 H   0  0  0  0  0  0  0  0  0  0  0  0
  1  2  1  0
  1 30  1  0
  1 31  1  0
  1 32  1  0
  2 11  1  0
  2  3  1  0
  2  4  1  0
  3 33  1  0
  3 34  1  0
  3 35  1  0
  4  5  1  0
  4  6  1  0
  4 36  1  6
  5 37  1  0
  6  7  1  0
  6 38  1  0
  6 39  1  0
  7  8  1  0
  7  9  1  0
  7 40  1  6
  8 41  1  0
  9 17  1  0
  9 10  1  1
  9 11  1  0
 10 42  1  0
 10 43  1  0
 10 44  1  0
 11 12  1  0
 11 45  1  6
 12 13  1  0
 12 46  1  0
 12 47  1  0
 13 14  1  0
 13 15  1  0
 13 48  1  6
 14 49  1  0
 15 16  1  1
 15 17  1  0
 15 22  1  0
 16 50  1  0
 16 51  1  0
 16 52  1  0
 17 18  1  0
 17 53  1  1
 18 19  1  0
 18 54  1  0
 18 55  1  0
 19 28  1  0
 19 20  1  0
 19 56  1  1
 20 21  1  0
 20 57  1  0
 20 58  1  0
 21 59  1  0
 21 60  1  0
 21 22  1  0
 22 27  1  0
 22 23  1  6
 23 24  2  0
 23 25  1  0
 25 26  2  0
 25 61  1  0
 26 63  1  0
 26 27  1  0
 27 28  1  0
 27 62  1  6
 28 29  1  0
 28 64  1  6
 29 65  1  0
M  END
>  <i_m_ct_stereo_status>  (275) 
1

>  <s_m_source_file>  (275) 
/var/tmp/pbs.5076255.sched01/tmp0pz6dnip/90w4u7_w6b.sdf

>  <i_m_source_file_index>  (275) 
25

>  <i_lp_mmshare_version>  (275) 
48012

>  <i_f3d_flags>  (275) 
0

>  <s_epik_input>  (275) 
W09IXVtDQEBIXTFbQ0gyXVtDQEhdKFtPSF0pQyhbQ0gzXSkoW0NIM10pW0NAQEhdKFtDSDJdW0NASF0yW09IXSlbQ0BAXTEoW0NIM10pW0NASF0oW0NAXTIoW0NAQF0zNDUpW0NIM10pW0NIMl1bQ0BASF0oW0NIMl1bQ0gyXTMpW0NASF0oW09IXSlDNT1bQ0hdW0NIMl1DND1P

>  <s_epik_cmdline>  (275) 
J2VwaWtfcHl0aG9uJywgJy1waHQnLCAnMi4wJywgJy1waCcsICc3LjAnLCAnLXRuJywgJzgnLCAnLW1hJywgJzIwMCcsICctaW1hZScsICc8aW5maWxlLm1hZT4nLCAnLW9tYWUnLCAnPG91dGZpbGUubWFlPic=

>  <r_lp_tautomer_probability>  (275) 
1

>  <r_epik_Ionization_Penalty>  (275) 
2.18222e-06

>  <r_epik_Ionization_Penalty_Charging>  (275) 
0

>  <r_epik_Ionization_Penalty_Neutral>  (275) 
2.18222e-06

>  <r_epik_State_Penalty>  (275) 
-0

>  <r_epik_Charging_Adjusted_Penalty>  (275) 
0

>  <i_epik_Tot_Q>  (275) 
0

>  <i_epik_Tot_abs_Q>  (275) 
0

>  <s_lp_Force_Field>  (275) 
OPLS3e

>  <r_lp_Energy>  (275) 
97.5018

>  <b_lp_Chiralities_Consistent>  (275) 
1

>  <s_lp_Variant>  (275) 
71:0-1

>  <s_i_glide_gridfile>  (275) 
pfpi4k_grid

>  <i_i_glide_lignum>  (275) 
25

>  <i_i_glide_rotatable_bonds>  (275) 
4

>  <r_i_docking_score>  (275) 
-3.28597

>  <r_i_glide_ligand_efficiency>  (275) 
-0.113309

>  <r_i_glide_ligand_efficiency_sa>  (275) 
-0.348122

>  <r_i_glide_ligand_efficiency_ln>  (275) 
-0.752404

>  <r_i_glide_gscore>  (275) 
-3.28597

>  <r_i_glide_lipo>  (275) 
-0.348335

>  <r_i_glide_hbond>  (275) 
-0.149245

>  <r_i_glide_metal>  (275) 
-0

>  <r_i_glide_rewards>  (275) 
-1.15087

>  <r_i_glide_evdw>  (275) 
-17.8762

>  <r_i_glide_ecoul>  (275) 
-4.81296

>  <r_i_glide_erotb>  (275) 
0

>  <r_i_glide_esite>  (275) 
-0.0217689

>  <r_i_glide_emodel>  (275) 
-32.3438

>  <r_i_glide_energy>  (275) 
-22.6892

>  <r_i_glide_einternal>  (275) 
1.27663

>  <r_i_glide_intrahb_reward>  (275) 
-0.5

>  <i_i_glide_confnum>  (275) 
2

>  <i_i_glide_posenum>  (275) 
5

>  <r_i_glide_eff_state_penalty>  (275) 
0

>  <ligand_id>  (275) 
71

>  <original_smiles>  (275) 
CC1(C)C(O)CC(O)C2(C)C1CC(O)C1(C)C2CC2CCC13C(=O)CC=C3C2O

>  <smiles>  (275) 
[H]OC1([H])C2([H])C([H])=C([H])C(=O)C23C([H])([H])C([H])([H])C1([H])C([H])([H])C1([H])C2(C([H])([H])[H])C([H])(O[H])C([H])([H])C([H])(O[H])C(C([H])([H])[H])(C([H])([H])[H])C2([H])C([H])([H])C([H])(O[H])C13C([H])([H])[H]

$$$$
71:0:1
     RDKit          3D

 65 69  0  0  1  0  0  0  0  0999 V2000
    3.7035   -1.1526   -2.8373 C   0  0  0  0  0  0  0  0  0  0  0  0
    3.5795   -2.5424   -2.1398 C   0  0  0  0  0  0  0  0  0  0  0  0
    2.2891   -3.1330   -2.7610 C   0  0  0  0  0  0  0  0  0  0  0  0
    4.7776   -3.4579   -2.4850 C   0  0  1  0  0  0  0  0  0  0  0  0
    4.9591   -3.5134   -3.8812 O   0  0  0  0  0  0  0  0  0  0  0  0
    6.0836   -3.0516   -1.7859 C   0  0  0  0  0  0  0  0  0  0  0  0
    5.9068   -2.9496   -0.2506 C   0  0  1  0  0  0  0  0  0  0  0  0
    7.1338   -2.5379    0.3147 O   0  0  0  0  0  0  0  0  0  0  0  0
    4.7281   -2.0263    0.2166 C   0  0  1  0  0  0  0  0  0  0  0  0
    5.1894   -0.6223   -0.1879 C   0  0  0  0  0  0  0  0  0  0  0  0
    3.4390   -2.4487   -0.5646 C   0  0  2  0  0  0  0  0  0  0  0  0
    2.8926   -3.7573    0.0590 C   0  0  0  0  0  0  0  0  0  0  0  0
    2.6114   -3.6609    1.5687 C   0  0  1  0  0  0  0  0  0  0  0  0
    2.0208   -4.8793    1.9720 O   0  0  0  0  0  0  0  0  0  0  0  0
    3.7993   -3.2518    2.4855 C   0  0  1  0  0  0  0  0  0  0  0  0
    4.8877   -4.3872    2.4051 C   0  0  0  0  0  0  0  0  0  0  0  0
    4.4212   -1.9577    1.7985 C   0  0  2  0  0  0  0  0  0  0  0  0
    3.6309   -0.6425    2.1621 C   0  0  0  0  0  0  0  0  0  0  0  0
    3.3476   -0.3039    3.6374 C   0  0  1  0  0  0  0  0  0  0  0  0
    1.9536   -0.8309    4.0465 C   0  0  0  0  0  0  0  0  0  0  0  0
    1.8948   -2.3691    4.2008 C   0  0  0  0  0  0  0  0  0  0  0  0
    3.2913   -3.0435    4.0297 C   0  0  1  0  0  0  0  0  0  0  0  0
    3.3913   -4.3417    4.8827 C   0  0  0  0  0  0  0  0  0  0  0  0
    2.4896   -5.1677    4.9239 O   0  0  0  0  0  0  0  0  0  0  0  0
    4.6925   -4.3882    5.5984 C   0  0  0  0  0  0  0  0  0  0  0  0
    5.2087   -3.1505    5.5722 C   0  0  0  0  0  0  0  0  0  0  0  0
    4.2129   -2.2080    4.9555 C   0  0  1  0  0  0  0  0  0  0  0  0
    4.4656   -0.7357    4.6225 C   0  0  1  0  0  0  0  0  0  0  0  0
    5.7495   -0.3986    4.1619 O   0  0  0  0  0  0  0  0  0  0  0  0
    3.3505   -1.1717   -3.8697 H   0  0  0  0  0  0  0  0  0  0  0  0
    4.7295   -0.7985   -2.9088 H   0  0  0  0  0  0  0  0  0  0  0  0
    3.1101   -0.3898   -2.3349 H   0  0  0  0  0  0  0  0  0  0  0  0
    2.1729   -4.1884   -2.5220 H   0  0  0  0  0  0  0  0  0  0  0  0
    2.2795   -3.0883   -3.8524 H   0  0  0  0  0  0  0  0  0  0  0  0
    1.3977   -2.6344   -2.3921 H   0  0  0  0  0  0  0  0  0  0  0  0
    4.5574   -4.4738   -2.1661 H   0  0  0  0  0  0  0  0  0  0  0  0
    5.5863   -4.2019   -4.0528 H   0  0  0  0  0  0  0  0  0  0  0  0
    6.8303   -3.8148   -1.9892 H   0  0  0  0  0  0  0  0  0  0  0  0
    6.4981   -2.1500   -2.2228 H   0  0  0  0  0  0  0  0  0  0  0  0
    5.7439   -3.9732    0.0362 H   0  0  0  0  0  0  0  0  0  0  0  0
    7.0816   -2.6548    1.2533 H   0  0  0  0  0  0  0  0  0  0  0  0
    4.3401    0.0506   -0.3098 H   0  0  0  0  0  0  0  0  0  0  0  0
    5.7488   -0.5581   -1.1112 H   0  0  0  0  0  0  0  0  0  0  0  0
    5.8654   -0.1704    0.5443 H   0  0  0  0  0  0  0  0  0  0  0  0
    2.6786   -1.6943   -0.3744 H   0  0  0  0  0  0  0  0  0  0  0  0
    1.9297   -3.9960   -0.3904 H   0  0  0  0  0  0  0  0  0  0  0  0
    3.5341   -4.6011   -0.1737 H   0  0  0  0  0  0  0  0  0  0  0  0
    1.8497   -2.8862    1.6288 H   0  0  0  0  0  0  0  0  0  0  0  0
    2.6942   -5.5431    2.0488 H   0  0  0  0  0  0  0  0  0  0  0  0
    5.9038   -3.9948    2.5030 H   0  0  0  0  0  0  0  0  0  0  0  0
    4.8231   -4.9564    1.4845 H   0  0  0  0  0  0  0  0  0  0  0  0
    4.8164   -5.2153    3.1012 H   0  0  0  0  0  0  0  0  0  0  0  0
    5.4052   -1.8356    2.2362 H   0  0  0  0  0  0  0  0  0  0  0  0
    4.1866    0.2396    1.8520 H   0  0  0  0  0  0  0  0  0  0  0  0
    2.7013   -0.5854    1.5925 H   0  0  0  0  0  0  0  0  0  0  0  0
    3.2838    0.7854    3.6938 H   0  0  0  0  0  0  0  0  0  0  0  0
    1.6671   -0.3692    4.9943 H   0  0  0  0  0  0  0  0  0  0  0  0
    1.1954   -0.5053    3.3295 H   0  0  0  0  0  0  0  0  0  0  0  0
    1.5175   -2.5711    5.2024 H   0  0  0  0  0  0  0  0  0  0  0  0
    1.1179   -2.7998    3.5763 H   0  0  0  0  0  0  0  0  0  0  0  0
    5.1408   -5.2915    5.9753 H   0  0  0  0  0  0  0  0  0  0  0  0
    3.6238   -2.0544    5.8664 H   0  0  0  0  0  0  0  0  0  0  0  0
    6.1668   -2.8518    5.9670 H   0  0  0  0  0  0  0  0  0  0  0  0
    4.3404   -0.1547    5.5402 H   0  0  0  0  0  0  0  0  0  0  0  0
    5.9303   -0.9203    3.3930 H   0  0  0  0  0  0  0  0  0  0  0  0
  1  2  1  0
  1 30  1  0
  1 31  1  0
  1 32  1  0
  2 11  1  0
  2  3  1  0
  2  4  1  0
  3 33  1  0
  3 34  1  0
  3 35  1  0
  4  5  1  0
  4  6  1  0
  4 36  1  1
  5 37  1  0
  6  7  1  0
  6 38  1  0
  6 39  1  0
  7  8  1  0
  7  9  1  0
  7 40  1  1
  8 41  1  0
  9 17  1  0
  9 10  1  6
  9 11  1  0
 10 42  1  0
 10 43  1  0
 10 44  1  0
 11 12  1  0
 11 45  1  6
 12 13  1  0
 12 46  1  0
 12 47  1  0
 13 14  1  0
 13 15  1  0
 13 48  1  6
 14 49  1  0
 15 16  1  1
 15 17  1  0
 15 22  1  0
 16 50  1  0
 16 51  1  0
 16 52  1  0
 17 18  1  0
 17 53  1  1
 18 19  1  0
 18 54  1  0
 18 55  1  0
 19 28  1  0
 19 20  1  0
 19 56  1  6
 20 21  1  0
 20 57  1  0
 20 58  1  0
 21 59  1  0
 21 60  1  0
 21 22  1  0
 22 27  1  0
 22 23  1  1
 23 24  2  0
 23 25  1  0
 25 26  2  0
 25 61  1  0
 26 63  1  0
 26 27  1  0
 27 28  1  0
 27 62  1  1
 28 29  1  0
 28 64  1  1
 29 65  1  0
M  END
>  <i_m_ct_stereo_status>  (276) 
1

>  <s_m_source_file>  (276) 
/var/tmp/pbs.5076255.sched01/tmp0pz6dnip/90w4u7_w6b.sdf

>  <i_m_source_file_index>  (276) 
25

>  <i_lp_mmshare_version>  (276) 
48012

>  <i_f3d_flags>  (276) 
0

>  <s_epik_input>  (276) 
W09IXVtDQEBIXTFbQ0gyXVtDQEhdKFtPSF0pQyhbQ0gzXSkoW0NIM10pW0NAQEhdKFtDSDJdW0NASF0yW09IXSlbQ0BAXTEoW0NIM10pW0NASF0oW0NAXTIoW0NAQF0zNDUpW0NIM10pW0NIMl1bQ0BASF0oW0NIMl1bQ0gyXTMpW0NASF0oW09IXSlDNT1bQ0hdW0NIMl1DND1P

>  <s_epik_cmdline>  (276) 
J2VwaWtfcHl0aG9uJywgJy1waHQnLCAnMi4wJywgJy1waCcsICc3LjAnLCAnLXRuJywgJzgnLCAnLW1hJywgJzIwMCcsICctaW1hZScsICc8aW5maWxlLm1hZT4nLCAnLW9tYWUnLCAnPG91dGZpbGUubWFlPic=

>  <r_lp_tautomer_probability>  (276) 
1

>  <r_epik_Ionization_Penalty>  (276) 
2.18222e-06

>  <r_epik_Ionization_Penalty_Charging>  (276) 
0

>  <r_epik_Ionization_Penalty_Neutral>  (276) 
2.18222e-06

>  <r_epik_State_Penalty>  (276) 
-0

>  <r_epik_Charging_Adjusted_Penalty>  (276) 
0

>  <i_epik_Tot_Q>  (276) 
0

>  <i_epik_Tot_abs_Q>  (276) 
0

>  <s_lp_Force_Field>  (276) 
OPLS3e

>  <r_lp_Energy>  (276) 
97.5018

>  <b_lp_Chiralities_Consistent>  (276) 
1

>  <s_lp_Variant>  (276) 
71:0-1

>  <s_i_glide_gridfile>  (276) 
pfpi4k_grid

>  <i_i_glide_lignum>  (276) 
25

>  <i_i_glide_rotatable_bonds>  (276) 
4

>  <r_i_docking_score>  (276) 
-3.02399

>  <r_i_glide_ligand_efficiency>  (276) 
-0.104276

>  <r_i_glide_ligand_efficiency_sa>  (276) 
-0.320368

>  <r_i_glide_ligand_efficiency_ln>  (276) 
-0.692417

>  <r_i_glide_gscore>  (276) 
-3.02399

>  <r_i_glide_lipo>  (276) 
-0.430984

>  <r_i_glide_hbond>  (276) 
0

>  <r_i_glide_metal>  (276) 
-0

>  <r_i_glide_rewards>  (276) 
-0.650866

>  <r_i_glide_evdw>  (276) 
-27.1792

>  <r_i_glide_ecoul>  (276) 
-3.88786

>  <r_i_glide_erotb>  (276) 
0

>  <r_i_glide_esite>  (276) 
0

>  <r_i_glide_emodel>  (276) 
-35.9135

>  <r_i_glide_energy>  (276) 
-31.0671

>  <r_i_glide_einternal>  (276) 
0.802243

>  <r_i_glide_intrahb_reward>  (276) 
-0

>  <i_i_glide_confnum>  (276) 
1

>  <i_i_glide_posenum>  (276) 
24

>  <r_i_glide_eff_state_penalty>  (276) 
0

>  <ligand_id>  (276) 
71

>  <original_smiles>  (276) 
CC1(C)C(O)CC(O)C2(C)C1CC(O)C1(C)C2CC2CCC13C(=O)CC=C3C2O

>  <smiles>  (276) 
[H]OC1([H])C2([H])C([H])=C([H])C(=O)C23C([H])([H])C([H])([H])C1([H])C([H])([H])C1([H])C2(C([H])([H])[H])C([H])(O[H])C([H])([H])C([H])(O[H])C(C([H])([H])[H])(C([H])([H])[H])C2([H])C([H])([H])C([H])(O[H])C13C([H])([H])[H]

$$$$
71:1:0
     RDKit          3D

 65 69  0  0  1  0  0  0  0  0999 V2000
    3.6983   -1.1341   -2.7106 C   0  0  0  0  0  0  0  0  0  0  0  0
    3.5679   -2.5563   -2.0979 C   0  0  0  0  0  0  0  0  0  0  0  0
    2.2787   -3.1194   -2.7451 C   0  0  0  0  0  0  0  0  0  0  0  0
    4.7750   -3.4511   -2.4899 C   0  0  1  0  0  0  0  0  0  0  0  0
    4.9640   -3.4602   -3.8886 O   0  0  0  0  0  0  0  0  0  0  0  0
    6.0774   -3.0666   -1.7661 C   0  0  0  0  0  0  0  0  0  0  0  0
    5.8937   -3.0406   -0.2297 C   0  0  1  0  0  0  0  0  0  0  0  0
    7.1277   -2.6786    0.3581 O   0  0  0  0  0  0  0  0  0  0  0  0
    4.7213   -2.1278    0.2830 C   0  0  1  0  0  0  0  0  0  0  0  0
    5.1691   -0.6646   -0.0342 C   0  0  0  0  0  0  0  0  0  0  0  0
    3.4305   -2.5503   -0.5170 C   0  0  2  0  0  0  0  0  0  0  0  0
    2.9162   -3.9128    0.0278 C   0  0  0  0  0  0  0  0  0  0  0  0
    2.6256   -3.9323    1.5340 C   0  0  1  0  0  0  0  0  0  0  0  0
    2.0847   -5.2079    1.8148 O   0  0  0  0  0  0  0  0  0  0  0  0
    3.8294   -3.5474    2.4593 C   0  0  1  0  0  0  0  0  0  0  0  0
    4.9640   -4.6279    2.3522 C   0  0  0  0  0  0  0  0  0  0  0  0
    4.4089   -2.1714    1.8663 C   0  0  2  0  0  0  0  0  0  0  0  0
    3.6129   -0.8788    2.2971 C   0  0  0  0  0  0  0  0  0  0  0  0
    3.0685   -0.6893    3.7289 C   0  0  1  0  0  0  0  0  0  0  0  0
    1.7290   -1.4061    3.8818 C   0  0  0  0  0  0  0  0  0  0  0  0
    1.9354   -2.8745    4.2497 C   0  0  0  0  0  0  0  0  0  0  0  0
    3.3849   -3.4234    4.0124 C   0  0  1  0  0  0  0  0  0  0  0  0
    3.3769   -4.7121    4.8740 C   0  0  0  0  0  0  0  0  0  0  0  0
    2.8638   -5.7683    4.5221 O   0  0  0  0  0  0  0  0  0  0  0  0
    4.0168   -4.4646    6.1665 C   0  0  0  0  0  0  0  0  0  0  0  0
    4.5678   -3.2484    6.1418 C   0  0  0  0  0  0  0  0  0  0  0  0
    4.4205   -2.5651    4.8041 C   0  0  2  0  0  0  0  0  0  0  0  0
    4.0319   -1.0749    4.8747 C   0  0  1  0  0  0  0  0  0  0  0  0
    5.1950   -0.2721    4.8305 O   0  0  0  0  0  0  0  0  0  0  0  0
    3.3226   -1.0865   -3.7350 H   0  0  0  0  0  0  0  0  0  0  0  0
    4.7214   -0.7732   -2.7690 H   0  0  0  0  0  0  0  0  0  0  0  0
    3.1032   -0.4202   -2.1497 H   0  0  0  0  0  0  0  0  0  0  0  0
    2.1740   -4.1884   -2.5811 H   0  0  0  0  0  0  0  0  0  0  0  0
    2.2629   -2.9905   -3.8300 H   0  0  0  0  0  0  0  0  0  0  0  0
    1.3915   -2.6425   -2.3340 H   0  0  0  0  0  0  0  0  0  0  0  0
    4.5681   -4.4845   -2.2219 H   0  0  0  0  0  0  0  0  0  0  0  0
    5.5890   -4.1382   -4.0899 H   0  0  0  0  0  0  0  0  0  0  0  0
    6.8331   -3.8160   -2.0087 H   0  0  0  0  0  0  0  0  0  0  0  0
    6.4792   -2.1303   -2.1445 H   0  0  0  0  0  0  0  0  0  0  0  0
    5.7170   -4.0786    0.0141 H   0  0  0  0  0  0  0  0  0  0  0  0
    7.0766   -2.8506    1.2878 H   0  0  0  0  0  0  0  0  0  0  0  0
    4.3238    0.0162   -0.1023 H   0  0  0  0  0  0  0  0  0  0  0  0
    5.7262   -0.5707   -0.9552 H   0  0  0  0  0  0  0  0  0  0  0  0
    5.8608   -0.2895    0.7232 H   0  0  0  0  0  0  0  0  0  0  0  0
    2.6444   -1.8357   -0.2843 H   0  0  0  0  0  0  0  0  0  0  0  0
    1.9678   -4.1568   -0.4451 H   0  0  0  0  0  0  0  0  0  0  0  0
    3.5835   -4.7255   -0.2457 H   0  0  0  0  0  0  0  0  0  0  0  0
    1.8285   -3.2057    1.6739 H   0  0  0  0  0  0  0  0  0  0  0  0
    2.7924   -5.8385    1.8399 H   0  0  0  0  0  0  0  0  0  0  0  0
    5.9540   -4.1747    2.3398 H   0  0  0  0  0  0  0  0  0  0  0  0
    4.8595   -5.2588    1.4747 H   0  0  0  0  0  0  0  0  0  0  0  0
    5.0261   -5.3584    3.1515 H   0  0  0  0  0  0  0  0  0  0  0  0
    5.3810   -2.0200    2.3319 H   0  0  0  0  0  0  0  0  0  0  0  0
    4.2594   -0.0118    2.1777 H   0  0  0  0  0  0  0  0  0  0  0  0
    2.7915   -0.7047    1.6020 H   0  0  0  0  0  0  0  0  0  0  0  0
    2.8452    0.3739    3.8283 H   0  0  0  0  0  0  0  0  0  0  0  0
    1.1426   -0.9230    4.6671 H   0  0  0  0  0  0  0  0  0  0  0  0
    1.1303   -1.3149    2.9728 H   0  0  0  0  0  0  0  0  0  0  0  0
    1.6947   -2.9460    5.3126 H   0  0  0  0  0  0  0  0  0  0  0  0
    1.1727   -3.4905    3.7718 H   0  0  0  0  0  0  0  0  0  0  0  0
    4.0173   -5.1657    6.9905 H   0  0  0  0  0  0  0  0  0  0  0  0
    5.4089   -2.6623    4.3572 H   0  0  0  0  0  0  0  0  0  0  0  0
    5.1074   -2.8011    6.9615 H   0  0  0  0  0  0  0  0  0  0  0  0
    3.5251   -0.8726    5.8225 H   0  0  0  0  0  0  0  0  0  0  0  0
    4.9349    0.6361    4.8891 H   0  0  0  0  0  0  0  0  0  0  0  0
  1  2  1  0
  1 30  1  0
  1 31  1  0
  1 32  1  0
  2 11  1  0
  2  3  1  0
  2  4  1  0
  3 33  1  0
  3 34  1  0
  3 35  1  0
  4  5  1  0
  4  6  1  0
  4 36  1  1
  5 37  1  0
  6  7  1  0
  6 38  1  0
  6 39  1  0
  7  8  1  0
  7  9  1  0
  7 40  1  1
  8 41  1  0
  9 17  1  0
  9 10  1  6
  9 11  1  0
 10 42  1  0
 10 43  1  0
 10 44  1  0
 11 12  1  0
 11 45  1  6
 12 13  1  0
 12 46  1  0
 12 47  1  0
 13 14  1  0
 13 15  1  0
 13 48  1  6
 14 49  1  0
 15 16  1  1
 15 17  1  0
 15 22  1  0
 16 50  1  0
 16 51  1  0
 16 52  1  0
 17 18  1  0
 17 53  1  1
 18 19  1  0
 18 54  1  0
 18 55  1  0
 19 28  1  0
 19 20  1  0
 19 56  1  1
 20 21  1  0
 20 57  1  0
 20 58  1  0
 21 59  1  0
 21 60  1  0
 21 22  1  0
 22 27  1  0
 22 23  1  1
 23 24  2  0
 23 25  1  0
 25 26  2  0
 25 61  1  0
 26 63  1  0
 26 27  1  0
 27 28  1  0
 27 62  1  6
 28 29  1  0
 28 64  1  1
 29 65  1  0
M  END
>  <i_m_ct_stereo_status>  (277) 
1

>  <s_m_source_file>  (277) 
/var/tmp/pbs.5076255.sched01/tmp0pz6dnip/90w4u7_w6b.sdf

>  <i_m_source_file_index>  (277) 
26

>  <i_lp_mmshare_version>  (277) 
48012

>  <i_f3d_flags>  (277) 
0

>  <s_epik_input>  (277) 
W09IXVtDQEBIXTFbQ0gyXVtDQEhdKFtPSF0pQyhbQ0gzXSkoW0NIM10pW0NAQEhdKFtDSDJdW0NASF0yW09IXSlbQ0BAXTEoW0NIM10pW0NASF0oW0NAXTIoW0NAQF0zNDUpW0NIM10pW0NIMl1bQ0BASF0oW0NIMl1bQ0gyXTMpW0NASF0oW09IXSlDNT1bQ0hdW0NIMl1DND1P

>  <s_epik_cmdline>  (277) 
J2VwaWtfcHl0aG9uJywgJy1waHQnLCAnMi4wJywgJy1waCcsICc3LjAnLCAnLXRuJywgJzgnLCAnLW1hJywgJzIwMCcsICctaW1hZScsICc8aW5maWxlLm1hZT4nLCAnLW9tYWUnLCAnPG91dGZpbGUubWFlPic=

>  <r_lp_tautomer_probability>  (277) 
1

>  <r_epik_Ionization_Penalty>  (277) 
2.18222e-06

>  <r_epik_Ionization_Penalty_Charging>  (277) 
0

>  <r_epik_Ionization_Penalty_Neutral>  (277) 
2.18222e-06

>  <r_epik_State_Penalty>  (277) 
-0

>  <r_epik_Charging_Adjusted_Penalty>  (277) 
0

>  <i_epik_Tot_Q>  (277) 
0

>  <i_epik_Tot_abs_Q>  (277) 
0

>  <s_lp_Force_Field>  (277) 
OPLS3e

>  <r_lp_Energy>  (277) 
78.8748

>  <b_lp_Chiralities_Consistent>  (277) 
1

>  <s_lp_Variant>  (277) 
71:0-2

>  <s_i_glide_gridfile>  (277) 
pfpi4k_grid

>  <i_i_glide_lignum>  (277) 
26

>  <i_i_glide_rotatable_bonds>  (277) 
4

>  <r_i_docking_score>  (277) 
-3.10033

>  <r_i_glide_ligand_efficiency>  (277) 
-0.106908

>  <r_i_glide_ligand_efficiency_sa>  (277) 
-0.328455

>  <r_i_glide_ligand_efficiency_ln>  (277) 
-0.709896

>  <r_i_glide_gscore>  (277) 
-3.10033

>  <r_i_glide_lipo>  (277) 
-0.427661

>  <r_i_glide_hbond>  (277) 
0

>  <r_i_glide_metal>  (277) 
-0

>  <r_i_glide_rewards>  (277) 
-0.650866

>  <r_i_glide_evdw>  (277) 
-28.0948

>  <r_i_glide_ecoul>  (277) 
-4.11374

>  <r_i_glide_erotb>  (277) 
0

>  <r_i_glide_esite>  (277) 
0

>  <r_i_glide_emodel>  (277) 
-37.4673

>  <r_i_glide_energy>  (277) 
-32.2085

>  <r_i_glide_einternal>  (277) 
1.13682

>  <r_i_glide_intrahb_reward>  (277) 
-0

>  <i_i_glide_confnum>  (277) 
1

>  <i_i_glide_posenum>  (277) 
7

>  <r_i_glide_eff_state_penalty>  (277) 
0

>  <ligand_id>  (277) 
71

>  <original_smiles>  (277) 
CC1(C)C(O)CC(O)C2(C)C1CC(O)C1(C)C2CC2CCC13C(=O)CC=C3C2O

>  <smiles>  (277) 
[H]OC1([H])C2([H])C([H])=C([H])C(=O)C23C([H])([H])C([H])([H])C1([H])C([H])([H])C1([H])C2(C([H])([H])[H])C([H])(O[H])C([H])([H])C([H])(O[H])C(C([H])([H])[H])(C([H])([H])[H])C2([H])C([H])([H])C([H])(O[H])C13C([H])([H])[H]

$$$$
71:1:1
     RDKit          3D

 65 69  0  0  1  0  0  0  0  0999 V2000
    3.7252   -1.1200   -2.7081 C   0  0  0  0  0  0  0  0  0  0  0  0
    3.5902   -2.5424   -2.0914 C   0  0  0  0  0  0  0  0  0  0  0  0
    2.2942   -3.0974   -2.7301 C   0  0  0  0  0  0  0  0  0  0  0  0
    4.7875   -3.4464   -2.4865 C   0  0  1  0  0  0  0  0  0  0  0  0
    4.9753   -3.4505   -3.8859 O   0  0  0  0  0  0  0  0  0  0  0  0
    6.0981   -3.0656   -1.7774 C   0  0  0  0  0  0  0  0  0  0  0  0
    5.9308   -3.0364   -0.2389 C   0  0  1  0  0  0  0  0  0  0  0  0
    7.1698   -2.6706    0.3356 O   0  0  0  0  0  0  0  0  0  0  0  0
    4.7669   -2.1138    0.2781 C   0  0  1  0  0  0  0  0  0  0  0  0
    5.2226   -0.6649   -0.0479 C   0  0  0  0  0  0  0  0  0  0  0  0
    3.4674   -2.5312   -0.5095 C   0  0  2  0  0  0  0  0  0  0  0  0
    2.9496   -3.8891    0.0408 C   0  0  0  0  0  0  0  0  0  0  0  0
    2.6747   -3.9023    1.5507 C   0  0  1  0  0  0  0  0  0  0  0  0
    2.1267   -5.1759    1.8346 O   0  0  0  0  0  0  0  0  0  0  0  0
    3.8869   -3.5240    2.4656 C   0  0  1  0  0  0  0  0  0  0  0  0
    5.0169   -4.6084    2.3518 C   0  0  0  0  0  0  0  0  0  0  0  0
    4.4690   -2.1526    1.8638 C   0  0  2  0  0  0  0  0  0  0  0  0
    3.6838   -0.8538    2.2976 C   0  0  0  0  0  0  0  0  0  0  0  0
    3.1532   -0.6594    3.7334 C   0  0  1  0  0  0  0  0  0  0  0  0
    1.8116   -1.3681    3.8988 C   0  0  0  0  0  0  0  0  0  0  0  0
    2.0114   -2.8375    4.2670 C   0  0  0  0  0  0  0  0  0  0  0  0
    3.4553   -3.3939    4.0195 C   0  0  1  0  0  0  0  0  0  0  0  0
    3.4491   -4.6801    4.8859 C   0  0  0  0  0  0  0  0  0  0  0  0
    2.9279   -5.7374    4.5380 O   0  0  0  0  0  0  0  0  0  0  0  0
    4.1006   -4.4380    6.1715 C   0  0  0  0  0  0  0  0  0  0  0  0
    4.6575   -3.2217    6.1391 C   0  0  0  0  0  0  0  0  0  0  0  0
    4.5043   -2.5401    4.8018 C   0  0  2  0  0  0  0  0  0  0  0  0
    4.1238   -1.0474    4.8736 C   0  0  1  0  0  0  0  0  0  0  0  0
    5.2823   -0.2389    4.8355 O   0  0  0  0  0  0  0  0  0  0  0  0
    3.3421   -1.0734   -3.7283 H   0  0  0  0  0  0  0  0  0  0  0  0
    4.7517   -0.7685   -2.7772 H   0  0  0  0  0  0  0  0  0  0  0  0
    3.1439   -0.3998   -2.1448 H   0  0  0  0  0  0  0  0  0  0  0  0
    2.1851   -4.1655   -2.5599 H   0  0  0  0  0  0  0  0  0  0  0  0
    2.2748   -2.9744   -3.8149 H   0  0  0  0  0  0  0  0  0  0  0  0
    1.4100   -2.6171   -2.3220 H   0  0  0  0  0  0  0  0  0  0  0  0
    4.5763   -4.4779   -2.2169 H   0  0  0  0  0  0  0  0  0  0  0  0
    5.6398   -4.0858   -4.0893 H   0  0  0  0  0  0  0  0  0  0  0  0
    6.8470   -3.8150   -2.0253 H   0  0  0  0  0  0  0  0  0  0  0  0
    6.5081   -2.1387   -2.1665 H   0  0  0  0  0  0  0  0  0  0  0  0
    5.7561   -4.0717    0.0090 H   0  0  0  0  0  0  0  0  0  0  0  0
    7.1215   -2.8197    1.2674 H   0  0  0  0  0  0  0  0  0  0  0  0
    4.3757    0.0231   -0.1123 H   0  0  0  0  0  0  0  0  0  0  0  0
    5.7716   -0.5741   -0.9744 H   0  0  0  0  0  0  0  0  0  0  0  0
    5.9201   -0.2863    0.7054 H   0  0  0  0  0  0  0  0  0  0  0  0
    2.6887   -1.8087   -0.2716 H   0  0  0  0  0  0  0  0  0  0  0  0
    1.9962   -4.1271   -0.4227 H   0  0  0  0  0  0  0  0  0  0  0  0
    3.6119   -4.7055   -0.2347 H   0  0  0  0  0  0  0  0  0  0  0  0
    1.8829   -3.1693    1.6955 H   0  0  0  0  0  0  0  0  0  0  0  0
    2.8252   -5.8148    1.8246 H   0  0  0  0  0  0  0  0  0  0  0  0
    6.0085   -4.1591    2.3255 H   0  0  0  0  0  0  0  0  0  0  0  0
    4.9003   -5.2423    1.4770 H   0  0  0  0  0  0  0  0  0  0  0  0
    5.0848   -5.3353    3.1534 H   0  0  0  0  0  0  0  0  0  0  0  0
    5.4464   -2.0076    2.3183 H   0  0  0  0  0  0  0  0  0  0  0  0
    4.3285    0.0134    2.1677 H   0  0  0  0  0  0  0  0  0  0  0  0
    2.8557   -0.6782    1.6106 H   0  0  0  0  0  0  0  0  0  0  0  0
    2.9392    0.4059    3.8362 H   0  0  0  0  0  0  0  0  0  0  0  0
    1.2342   -0.8798    4.6877 H   0  0  0  0  0  0  0  0  0  0  0  0
    1.2037   -1.2765    2.9945 H   0  0  0  0  0  0  0  0  0  0  0  0
    1.7779   -2.9050    5.3325 H   0  0  0  0  0  0  0  0  0  0  0  0
    1.2395   -3.4504    3.7979 H   0  0  0  0  0  0  0  0  0  0  0  0
    4.1055   -5.1334    6.9970 H   0  0  0  0  0  0  0  0  0  0  0  0
    5.4857   -2.6500    4.3462 H   0  0  0  0  0  0  0  0  0  0  0  0
    5.2055   -2.7734    6.9529 H   0  0  0  0  0  0  0  0  0  0  0  0
    3.6231   -0.8445    5.8222 H   0  0  0  0  0  0  0  0  0  0  0  0
    5.7045   -0.3667    3.9994 H   0  0  0  0  0  0  0  0  0  0  0  0
  1  2  1  0
  1 30  1  0
  1 31  1  0
  1 32  1  0
  2 11  1  0
  2  3  1  0
  2  4  1  0
  3 33  1  0
  3 34  1  0
  3 35  1  0
  4  5  1  0
  4  6  1  0
  4 36  1  1
  5 37  1  0
  6  7  1  0
  6 38  1  0
  6 39  1  0
  7  8  1  0
  7  9  1  0
  7 40  1  1
  8 41  1  0
  9 17  1  0
  9 10  1  6
  9 11  1  0
 10 42  1  0
 10 43  1  0
 10 44  1  0
 11 12  1  0
 11 45  1  6
 12 13  1  0
 12 46  1  0
 12 47  1  0
 13 14  1  0
 13 15  1  0
 13 48  1  6
 14 49  1  0
 15 16  1  1
 15 17  1  0
 15 22  1  0
 16 50  1  0
 16 51  1  0
 16 52  1  0
 17 18  1  0
 17 53  1  1
 18 19  1  0
 18 54  1  0
 18 55  1  0
 19 28  1  0
 19 20  1  0
 19 56  1  1
 20 21  1  0
 20 57  1  0
 20 58  1  0
 21 59  1  0
 21 60  1  0
 21 22  1  0
 22 27  1  0
 22 23  1  1
 23 24  2  0
 23 25  1  0
 25 26  2  0
 25 61  1  0
 26 63  1  0
 26 27  1  0
 27 28  1  0
 27 62  1  6
 28 29  1  0
 28 64  1  1
 29 65  1  0
M  END
>  <i_m_ct_stereo_status>  (278) 
1

>  <s_m_source_file>  (278) 
/var/tmp/pbs.5076255.sched01/tmp0pz6dnip/90w4u7_w6b.sdf

>  <i_m_source_file_index>  (278) 
26

>  <i_lp_mmshare_version>  (278) 
48012

>  <i_f3d_flags>  (278) 
0

>  <s_epik_input>  (278) 
W09IXVtDQEBIXTFbQ0gyXVtDQEhdKFtPSF0pQyhbQ0gzXSkoW0NIM10pW0NAQEhdKFtDSDJdW0NASF0yW09IXSlbQ0BAXTEoW0NIM10pW0NASF0oW0NAXTIoW0NAQF0zNDUpW0NIM10pW0NIMl1bQ0BASF0oW0NIMl1bQ0gyXTMpW0NASF0oW09IXSlDNT1bQ0hdW0NIMl1DND1P

>  <s_epik_cmdline>  (278) 
J2VwaWtfcHl0aG9uJywgJy1waHQnLCAnMi4wJywgJy1waCcsICc3LjAnLCAnLXRuJywgJzgnLCAnLW1hJywgJzIwMCcsICctaW1hZScsICc8aW5maWxlLm1hZT4nLCAnLW9tYWUnLCAnPG91dGZpbGUubWFlPic=

>  <r_lp_tautomer_probability>  (278) 
1

>  <r_epik_Ionization_Penalty>  (278) 
2.18222e-06

>  <r_epik_Ionization_Penalty_Charging>  (278) 
0

>  <r_epik_Ionization_Penalty_Neutral>  (278) 
2.18222e-06

>  <r_epik_State_Penalty>  (278) 
-0

>  <r_epik_Charging_Adjusted_Penalty>  (278) 
0

>  <i_epik_Tot_Q>  (278) 
0

>  <i_epik_Tot_abs_Q>  (278) 
0

>  <s_lp_Force_Field>  (278) 
OPLS3e

>  <r_lp_Energy>  (278) 
78.8748

>  <b_lp_Chiralities_Consistent>  (278) 
1

>  <s_lp_Variant>  (278) 
71:0-2

>  <s_i_glide_gridfile>  (278) 
pfpi4k_grid

>  <i_i_glide_lignum>  (278) 
26

>  <i_i_glide_rotatable_bonds>  (278) 
4

>  <r_i_docking_score>  (278) 
-3.06296

>  <r_i_glide_ligand_efficiency>  (278) 
-0.105619

>  <r_i_glide_ligand_efficiency_sa>  (278) 
-0.324496

>  <r_i_glide_ligand_efficiency_ln>  (278) 
-0.701341

>  <r_i_glide_gscore>  (278) 
-3.06296

>  <r_i_glide_lipo>  (278) 
-0.425187

>  <r_i_glide_hbond>  (278) 
0

>  <r_i_glide_metal>  (278) 
-0

>  <r_i_glide_rewards>  (278) 
-0.650866

>  <r_i_glide_evdw>  (278) 
-28.27

>  <r_i_glide_ecoul>  (278) 
-3.82273

>  <r_i_glide_erotb>  (278) 
0

>  <r_i_glide_esite>  (278) 
0

>  <r_i_glide_emodel>  (278) 
-37.5692

>  <r_i_glide_energy>  (278) 
-32.0927

>  <r_i_glide_einternal>  (278) 
0.701488

>  <r_i_glide_intrahb_reward>  (278) 
-0

>  <i_i_glide_confnum>  (278) 
2

>  <i_i_glide_posenum>  (278) 
22

>  <r_i_glide_eff_state_penalty>  (278) 
0

>  <ligand_id>  (278) 
71

>  <original_smiles>  (278) 
CC1(C)C(O)CC(O)C2(C)C1CC(O)C1(C)C2CC2CCC13C(=O)CC=C3C2O

>  <smiles>  (278) 
[H]OC1([H])C2([H])C([H])=C([H])C(=O)C23C([H])([H])C([H])([H])C1([H])C([H])([H])C1([H])C2(C([H])([H])[H])C([H])(O[H])C([H])([H])C([H])(O[H])C(C([H])([H])[H])(C([H])([H])[H])C2([H])C([H])([H])C([H])(O[H])C13C([H])([H])[H]

$$$$
71:1:2
     RDKit          3D

 65 69  0  0  1  0  0  0  0  0999 V2000
    3.7218   -1.1076   -2.6861 C   0  0  0  0  0  0  0  0  0  0  0  0
    3.5861   -2.5348   -2.0845 C   0  0  0  0  0  0  0  0  0  0  0  0
    2.2915   -3.0678   -2.7504 C   0  0  0  0  0  0  0  0  0  0  0  0
    4.7888   -3.4311   -2.4640 C   0  0  1  0  0  0  0  0  0  0  0  0
    4.9967   -3.4248   -3.8389 O   0  0  0  0  0  0  0  0  0  0  0  0
    6.0862   -3.0467   -1.7461 C   0  0  0  0  0  0  0  0  0  0  0  0
    5.9006   -3.0571   -0.2126 C   0  0  1  0  0  0  0  0  0  0  0  0
    7.1247   -2.7274    0.4162 O   0  0  0  0  0  0  0  0  0  0  0  0
    4.7289   -2.1455    0.3036 C   0  0  1  0  0  0  0  0  0  0  0  0
    5.1940   -0.6917    0.0077 C   0  0  0  0  0  0  0  0  0  0  0  0
    3.4366   -2.5385   -0.5071 C   0  0  2  0  0  0  0  0  0  0  0  0
    2.9062   -3.9023    0.0130 C   0  0  0  0  0  0  0  0  0  0  0  0
    2.6134   -3.9410    1.5172 C   0  0  1  0  0  0  0  0  0  0  0  0
    2.0620   -5.2187    1.7690 O   0  0  0  0  0  0  0  0  0  0  0  0
    3.8140   -3.5827    2.4487 C   0  0  1  0  0  0  0  0  0  0  0  0
    4.9427   -4.6687    2.3338 C   0  0  0  0  0  0  0  0  0  0  0  0
    4.4139   -2.2050    1.8839 C   0  0  2  0  0  0  0  0  0  0  0  0
    3.6315   -0.9095    2.3290 C   0  0  0  0  0  0  0  0  0  0  0  0
    3.0889   -0.7373    3.7619 C   0  0  1  0  0  0  0  0  0  0  0  0
    1.7411   -1.4419    3.9004 C   0  0  0  0  0  0  0  0  0  0  0  0
    1.9336   -2.9187    4.2475 C   0  0  0  0  0  0  0  0  0  0  0  0
    3.3750   -3.4773    3.9991 C   0  0  1  0  0  0  0  0  0  0  0  0
    3.3543   -4.7778    4.8525 C   0  0  0  0  0  0  0  0  0  0  0  0
    2.8269   -5.8152    4.4752 O   0  0  0  0  0  0  0  0  0  0  0  0
    3.9978   -4.5525    6.1513 C   0  0  0  0  0  0  0  0  0  0  0  0
    4.5572   -3.3382    6.1354 C   0  0  0  0  0  0  0  0  0  0  0  0
    4.4214   -2.6386    4.8047 C   0  0  2  0  0  0  0  0  0  0  0  0
    4.0443   -1.1483    4.9060 C   0  0  1  0  0  0  0  0  0  0  0  0
    5.2009   -0.3387    4.8880 O   0  0  0  0  0  0  0  0  0  0  0  0
    3.3488   -1.0404   -3.7099 H   0  0  0  0  0  0  0  0  0  0  0  0
    4.7485   -0.7508   -2.7377 H   0  0  0  0  0  0  0  0  0  0  0  0
    3.1330   -0.3941   -2.1189 H   0  0  0  0  0  0  0  0  0  0  0  0
    2.1674   -4.1374   -2.6018 H   0  0  0  0  0  0  0  0  0  0  0  0
    2.2694   -2.9166   -3.8321 H   0  0  0  0  0  0  0  0  0  0  0  0
    1.4043   -2.6016   -2.3284 H   0  0  0  0  0  0  0  0  0  0  0  0
    4.5767   -4.4641   -2.2153 H   0  0  0  0  0  0  0  0  0  0  0  0
    4.2702   -3.8694   -4.2465 H   0  0  0  0  0  0  0  0  0  0  0  0
    6.8467   -3.7747   -2.0157 H   0  0  0  0  0  0  0  0  0  0  0  0
    6.4739   -2.1085   -2.1221 H   0  0  0  0  0  0  0  0  0  0  0  0
    5.7062   -4.0979    0.0006 H   0  0  0  0  0  0  0  0  0  0  0  0
    7.1908   -1.7889    0.4714 H   0  0  0  0  0  0  0  0  0  0  0  0
    4.3543    0.0044   -0.0553 H   0  0  0  0  0  0  0  0  0  0  0  0
    5.7464   -0.5750   -0.9137 H   0  0  0  0  0  0  0  0  0  0  0  0
    5.8815   -0.3158    0.7688 H   0  0  0  0  0  0  0  0  0  0  0  0
    2.6536   -1.8209   -0.2676 H   0  0  0  0  0  0  0  0  0  0  0  0
    1.9587   -4.1324   -0.4639 H   0  0  0  0  0  0  0  0  0  0  0  0
    3.5673   -4.7176   -0.2661 H   0  0  0  0  0  0  0  0  0  0  0  0
    1.8246   -3.2079    1.6667 H   0  0  0  0  0  0  0  0  0  0  0  0
    2.7608   -5.8557    1.7719 H   0  0  0  0  0  0  0  0  0  0  0  0
    5.9384   -4.2221    2.3261 H   0  0  0  0  0  0  0  0  0  0  0  0
    4.8380   -5.2859    1.4443 H   0  0  0  0  0  0  0  0  0  0  0  0
    5.0005   -5.4114    3.1214 H   0  0  0  0  0  0  0  0  0  0  0  0
    5.3907   -2.0754    2.3457 H   0  0  0  0  0  0  0  0  0  0  0  0
    4.2807   -0.0430    2.2187 H   0  0  0  0  0  0  0  0  0  0  0  0
    2.8102   -0.7207    1.6346 H   0  0  0  0  0  0  0  0  0  0  0  0
    2.8759    0.3278    3.8785 H   0  0  0  0  0  0  0  0  0  0  0  0
    1.1568   -0.9656    4.6922 H   0  0  0  0  0  0  0  0  0  0  0  0
    1.1433   -1.3325    2.9910 H   0  0  0  0  0  0  0  0  0  0  0  0
    1.6905   -3.0022    5.3091 H   0  0  0  0  0  0  0  0  0  0  0  0
    1.1649   -3.5197    3.7603 H   0  0  0  0  0  0  0  0  0  0  0  0
    3.9840   -5.2597    6.9637 H   0  0  0  0  0  0  0  0  0  0  0  0
    5.4098   -2.7460    4.3620 H   0  0  0  0  0  0  0  0  0  0  0  0
    5.0944   -2.9080    6.9661 H   0  0  0  0  0  0  0  0  0  0  0  0
    3.5309   -0.9614    5.8509 H   0  0  0  0  0  0  0  0  0  0  0  0
    5.6348   -0.4657    4.0599 H   0  0  0  0  0  0  0  0  0  0  0  0
  1  2  1  0
  1 30  1  0
  1 31  1  0
  1 32  1  0
  2 11  1  0
  2  3  1  0
  2  4  1  0
  3 33  1  0
  3 34  1  0
  3 35  1  0
  4  5  1  0
  4  6  1  0
  4 36  1  1
  5 37  1  0
  6  7  1  0
  6 38  1  0
  6 39  1  0
  7  8  1  0
  7  9  1  0
  7 40  1  1
  8 41  1  0
  9 17  1  0
  9 10  1  6
  9 11  1  0
 10 42  1  0
 10 43  1  0
 10 44  1  0
 11 12  1  0
 11 45  1  6
 12 13  1  0
 12 46  1  0
 12 47  1  0
 13 14  1  0
 13 15  1  0
 13 48  1  6
 14 49  1  0
 15 16  1  1
 15 17  1  0
 15 22  1  0
 16 50  1  0
 16 51  1  0
 16 52  1  0
 17 18  1  0
 17 53  1  1
 18 19  1  0
 18 54  1  0
 18 55  1  0
 19 28  1  0
 19 20  1  0
 19 56  1  1
 20 21  1  0
 20 57  1  0
 20 58  1  0
 21 59  1  0
 21 60  1  0
 21 22  1  0
 22 27  1  0
 22 23  1  1
 23 24  2  0
 23 25  1  0
 25 26  2  0
 25 61  1  0
 26 63  1  0
 26 27  1  0
 27 28  1  0
 27 62  1  6
 28 29  1  0
 28 64  1  1
 29 65  1  0
M  END
>  <i_m_ct_stereo_status>  (279) 
1

>  <s_m_source_file>  (279) 
/var/tmp/pbs.5076255.sched01/tmp0pz6dnip/90w4u7_w6b.sdf

>  <i_m_source_file_index>  (279) 
26

>  <i_lp_mmshare_version>  (279) 
48012

>  <i_f3d_flags>  (279) 
0

>  <s_epik_input>  (279) 
W09IXVtDQEBIXTFbQ0gyXVtDQEhdKFtPSF0pQyhbQ0gzXSkoW0NIM10pW0NAQEhdKFtDSDJdW0NASF0yW09IXSlbQ0BAXTEoW0NIM10pW0NASF0oW0NAXTIoW0NAQF0zNDUpW0NIM10pW0NIMl1bQ0BASF0oW0NIMl1bQ0gyXTMpW0NASF0oW09IXSlDNT1bQ0hdW0NIMl1DND1P

>  <s_epik_cmdline>  (279) 
J2VwaWtfcHl0aG9uJywgJy1waHQnLCAnMi4wJywgJy1waCcsICc3LjAnLCAnLXRuJywgJzgnLCAnLW1hJywgJzIwMCcsICctaW1hZScsICc8aW5maWxlLm1hZT4nLCAnLW9tYWUnLCAnPG91dGZpbGUubWFlPic=

>  <r_lp_tautomer_probability>  (279) 
1

>  <r_epik_Ionization_Penalty>  (279) 
2.18222e-06

>  <r_epik_Ionization_Penalty_Charging>  (279) 
0

>  <r_epik_Ionization_Penalty_Neutral>  (279) 
2.18222e-06

>  <r_epik_State_Penalty>  (279) 
-0

>  <r_epik_Charging_Adjusted_Penalty>  (279) 
0

>  <i_epik_Tot_Q>  (279) 
0

>  <i_epik_Tot_abs_Q>  (279) 
0

>  <s_lp_Force_Field>  (279) 
OPLS3e

>  <r_lp_Energy>  (279) 
78.8748

>  <b_lp_Chiralities_Consistent>  (279) 
1

>  <s_lp_Variant>  (279) 
71:0-2

>  <s_i_glide_gridfile>  (279) 
pfpi4k_grid

>  <i_i_glide_lignum>  (279) 
26

>  <i_i_glide_rotatable_bonds>  (279) 
4

>  <r_i_docking_score>  (279) 
-3.00593

>  <r_i_glide_ligand_efficiency>  (279) 
-0.103653

>  <r_i_glide_ligand_efficiency_sa>  (279) 
-0.318455

>  <r_i_glide_ligand_efficiency_ln>  (279) 
-0.688283

>  <r_i_glide_gscore>  (279) 
-3.00593

>  <r_i_glide_lipo>  (279) 
-0.415816

>  <r_i_glide_hbond>  (279) 
0

>  <r_i_glide_metal>  (279) 
-0

>  <r_i_glide_rewards>  (279) 
-0.650866

>  <r_i_glide_evdw>  (279) 
-28.0675

>  <r_i_glide_ecoul>  (279) 
-3.57252

>  <r_i_glide_erotb>  (279) 
0

>  <r_i_glide_esite>  (279) 
0

>  <r_i_glide_emodel>  (279) 
-36.5746

>  <r_i_glide_energy>  (279) 
-31.64

>  <r_i_glide_einternal>  (279) 
1.02648

>  <r_i_glide_intrahb_reward>  (279) 
-0

>  <i_i_glide_confnum>  (279) 
1

>  <i_i_glide_posenum>  (279) 
2

>  <r_i_glide_eff_state_penalty>  (279) 
0

>  <ligand_id>  (279) 
71

>  <original_smiles>  (279) 
CC1(C)C(O)CC(O)C2(C)C1CC(O)C1(C)C2CC2CCC13C(=O)CC=C3C2O

>  <smiles>  (279) 
[H]OC1([H])C2([H])C([H])=C([H])C(=O)C23C([H])([H])C([H])([H])C1([H])C([H])([H])C1([H])C2(C([H])([H])[H])C([H])(O[H])C([H])([H])C([H])(O[H])C(C([H])([H])[H])(C([H])([H])[H])C2([H])C([H])([H])C([H])(O[H])C13C([H])([H])[H]

$$$$
73:0:0
     RDKit          3D

 17 18  0  0  1  0  0  0  0  0999 V2000
   -0.4911   -1.1677    4.4854 C   0  0  0  0  0  0  0  0  0  0  0  0
   -0.8363    0.2246    4.2832 N   0  0  0  0  0  0  0  0  0  0  0  0
   -0.6249    0.9470    3.1127 C   0  0  0  0  0  0  0  0  0  0  0  0
   -1.0632    2.2368    3.2695 C   0  0  0  0  0  0  0  0  0  0  0  0
   -1.5803    2.3386    4.6020 C   0  0  0  0  0  0  0  0  0  0  0  0
   -2.1303    3.3589    5.2766 N   0  0  0  0  0  0  0  0  0  0  0  0
   -2.4957    3.0859    6.5532 C   0  0  0  0  0  0  0  0  0  0  0  0
   -2.3263    1.8204    7.1553 C   0  0  0  0  0  0  0  0  0  0  0  0
   -1.7932    0.7605    6.5029 N   0  0  0  0  0  0  0  0  0  0  0  0
   -1.4207    1.0625    5.2192 C   0  0  0  0  0  0  0  0  0  0  0  0
   -0.0397   -1.5789    3.5838 H   0  0  0  0  0  0  0  0  0  0  0  0
   -1.3863   -1.7402    4.7265 H   0  0  0  0  0  0  0  0  0  0  0  0
    0.2234   -1.2573    5.3045 H   0  0  0  0  0  0  0  0  0  0  0  0
   -0.1729    0.4871    2.2433 H   0  0  0  0  0  0  0  0  0  0  0  0
   -1.0215    3.0264    2.5298 H   0  0  0  0  0  0  0  0  0  0  0  0
   -2.9346    3.8983    7.1122 H   0  0  0  0  0  0  0  0  0  0  0  0
   -2.6368    1.6650    8.1786 H   0  0  0  0  0  0  0  0  0  0  0  0
  1  2  1  0
  1 11  1  0
  1 12  1  0
  1 13  1  0
  2 10  1  0
  2  3  1  0
  3  4  2  0
  3 14  1  0
  4  5  1  0
  4 15  1  0
  5 10  2  0
  5  6  1  0
  6  7  2  0
  7  8  1  0
  7 16  1  0
  8  9  2  0
  8 17  1  0
  9 10  1  0
M  END
>  <i_m_ct_stereo_status>  (280) 
1

>  <s_m_source_file>  (280) 
/var/tmp/pbs.5076255.sched01/tmp0pz6dnip/90w4u7_w6b.sdf

>  <i_m_source_file_index>  (280) 
28

>  <i_lp_mmshare_version>  (280) 
48012

>  <i_f3d_flags>  (280) 
0

>  <s_epik_input>  (280) 
W2NIXTFbY0hdbihbQ0gzXSljKGMxMiluW2NIXVtjSF1uMg==

>  <s_epik_cmdline>  (280) 
J2VwaWtfcHl0aG9uJywgJy1waHQnLCAnMi4wJywgJy1waCcsICc3LjAnLCAnLXRuJywgJzgnLCAnLW1hJywgJzIwMCcsICctaW1hZScsICc8aW5maWxlLm1hZT4nLCAnLW9tYWUnLCAnPG91dGZpbGUubWFlPic=

>  <r_lp_tautomer_probability>  (280) 
1

>  <r_epik_Ionization_Penalty>  (280) 
3.31915e-10

>  <r_epik_Ionization_Penalty_Charging>  (280) 
0

>  <r_epik_Ionization_Penalty_Neutral>  (280) 
3.31915e-10

>  <r_epik_State_Penalty>  (280) 
-0

>  <r_epik_Charging_Adjusted_Penalty>  (280) 
0

>  <i_epik_Tot_Q>  (280) 
0

>  <i_epik_Tot_abs_Q>  (280) 
0

>  <s_lp_Force_Field>  (280) 
OPLS3e

>  <r_lp_Energy>  (280) 
17.5151

>  <b_lp_Chiralities_Consistent>  (280) 
1

>  <s_lp_Variant>  (280) 
73:0-1

>  <s_i_glide_gridfile>  (280) 
pfpi4k_grid

>  <i_i_glide_lignum>  (280) 
28

>  <i_i_glide_rotatable_bonds>  (280) 
0

>  <r_i_docking_score>  (280) 
-3.82266

>  <r_i_glide_ligand_efficiency>  (280) 
-0.382266

>  <r_i_glide_ligand_efficiency_sa>  (280) 
-0.823567

>  <r_i_glide_ligand_efficiency_ln>  (280) 
-1.15748

>  <r_i_glide_gscore>  (280) 
-3.82266

>  <r_i_glide_lipo>  (280) 
-0.129206

>  <r_i_glide_hbond>  (280) 
-0.147002

>  <r_i_glide_metal>  (280) 
-0

>  <r_i_glide_rewards>  (280) 
-2.25

>  <r_i_glide_evdw>  (280) 
-13.6954

>  <r_i_glide_ecoul>  (280) 
-3.74415

>  <r_i_glide_erotb>  (280) 
0

>  <r_i_glide_esite>  (280) 
-0.0500628

>  <r_i_glide_emodel>  (280) 
-22.0907

>  <r_i_glide_energy>  (280) 
-17.4395

>  <r_i_glide_einternal>  (280) 
0

>  <r_i_glide_intrahb_reward>  (280) 
-0

>  <i_i_glide_confnum>  (280) 
2

>  <i_i_glide_posenum>  (280) 
1

>  <r_i_glide_eff_state_penalty>  (280) 
0

>  <ligand_id>  (280) 
73

>  <original_smiles>  (280) 
Cn1ccc2nccnc21

>  <smiles>  (280) 
[H]c1nc2c([H])c([H])n(C([H])([H])[H])c2nc1[H]

$$$$
73:0:1
     RDKit          3D

 17 18  0  0  1  0  0  0  0  0999 V2000
   -1.8356   -8.4177    2.7210 C   0  0  0  0  0  0  0  0  0  0  0  0
   -0.4064   -8.6301    2.7955 N   0  0  0  0  0  0  0  0  0  0  0  0
    0.2138   -9.6547    3.5026 C   0  0  0  0  0  0  0  0  0  0  0  0
    1.5739   -9.5726    3.3591 C   0  0  0  0  0  0  0  0  0  0  0  0
    1.8287   -8.4420    2.5170 C   0  0  0  0  0  0  0  0  0  0  0  0
    2.9703   -7.9035    2.0692 N   0  0  0  0  0  0  0  0  0  0  0  0
    2.8316   -6.8086    1.2845 C   0  0  0  0  0  0  0  0  0  0  0  0
    1.5780   -6.2542    0.9454 C   0  0  0  0  0  0  0  0  0  0  0  0
    0.4011   -6.7506    1.3916 N   0  0  0  0  0  0  0  0  0  0  0  0
    0.5682   -7.8627    2.1774 C   0  0  0  0  0  0  0  0  0  0  0  0
   -2.3586   -9.1771    3.3004 H   0  0  0  0  0  0  0  0  0  0  0  0
   -2.1593   -8.4872    1.6830 H   0  0  0  0  0  0  0  0  0  0  0  0
   -2.0858   -7.4338    3.1178 H   0  0  0  0  0  0  0  0  0  0  0  0
   -0.3704  -10.3713    4.0644 H   0  0  0  0  0  0  0  0  0  0  0  0
    2.3150  -10.2267    3.7940 H   0  0  0  0  0  0  0  0  0  0  0  0
    3.7432   -6.3680    0.9094 H   0  0  0  0  0  0  0  0  0  0  0  0
    1.5325   -5.3853    0.3062 H   0  0  0  0  0  0  0  0  0  0  0  0
  1  2  1  0
  1 11  1  0
  1 12  1  0
  1 13  1  0
  2 10  1  0
  2  3  1  0
  3  4  2  0
  3 14  1  0
  4  5  1  0
  4 15  1  0
  5 10  2  0
  5  6  1  0
  6  7  2  0
  7  8  1  0
  7 16  1  0
  8  9  2  0
  8 17  1  0
  9 10  1  0
M  END
>  <i_m_ct_stereo_status>  (281) 
1

>  <s_m_source_file>  (281) 
/var/tmp/pbs.5076255.sched01/tmp0pz6dnip/90w4u7_w6b.sdf

>  <i_m_source_file_index>  (281) 
28

>  <i_lp_mmshare_version>  (281) 
48012

>  <i_f3d_flags>  (281) 
0

>  <s_epik_input>  (281) 
W2NIXTFbY0hdbihbQ0gzXSljKGMxMiluW2NIXVtjSF1uMg==

>  <s_epik_cmdline>  (281) 
J2VwaWtfcHl0aG9uJywgJy1waHQnLCAnMi4wJywgJy1waCcsICc3LjAnLCAnLXRuJywgJzgnLCAnLW1hJywgJzIwMCcsICctaW1hZScsICc8aW5maWxlLm1hZT4nLCAnLW9tYWUnLCAnPG91dGZpbGUubWFlPic=

>  <r_lp_tautomer_probability>  (281) 
1

>  <r_epik_Ionization_Penalty>  (281) 
3.31915e-10

>  <r_epik_Ionization_Penalty_Charging>  (281) 
0

>  <r_epik_Ionization_Penalty_Neutral>  (281) 
3.31915e-10

>  <r_epik_State_Penalty>  (281) 
-0

>  <r_epik_Charging_Adjusted_Penalty>  (281) 
0

>  <i_epik_Tot_Q>  (281) 
0

>  <i_epik_Tot_abs_Q>  (281) 
0

>  <s_lp_Force_Field>  (281) 
OPLS3e

>  <r_lp_Energy>  (281) 
17.5151

>  <b_lp_Chiralities_Consistent>  (281) 
1

>  <s_lp_Variant>  (281) 
73:0-1

>  <s_i_glide_gridfile>  (281) 
pfpi4k_grid

>  <i_i_glide_lignum>  (281) 
28

>  <i_i_glide_rotatable_bonds>  (281) 
0

>  <r_i_docking_score>  (281) 
-3.6242

>  <r_i_glide_ligand_efficiency>  (281) 
-0.36242

>  <r_i_glide_ligand_efficiency_sa>  (281) 
-0.78081

>  <r_i_glide_ligand_efficiency_ln>  (281) 
-1.09738

>  <r_i_glide_gscore>  (281) 
-3.6242

>  <r_i_glide_lipo>  (281) 
-0.0701226

>  <r_i_glide_hbond>  (281) 
-0.0726553

>  <r_i_glide_metal>  (281) 
-0

>  <r_i_glide_rewards>  (281) 
-2.25

>  <r_i_glide_evdw>  (281) 
-15.3368

>  <r_i_glide_ecoul>  (281) 
-2.53485

>  <r_i_glide_erotb>  (281) 
0

>  <r_i_glide_esite>  (281) 
-0.0843552

>  <r_i_glide_emodel>  (281) 
-22.2826

>  <r_i_glide_energy>  (281) 
-17.8716

>  <r_i_glide_einternal>  (281) 
0

>  <r_i_glide_intrahb_reward>  (281) 
-0

>  <i_i_glide_confnum>  (281) 
2

>  <i_i_glide_posenum>  (281) 
2

>  <r_i_glide_eff_state_penalty>  (281) 
0

>  <ligand_id>  (281) 
73

>  <original_smiles>  (281) 
Cn1ccc2nccnc21

>  <smiles>  (281) 
[H]c1nc2c([H])c([H])n(C([H])([H])[H])c2nc1[H]

$$$$
73:0:2
     RDKit          3D

 17 18  0  0  1  0  0  0  0  0999 V2000
    2.0244   -9.3206    6.2422 C   0  0  0  0  0  0  0  0  0  0  0  0
    1.0669   -8.3761    5.7025 N   0  0  0  0  0  0  0  0  0  0  0  0
    0.7694   -7.1336    6.2478 C   0  0  0  0  0  0  0  0  0  0  0  0
   -0.1765   -6.4954    5.4857 C   0  0  0  0  0  0  0  0  0  0  0  0
   -0.4965   -7.3808    4.4039 C   0  0  0  0  0  0  0  0  0  0  0  0
   -1.3425   -7.2566    3.3701 N   0  0  0  0  0  0  0  0  0  0  0  0
   -1.3829   -8.3192    2.5272 C   0  0  0  0  0  0  0  0  0  0  0  0
   -0.5846   -9.4726    2.6938 C   0  0  0  0  0  0  0  0  0  0  0  0
    0.2918   -9.6204    3.7101 N   0  0  0  0  0  0  0  0  0  0  0  0
    0.3016   -8.5532    4.5611 C   0  0  0  0  0  0  0  0  0  0  0  0
    2.4838   -8.9222    7.1457 H   0  0  0  0  0  0  0  0  0  0  0  0
    2.8054   -9.5192    5.5080 H   0  0  0  0  0  0  0  0  0  0  0  0
    1.5215  -10.2570    6.4854 H   0  0  0  0  0  0  0  0  0  0  0  0
    1.2676   -6.7970    7.1465 H   0  0  0  0  0  0  0  0  0  0  0  0
   -0.6010   -5.5191    5.6549 H   0  0  0  0  0  0  0  0  0  0  0  0
   -2.0630   -8.2558    1.6928 H   0  0  0  0  0  0  0  0  0  0  0  0
   -0.6519  -10.2959    1.9979 H   0  0  0  0  0  0  0  0  0  0  0  0
  1  2  1  0
  1 11  1  0
  1 12  1  0
  1 13  1  0
  2 10  1  0
  2  3  1  0
  3  4  2  0
  3 14  1  0
  4  5  1  0
  4 15  1  0
  5 10  2  0
  5  6  1  0
  6  7  2  0
  7  8  1  0
  7 16  1  0
  8  9  2  0
  8 17  1  0
  9 10  1  0
M  END
>  <i_m_ct_stereo_status>  (282) 
1

>  <s_m_source_file>  (282) 
/var/tmp/pbs.5076255.sched01/tmp0pz6dnip/90w4u7_w6b.sdf

>  <i_m_source_file_index>  (282) 
28

>  <i_lp_mmshare_version>  (282) 
48012

>  <i_f3d_flags>  (282) 
0

>  <s_epik_input>  (282) 
W2NIXTFbY0hdbihbQ0gzXSljKGMxMiluW2NIXVtjSF1uMg==

>  <s_epik_cmdline>  (282) 
J2VwaWtfcHl0aG9uJywgJy1waHQnLCAnMi4wJywgJy1waCcsICc3LjAnLCAnLXRuJywgJzgnLCAnLW1hJywgJzIwMCcsICctaW1hZScsICc8aW5maWxlLm1hZT4nLCAnLW9tYWUnLCAnPG91dGZpbGUubWFlPic=

>  <r_lp_tautomer_probability>  (282) 
1

>  <r_epik_Ionization_Penalty>  (282) 
3.31915e-10

>  <r_epik_Ionization_Penalty_Charging>  (282) 
0

>  <r_epik_Ionization_Penalty_Neutral>  (282) 
3.31915e-10

>  <r_epik_State_Penalty>  (282) 
-0

>  <r_epik_Charging_Adjusted_Penalty>  (282) 
0

>  <i_epik_Tot_Q>  (282) 
0

>  <i_epik_Tot_abs_Q>  (282) 
0

>  <s_lp_Force_Field>  (282) 
OPLS3e

>  <r_lp_Energy>  (282) 
17.5151

>  <b_lp_Chiralities_Consistent>  (282) 
1

>  <s_lp_Variant>  (282) 
73:0-1

>  <s_i_glide_gridfile>  (282) 
pfpi4k_grid

>  <i_i_glide_lignum>  (282) 
28

>  <i_i_glide_rotatable_bonds>  (282) 
0

>  <r_i_docking_score>  (282) 
-3.30566

>  <r_i_glide_ligand_efficiency>  (282) 
-0.330566

>  <r_i_glide_ligand_efficiency_sa>  (282) 
-0.712183

>  <r_i_glide_ligand_efficiency_ln>  (282) 
-1.00093

>  <r_i_glide_gscore>  (282) 
-3.30566

>  <r_i_glide_lipo>  (282) 
-0.0267143

>  <r_i_glide_hbond>  (282) 
-0.0570252

>  <r_i_glide_metal>  (282) 
-0

>  <r_i_glide_rewards>  (282) 
-2.25

>  <r_i_glide_evdw>  (282) 
-13.2325

>  <r_i_glide_ecoul>  (282) 
-1.67864

>  <r_i_glide_erotb>  (282) 
0

>  <r_i_glide_esite>  (282) 
-0.0585022

>  <r_i_glide_emodel>  (282) 
-18.9348

>  <r_i_glide_energy>  (282) 
-14.9111

>  <r_i_glide_einternal>  (282) 
0

>  <r_i_glide_intrahb_reward>  (282) 
-0

>  <i_i_glide_confnum>  (282) 
2

>  <i_i_glide_posenum>  (282) 
4

>  <r_i_glide_eff_state_penalty>  (282) 
0

>  <ligand_id>  (282) 
73

>  <original_smiles>  (282) 
Cn1ccc2nccnc21

>  <smiles>  (282) 
[H]c1nc2c([H])c([H])n(C([H])([H])[H])c2nc1[H]

$$$$
74:0:0
     RDKit          3D

 34 36  0  0  1  0  0  0  0  0999 V2000
   -1.8117    0.4218    6.3133 O   0  0  0  0  0  0  0  0  0  0  0  0
   -1.4449    0.9146    5.2555 C   0  0  0  0  0  0  0  0  0  0  0  0
   -1.4560    2.3231    4.8414 C   0  0  0  0  0  0  0  0  0  0  0  0
   -1.6864    3.6456    5.3131 C   0  0  0  0  0  0  0  0  0  0  0  0
   -1.3709    4.5287    4.3435 N   0  0  0  0  0  0  0  0  0  0  0  0
   -0.9749    3.7579    3.2818 N   0  0  0  0  0  0  0  0  0  0  0  0
   -1.0777    2.4253    3.5785 C   0  0  0  0  0  0  0  0  0  0  0  0
   -0.6687    1.2018    2.8879 C   0  0  0  0  0  0  0  0  0  0  0  0
   -0.8865    0.1207    4.0222 C   0  0  1  0  0  0  0  0  0  0  0  0
    0.3435   -0.7472    4.3949 C   0  0  0  0  0  0  0  0  0  0  0  0
    1.6157   -0.4918    3.5690 C   0  0  0  0  0  0  0  0  0  0  0  0
    1.4550   -0.8550    2.0641 C   0  0  0  0  0  0  0  0  0  0  0  0
    2.7542   -0.5765    1.2952 C   0  0  0  0  0  0  0  0  0  0  0  0
    3.8521   -1.3602    1.8893 N   0  0  0  0  0  0  0  0  0  0  0  0
    4.0839   -1.0008    3.3072 C   0  0  0  0  0  0  0  0  0  0  0  0
    2.8171   -1.2642    4.1436 C   0  0  0  0  0  0  0  0  0  0  0  0
   -0.6257    4.1423    2.3993 H   0  0  0  0  0  0  0  0  0  0  0  0
   -2.0368    3.9664    6.2806 H   0  0  0  0  0  0  0  0  0  0  0  0
   -1.2977    1.0306    2.0065 H   0  0  0  0  0  0  0  0  0  0  0  0
    0.3710    1.3777    2.5708 H   0  0  0  0  0  0  0  0  0  0  0  0
   -1.6853   -0.5483    3.7055 H   0  0  0  0  0  0  0  0  0  0  0  0
    0.5938   -0.6051    5.4462 H   0  0  0  0  0  0  0  0  0  0  0  0
    0.0796   -1.8025    4.3314 H   0  0  0  0  0  0  0  0  0  0  0  0
    1.8792    0.5600    3.6859 H   0  0  0  0  0  0  0  0  0  0  0  0
    1.1822   -1.9115    1.9675 H   0  0  0  0  0  0  0  0  0  0  0  0
    0.6728   -0.2873    1.5595 H   0  0  0  0  0  0  0  0  0  0  0  0
    2.6352   -0.8313    0.2427 H   0  0  0  0  0  0  0  0  0  0  0  0
    2.9982    0.4857    1.3295 H   0  0  0  0  0  0  0  0  0  0  0  0
    3.5737   -2.3301    1.8481 H   0  0  0  0  0  0  0  0  0  0  0  0
    4.9283   -1.5756    3.6931 H   0  0  0  0  0  0  0  0  0  0  0  0
    4.3649    0.0546    3.3640 H   0  0  0  0  0  0  0  0  0  0  0  0
    2.9983   -0.9724    5.1809 H   0  0  0  0  0  0  0  0  0  0  0  0
    2.5984   -2.3322    4.1620 H   0  0  0  0  0  0  0  0  0  0  0  0
    4.6945   -1.2294    1.3441 H   0  0  0  0  0  0  0  0  0  0  0  0
  1  2  2  0
  2  9  1  0
  2  3  1  0
  3  7  2  0
  3  4  1  0
  4  5  2  0
  4 18  1  0
  5  6  1  0
  6 17  1  0
  6  7  1  0
  7  8  1  0
  8  9  1  0
  8 19  1  0
  8 20  1  0
  9 10  1  0
  9 21  1  6
 10 11  1  0
 10 22  1  0
 10 23  1  0
 11 16  1  0
 11 12  1  0
 11 24  1  0
 12 13  1  0
 12 25  1  0
 12 26  1  0
 13 14  1  0
 13 27  1  0
 13 28  1  0
 14 15  1  0
 14 29  1  0
 14 34  1  0
 15 16  1  0
 15 30  1  0
 15 31  1  0
 16 32  1  0
 16 33  1  0
M  CHG  1  14   1
M  END
>  <i_m_ct_stereo_status>  (283) 
1

>  <s_m_source_file>  (283) 
/var/tmp/pbs.5076255.sched01/tmp0pz6dnip/90w4u7_w6b.sdf

>  <i_m_source_file_index>  (283) 
29

>  <i_lp_mmshare_version>  (283) 
48012

>  <i_f3d_flags>  (283) 
0

>  <s_epik_input>  (283) 
W2NIXTFuW25IXWMoYzEyKVtDSDJdW0NASF0oQzI9TylbQ0gyXVtDSF0zW0NIMl1bQ0gyXVtOSF1bQ0gyXVtDSDJdMw==

>  <s_epik_cmdline>  (283) 
J2VwaWtfcHl0aG9uJywgJy1waHQnLCAnMi4wJywgJy1waCcsICc3LjAnLCAnLXRuJywgJzgnLCAnLW1hJywgJzIwMCcsICctaW1hZScsICc8aW5maWxlLm1hZT4nLCAnLW9tYWUnLCAnPG91dGZpbGUubWFlPic=

>  <r_lp_tautomer_probability>  (283) 
1

>  <r_epik_Ionization_Penalty>  (283) 
0.000291177

>  <r_epik_Ionization_Penalty_Charging>  (283) 
0.000289965

>  <r_epik_Ionization_Penalty_Neutral>  (283) 
1.2117e-06

>  <r_epik_State_Penalty>  (283) 
-0

>  <r_epik_Charging_Adjusted_Penalty>  (283) 
0.000289965

>  <i_epik_Tot_Q>  (283) 
1

>  <i_epik_Tot_abs_Q>  (283) 
1

>  <s_lp_Force_Field>  (283) 
OPLS3e

>  <r_lp_Energy>  (283) 
12.8468

>  <b_lp_Chiralities_Consistent>  (283) 
1

>  <s_lp_Variant>  (283) 
74:0-1

>  <s_i_glide_gridfile>  (283) 
pfpi4k_grid

>  <i_i_glide_lignum>  (283) 
29

>  <i_i_glide_rotatable_bonds>  (283) 
2

>  <r_i_docking_score>  (283) 
-4.32273

>  <r_i_glide_ligand_efficiency>  (283) 
-0.270171

>  <r_i_glide_ligand_efficiency_sa>  (283) 
-0.680787

>  <r_i_glide_ligand_efficiency_ln>  (283) 
-1.14583

>  <r_i_glide_gscore>  (283) 
-4.32273

>  <r_i_glide_lipo>  (283) 
-0.0113632

>  <r_i_glide_hbond>  (283) 
-0.401166

>  <r_i_glide_metal>  (283) 
-0

>  <r_i_glide_rewards>  (283) 
-1.90711

>  <r_i_glide_evdw>  (283) 
-14.3474

>  <r_i_glide_ecoul>  (283) 
-12.2845

>  <r_i_glide_erotb>  (283) 
0.694473

>  <r_i_glide_esite>  (283) 
-0.137521

>  <r_i_glide_emodel>  (283) 
-26.9679

>  <r_i_glide_energy>  (283) 
-26.6319

>  <r_i_glide_einternal>  (283) 
15.4014

>  <r_i_glide_intrahb_reward>  (283) 
-0

>  <i_i_glide_confnum>  (283) 
6

>  <i_i_glide_posenum>  (283) 
31

>  <r_i_glide_eff_state_penalty>  (283) 
0

>  <ligand_id>  (283) 
74

>  <original_smiles>  (283) 
O=C1c2cn[nH]c2CC1CC1CCNCC1

>  <smiles>  (283) 
[H]c1nn([H])c2c1C(=O)C([H])(C([H])([H])C1([H])C([H])([H])C([H])([H])[N+]([H])([H])C([H])([H])C1([H])[H])C2([H])[H]

$$$$
74:0:1
     RDKit          3D

 34 36  0  0  1  0  0  0  0  0999 V2000
    0.1952    4.1742    7.4911 O   0  0  0  0  0  0  0  0  0  0  0  0
    0.1951    4.8061    6.4390 C   0  0  0  0  0  0  0  0  0  0  0  0
    0.2820    6.2411    6.2540 C   0  0  0  0  0  0  0  0  0  0  0  0
    0.4280    7.4515    6.9852 C   0  0  0  0  0  0  0  0  0  0  0  0
    0.4303    8.4688    6.1222 N   0  0  0  0  0  0  0  0  0  0  0  0
    0.3241    7.9173    4.8802 N   0  0  0  0  0  0  0  0  0  0  0  0
    0.2301    6.5533    4.9655 C   0  0  0  0  0  0  0  0  0  0  0  0
    0.0978    5.4239    4.0155 C   0  0  0  0  0  0  0  0  0  0  0  0
    0.0918    4.2053    5.0092 C   0  0  1  0  0  0  0  0  0  0  0  0
    1.2257    3.1935    4.7357 C   0  0  0  0  0  0  0  0  0  0  0  0
    1.2092    2.5255    3.3441 C   0  0  0  0  0  0  0  0  0  0  0  0
   -0.1191    1.7991    3.0394 C   0  0  0  0  0  0  0  0  0  0  0  0
   -0.0509    1.0690    1.6889 C   0  0  0  0  0  0  0  0  0  0  0  0
    1.0866    0.1286    1.6813 N   0  0  0  0  0  0  0  0  0  0  0  0
    2.3811    0.8166    1.8692 C   0  0  0  0  0  0  0  0  0  0  0  0
    2.3937    1.5432    3.2192 C   0  0  0  0  0  0  0  0  0  0  0  0
    0.3148    8.4385    3.9979 H   0  0  0  0  0  0  0  0  0  0  0  0
    0.5226    7.6385    8.0434 H   0  0  0  0  0  0  0  0  0  0  0  0
   -0.8253    5.4835    3.4388 H   0  0  0  0  0  0  0  0  0  0  0  0
    0.9321    5.4071    3.3216 H   0  0  0  0  0  0  0  0  0  0  0  0
   -0.8740    3.6981    4.9477 H   0  0  0  0  0  0  0  0  0  0  0  0
    2.1775    3.7086    4.8599 H   0  0  0  0  0  0  0  0  0  0  0  0
    1.2018    2.4153    5.5019 H   0  0  0  0  0  0  0  0  0  0  0  0
    1.3462    3.2904    2.5824 H   0  0  0  0  0  0  0  0  0  0  0  0
   -0.3434    1.0817    3.8272 H   0  0  0  0  0  0  0  0  0  0  0  0
   -0.9510    2.5052    3.0011 H   0  0  0  0  0  0  0  0  0  0  0  0
   -0.9850    0.5367    1.5049 H   0  0  0  0  0  0  0  0  0  0  0  0
    0.0665    1.7794    0.8761 H   0  0  0  0  0  0  0  0  0  0  0  0
    0.9727   -0.5616    2.4067 H   0  0  0  0  0  0  0  0  0  0  0  0
    3.2057    0.0976    1.7927 H   0  0  0  0  0  0  0  0  0  0  0  0
    2.5146    1.5310    1.0639 H   0  0  0  0  0  0  0  0  0  0  0  0
    3.3463    2.0717    3.3470 H   0  0  0  0  0  0  0  0  0  0  0  0
    2.3344    0.8036    4.0149 H   0  0  0  0  0  0  0  0  0  0  0  0
    1.0680   -0.3346    0.7656 H   0  0  0  0  0  0  0  0  0  0  0  0
  1  2  2  0
  2  9  1  0
  2  3  1  0
  3  7  2  0
  3  4  1  0
  4  5  2  0
  4 18  1  0
  5  6  1  0
  6 17  1  0
  6  7  1  0
  7  8  1  0
  8  9  1  0
  8 19  1  0
  8 20  1  0
  9 10  1  0
  9 21  1  1
 10 11  1  0
 10 22  1  0
 10 23  1  0
 11 16  1  0
 11 12  1  0
 11 24  1  0
 12 13  1  0
 12 25  1  0
 12 26  1  0
 13 14  1  0
 13 27  1  0
 13 28  1  0
 14 15  1  0
 14 29  1  0
 14 34  1  0
 15 16  1  0
 15 30  1  0
 15 31  1  0
 16 32  1  0
 16 33  1  0
M  CHG  1  14   1
M  END
>  <i_m_ct_stereo_status>  (284) 
1

>  <s_m_source_file>  (284) 
/var/tmp/pbs.5076255.sched01/tmp0pz6dnip/90w4u7_w6b.sdf

>  <i_m_source_file_index>  (284) 
29

>  <i_lp_mmshare_version>  (284) 
48012

>  <i_f3d_flags>  (284) 
0

>  <s_epik_input>  (284) 
W2NIXTFuW25IXWMoYzEyKVtDSDJdW0NASF0oQzI9TylbQ0gyXVtDSF0zW0NIMl1bQ0gyXVtOSF1bQ0gyXVtDSDJdMw==

>  <s_epik_cmdline>  (284) 
J2VwaWtfcHl0aG9uJywgJy1waHQnLCAnMi4wJywgJy1waCcsICc3LjAnLCAnLXRuJywgJzgnLCAnLW1hJywgJzIwMCcsICctaW1hZScsICc8aW5maWxlLm1hZT4nLCAnLW9tYWUnLCAnPG91dGZpbGUubWFlPic=

>  <r_lp_tautomer_probability>  (284) 
1

>  <r_epik_Ionization_Penalty>  (284) 
0.000291177

>  <r_epik_Ionization_Penalty_Charging>  (284) 
0.000289965

>  <r_epik_Ionization_Penalty_Neutral>  (284) 
1.2117e-06

>  <r_epik_State_Penalty>  (284) 
-0

>  <r_epik_Charging_Adjusted_Penalty>  (284) 
0.000289965

>  <i_epik_Tot_Q>  (284) 
1

>  <i_epik_Tot_abs_Q>  (284) 
1

>  <s_lp_Force_Field>  (284) 
OPLS3e

>  <r_lp_Energy>  (284) 
12.8468

>  <b_lp_Chiralities_Consistent>  (284) 
1

>  <s_lp_Variant>  (284) 
74:0-1

>  <s_i_glide_gridfile>  (284) 
pfpi4k_grid

>  <i_i_glide_lignum>  (284) 
29

>  <i_i_glide_rotatable_bonds>  (284) 
2

>  <r_i_docking_score>  (284) 
-3.99135

>  <r_i_glide_ligand_efficiency>  (284) 
-0.249459

>  <r_i_glide_ligand_efficiency_sa>  (284) 
-0.628598

>  <r_i_glide_ligand_efficiency_ln>  (284) 
-1.05799

>  <r_i_glide_gscore>  (284) 
-3.99135

>  <r_i_glide_lipo>  (284) 
0

>  <r_i_glide_hbond>  (284) 
-0.36

>  <r_i_glide_metal>  (284) 
-0

>  <r_i_glide_rewards>  (284) 
-1.90711

>  <r_i_glide_evdw>  (284) 
-11.4206

>  <r_i_glide_ecoul>  (284) 
-10.9755

>  <r_i_glide_erotb>  (284) 
0.694473

>  <r_i_glide_esite>  (284) 
-0.201365

>  <r_i_glide_emodel>  (284) 
-30.4295

>  <r_i_glide_energy>  (284) 
-22.3961

>  <r_i_glide_einternal>  (284) 
0.479299

>  <r_i_glide_intrahb_reward>  (284) 
-0

>  <i_i_glide_confnum>  (284) 
6

>  <i_i_glide_posenum>  (284) 
29

>  <r_i_glide_eff_state_penalty>  (284) 
0

>  <ligand_id>  (284) 
74

>  <original_smiles>  (284) 
O=C1c2cn[nH]c2CC1CC1CCNCC1

>  <smiles>  (284) 
[H]c1nn([H])c2c1C(=O)C([H])(C([H])([H])C1([H])C([H])([H])C([H])([H])[N+]([H])([H])C([H])([H])C1([H])[H])C2([H])[H]

$$$$
74:0:2
     RDKit          3D

 34 36  0  0  1  0  0  0  0  0999 V2000
    1.1779    1.4780    6.4487 O   0  0  0  0  0  0  0  0  0  0  0  0
    0.2299    1.3357    5.6886 C   0  0  0  0  0  0  0  0  0  0  0  0
   -0.5518    2.3571    5.0035 C   0  0  0  0  0  0  0  0  0  0  0  0
   -0.6074    3.7549    4.7672 C   0  0  0  0  0  0  0  0  0  0  0  0
   -1.6987    4.0398    4.0313 N   0  0  0  0  0  0  0  0  0  0  0  0
   -2.2818    2.8255    3.7852 N   0  0  0  0  0  0  0  0  0  0  0  0
   -1.5737    1.8053    4.3729 C   0  0  0  0  0  0  0  0  0  0  0  0
   -1.6708    0.3304    4.4648 C   0  0  0  0  0  0  0  0  0  0  0  0
   -0.4095   -0.0393    5.3123 C   0  0  1  0  0  0  0  0  0  0  0  0
    0.5397   -0.9922    4.5507 C   0  0  0  0  0  0  0  0  0  0  0  0
    1.4103   -0.3235    3.4613 C   0  0  0  0  0  0  0  0  0  0  0  0
    1.5841   -1.2102    2.2139 C   0  0  0  0  0  0  0  0  0  0  0  0
    2.5128   -0.5327    1.1867 C   0  0  0  0  0  0  0  0  0  0  0  0
    3.8193   -0.2191    1.7959 N   0  0  0  0  0  0  0  0  0  0  0  0
    3.6693    0.6985    2.9408 C   0  0  0  0  0  0  0  0  0  0  0  0
    2.8002    0.0531    4.0211 C   0  0  0  0  0  0  0  0  0  0  0  0
   -3.1234    2.7417    3.2389 H   0  0  0  0  0  0  0  0  0  0  0  0
    0.0731    4.5231    5.0853 H   0  0  0  0  0  0  0  0  0  0  0  0
   -2.5801    0.0273    4.9783 H   0  0  0  0  0  0  0  0  0  0  0  0
   -1.6713   -0.1271    3.4729 H   0  0  0  0  0  0  0  0  0  0  0  0
   -0.7323   -0.5214    6.2368 H   0  0  0  0  0  0  0  0  0  0  0  0
    1.1751   -1.5080    5.2669 H   0  0  0  0  0  0  0  0  0  0  0  0
   -0.0637   -1.7869    4.1116 H   0  0  0  0  0  0  0  0  0  0  0  0
    0.9054    0.5791    3.1144 H   0  0  0  0  0  0  0  0  0  0  0  0
    1.9835   -2.1878    2.4932 H   0  0  0  0  0  0  0  0  0  0  0  0
    0.6229   -1.3979    1.7382 H   0  0  0  0  0  0  0  0  0  0  0  0
    2.6608   -1.1801    0.3222 H   0  0  0  0  0  0  0  0  0  0  0  0
    2.0519    0.3908    0.8256 H   0  0  0  0  0  0  0  0  0  0  0  0
    4.2243   -1.0800    2.1340 H   0  0  0  0  0  0  0  0  0  0  0  0
    4.6426    0.9400    3.3551 H   0  0  0  0  0  0  0  0  0  0  0  0
    3.2202    1.6347    2.6071 H   0  0  0  0  0  0  0  0  0  0  0  0
    2.7348    0.7515    4.8466 H   0  0  0  0  0  0  0  0  0  0  0  0
    3.2977   -0.8459    4.3965 H   0  0  0  0  0  0  0  0  0  0  0  0
    4.4218    0.1979    1.1003 H   0  0  0  0  0  0  0  0  0  0  0  0
  1  2  2  0
  2  9  1  0
  2  3  1  0
  3  7  2  0
  3  4  1  0
  4  5  2  0
  4 18  1  0
  5  6  1  0
  6 17  1  0
  6  7  1  0
  7  8  1  0
  8  9  1  0
  8 19  1  0
  8 20  1  0
  9 10  1  0
  9 21  1  1
 10 11  1  0
 10 22  1  0
 10 23  1  0
 11 16  1  0
 11 12  1  0
 11 24  1  0
 12 13  1  0
 12 25  1  0
 12 26  1  0
 13 14  1  0
 13 27  1  0
 13 28  1  0
 14 15  1  0
 14 29  1  0
 14 34  1  0
 15 16  1  0
 15 30  1  0
 15 31  1  0
 16 32  1  0
 16 33  1  0
M  CHG  1  14   1
M  END
>  <i_m_ct_stereo_status>  (285) 
1

>  <s_m_source_file>  (285) 
/var/tmp/pbs.5076255.sched01/tmp0pz6dnip/90w4u7_w6b.sdf

>  <i_m_source_file_index>  (285) 
29

>  <i_lp_mmshare_version>  (285) 
48012

>  <i_f3d_flags>  (285) 
0

>  <s_epik_input>  (285) 
W2NIXTFuW25IXWMoYzEyKVtDSDJdW0NASF0oQzI9TylbQ0gyXVtDSF0zW0NIMl1bQ0gyXVtOSF1bQ0gyXVtDSDJdMw==

>  <s_epik_cmdline>  (285) 
J2VwaWtfcHl0aG9uJywgJy1waHQnLCAnMi4wJywgJy1waCcsICc3LjAnLCAnLXRuJywgJzgnLCAnLW1hJywgJzIwMCcsICctaW1hZScsICc8aW5maWxlLm1hZT4nLCAnLW9tYWUnLCAnPG91dGZpbGUubWFlPic=

>  <r_lp_tautomer_probability>  (285) 
1

>  <r_epik_Ionization_Penalty>  (285) 
0.000291177

>  <r_epik_Ionization_Penalty_Charging>  (285) 
0.000289965

>  <r_epik_Ionization_Penalty_Neutral>  (285) 
1.2117e-06

>  <r_epik_State_Penalty>  (285) 
-0

>  <r_epik_Charging_Adjusted_Penalty>  (285) 
0.000289965

>  <i_epik_Tot_Q>  (285) 
1

>  <i_epik_Tot_abs_Q>  (285) 
1

>  <s_lp_Force_Field>  (285) 
OPLS3e

>  <r_lp_Energy>  (285) 
12.8468

>  <b_lp_Chiralities_Consistent>  (285) 
1

>  <s_lp_Variant>  (285) 
74:0-1

>  <s_i_glide_gridfile>  (285) 
pfpi4k_grid

>  <i_i_glide_lignum>  (285) 
29

>  <i_i_glide_rotatable_bonds>  (285) 
2

>  <r_i_docking_score>  (285) 
-2.84201

>  <r_i_glide_ligand_efficiency>  (285) 
-0.177625

>  <r_i_glide_ligand_efficiency_sa>  (285) 
-0.447588

>  <r_i_glide_ligand_efficiency_ln>  (285) 
-0.753331

>  <r_i_glide_gscore>  (285) 
-2.84201

>  <r_i_glide_lipo>  (285) 
0

>  <r_i_glide_hbond>  (285) 
-0.0086901

>  <r_i_glide_metal>  (285) 
-0

>  <r_i_glide_rewards>  (285) 
-1.90711

>  <r_i_glide_evdw>  (285) 
-13.595

>  <r_i_glide_ecoul>  (285) 
-5.98164

>  <r_i_glide_erotb>  (285) 
0.694473

>  <r_i_glide_esite>  (285) 
-0.0436864

>  <r_i_glide_emodel>  (285) 
-23.2243

>  <r_i_glide_energy>  (285) 
-19.5766

>  <r_i_glide_einternal>  (285) 
3.89489

>  <r_i_glide_intrahb_reward>  (285) 
-0

>  <i_i_glide_confnum>  (285) 
6

>  <i_i_glide_posenum>  (285) 
20

>  <r_i_glide_eff_state_penalty>  (285) 
0

>  <ligand_id>  (285) 
74

>  <original_smiles>  (285) 
O=C1c2cn[nH]c2CC1CC1CCNCC1

>  <smiles>  (285) 
[H]c1nn([H])c2c1C(=O)C([H])(C([H])([H])C1([H])C([H])([H])C([H])([H])[N+]([H])([H])C([H])([H])C1([H])[H])C2([H])[H]

$$$$
75:0:0
     RDKit          3D

 26 26  0  0  1  0  0  0  0  0999 V2000
   -1.2789    1.9060    3.0044 C   0  0  0  0  0  0  0  0  0  0  0  0
   -0.2475    0.9808    2.7563 O   0  0  0  0  0  0  0  0  0  0  0  0
    0.2126    0.1857    3.7363 C   0  0  0  0  0  0  0  0  0  0  0  0
   -0.2949    0.0970    4.8562 O   0  0  0  0  0  0  0  0  0  0  0  0
    1.3962   -0.5852    3.3211 C   0  0  0  0  0  0  0  0  0  0  0  0
    1.8335   -0.5986    2.0418 C   0  0  0  0  0  0  0  0  0  0  0  0
    3.0124   -1.3474    1.6707 C   0  0  0  0  0  0  0  0  0  0  0  0
    3.8005   -1.8588    2.4686 O   0  0  0  0  0  0  0  0  0  0  0  0
    3.1361   -1.4325    0.3333 N   0  0  0  0  0  0  0  0  0  0  0  0
    4.2393   -1.9749   -0.3801 C   0  0  0  0  0  0  0  0  0  0  0  0
    4.0240   -2.6065   -1.6247 C   0  0  0  0  0  0  0  0  0  0  0  0
    5.1131   -3.1518   -2.3378 C   0  0  0  0  0  0  0  0  0  0  0  0
    6.4206   -3.0489   -1.8272 C   0  0  0  0  0  0  0  0  0  0  0  0
    6.6415   -2.4093   -0.5975 C   0  0  0  0  0  0  0  0  0  0  0  0
    8.2271   -2.2720    0.0500 Cl  0  0  0  0  0  0  0  0  0  0  0  0
    5.5619   -1.8568    0.1085 C   0  0  0  0  0  0  0  0  0  0  0  0
   -1.4949    2.4547    2.0894 H   0  0  0  0  0  0  0  0  0  0  0  0
   -0.9839    2.6162    3.7751 H   0  0  0  0  0  0  0  0  0  0  0  0
   -2.1805    1.3908    3.3274 H   0  0  0  0  0  0  0  0  0  0  0  0
    1.9158   -1.1432    4.0852 H   0  0  0  0  0  0  0  0  0  0  0  0
    1.3133   -0.0393    1.2752 H   0  0  0  0  0  0  0  0  0  0  0  0
    2.3283   -1.1144   -0.2047 H   0  0  0  0  0  0  0  0  0  0  0  0
    3.0207   -2.6889   -2.0239 H   0  0  0  0  0  0  0  0  0  0  0  0
    4.9441   -3.6526   -3.2850 H   0  0  0  0  0  0  0  0  0  0  0  0
    7.2555   -3.4568   -2.3724 H   0  0  0  0  0  0  0  0  0  0  0  0
    5.7720   -1.3427    1.0286 H   0  0  0  0  0  0  0  0  0  0  0  0
  1  2  1  0
  1 17  1  0
  1 18  1  0
  1 19  1  0
  2  3  1  0
  3  4  2  0
  3  5  1  0
  5  6  2  3
  5 20  1  0
  6  7  1  0
  6 21  1  0
  7  8  2  0
  7  9  1  0
  9 10  1  0
  9 22  1  0
 10 16  2  0
 10 11  1  0
 11 12  2  0
 11 23  1  0
 12 13  1  0
 12 24  1  0
 13 14  2  0
 13 25  1  0
 14 15  1  0
 14 16  1  0
 16 26  1  0
M  END
>  <i_m_ct_stereo_status>  (286) 
1

>  <s_m_source_file>  (286) 
/var/tmp/pbs.5076255.sched01/tmp0pz6dnip/90w4u7_w6b.sdf

>  <i_m_source_file_index>  (286) 
30

>  <i_lp_mmshare_version>  (286) 
48012

>  <i_f3d_flags>  (286) 
0

>  <s_epik_input>  (286) 
W0NIM11PQyg9TykvW0NIXT1bQ0hdL0MoPU8pW05IXWMxW2NIXVtjSF1bY0hdYyhDbClbY0hdMQ==

>  <s_epik_cmdline>  (286) 
J2VwaWtfcHl0aG9uJywgJy1waHQnLCAnMi4wJywgJy1waCcsICc3LjAnLCAnLXRuJywgJzgnLCAnLW1hJywgJzIwMCcsICctaW1hZScsICc8aW5maWxlLm1hZT4nLCAnLW9tYWUnLCAnPG91dGZpbGUubWFlPic=

>  <r_lp_tautomer_probability>  (286) 
1

>  <r_epik_Ionization_Penalty>  (286) 
4.65634e-06

>  <r_epik_Ionization_Penalty_Charging>  (286) 
0

>  <r_epik_Ionization_Penalty_Neutral>  (286) 
4.65634e-06

>  <r_epik_State_Penalty>  (286) 
-0

>  <r_epik_Charging_Adjusted_Penalty>  (286) 
0

>  <i_epik_Tot_Q>  (286) 
0

>  <i_epik_Tot_abs_Q>  (286) 
0

>  <s_epik_Chemistry_Notes>  (286) 
This compound has an ester and may undergo hydrolysis at high or low pH.

>  <s_lp_Force_Field>  (286) 
OPLS3e

>  <r_lp_Energy>  (286) 
19.0582

>  <b_lp_Chiralities_Consistent>  (286) 
1

>  <s_lp_Variant>  (286) 
75:0-1

>  <s_i_glide_gridfile>  (286) 
pfpi4k_grid

>  <i_i_glide_lignum>  (286) 
30

>  <i_i_glide_rotatable_bonds>  (286) 
5

>  <r_i_docking_score>  (286) 
-3.31136

>  <r_i_glide_ligand_efficiency>  (286) 
-0.20696

>  <r_i_glide_ligand_efficiency_sa>  (286) 
-0.521506

>  <r_i_glide_ligand_efficiency_ln>  (286) 
-0.877742

>  <r_i_glide_gscore>  (286) 
-3.31136

>  <r_i_glide_lipo>  (286) 
-0.260486

>  <r_i_glide_hbond>  (286) 
-0.16

>  <r_i_glide_metal>  (286) 
-0

>  <r_i_glide_rewards>  (286) 
-1.77508

>  <r_i_glide_evdw>  (286) 
-20.797

>  <r_i_glide_ecoul>  (286) 
-5.56419

>  <r_i_glide_erotb>  (286) 
0.90295

>  <r_i_glide_esite>  (286) 
-0.144266

>  <r_i_glide_emodel>  (286) 
-30.7175

>  <r_i_glide_energy>  (286) 
-26.3611

>  <r_i_glide_einternal>  (286) 
3.57341

>  <r_i_glide_intrahb_reward>  (286) 
-0

>  <i_i_glide_confnum>  (286) 
1

>  <i_i_glide_posenum>  (286) 
4

>  <r_i_glide_eff_state_penalty>  (286) 
0

>  <ligand_id>  (286) 
75

>  <original_smiles>  (286) 
COC(=O)C=CC(=O)Nc1cccc(Cl)c1

>  <smiles>  (286) 
[H]C(C(=O)OC([H])([H])[H])=C([H])C(=O)N([H])c1c([H])c([H])c([H])c(Cl)c1[H]

$$$$
75:0:1
     RDKit          3D

 26 26  0  0  1  0  0  0  0  0999 V2000
    4.2091   -2.1378   -3.4043 C   0  0  0  0  0  0  0  0  0  0  0  0
    4.0204   -1.6283   -2.0991 O   0  0  0  0  0  0  0  0  0  0  0  0
    5.0534   -1.5457   -1.2394 C   0  0  0  0  0  0  0  0  0  0  0  0
    6.2129   -1.8563   -1.5212 O   0  0  0  0  0  0  0  0  0  0  0  0
    4.6680   -1.0307    0.0886 C   0  0  0  0  0  0  0  0  0  0  0  0
    3.4074   -0.6562    0.3761 C   0  0  0  0  0  0  0  0  0  0  0  0
    3.0315   -0.1556    1.6811 C   0  0  0  0  0  0  0  0  0  0  0  0
    3.7909   -0.0511    2.6463 O   0  0  0  0  0  0  0  0  0  0  0  0
    1.7322    0.1921    1.6814 N   0  0  0  0  0  0  0  0  0  0  0  0
    0.9615    0.7679    2.7301 C   0  0  0  0  0  0  0  0  0  0  0  0
    1.2849    0.6297    4.1023 C   0  0  0  0  0  0  0  0  0  0  0  0
    0.4657    1.2163    5.0883 C   0  0  0  0  0  0  0  0  0  0  0  0
   -0.6833    1.9392    4.7132 C   0  0  0  0  0  0  0  0  0  0  0  0
   -1.0161    2.0746    3.3516 C   0  0  0  0  0  0  0  0  0  0  0  0
   -2.4266    2.9630    2.9007 Cl  0  0  0  0  0  0  0  0  0  0  0  0
   -0.1988    1.4834    2.3655 C   0  0  0  0  0  0  0  0  0  0  0  0
    3.2489   -2.1432   -3.9183 H   0  0  0  0  0  0  0  0  0  0  0  0
    4.5911   -3.1593   -3.3748 H   0  0  0  0  0  0  0  0  0  0  0  0
    4.8985   -1.5098   -3.9690 H   0  0  0  0  0  0  0  0  0  0  0  0
    5.4413   -0.9599    0.8391 H   0  0  0  0  0  0  0  0  0  0  0  0
    2.6461   -0.7240   -0.3820 H   0  0  0  0  0  0  0  0  0  0  0  0
    1.2616    0.0759    0.7859 H   0  0  0  0  0  0  0  0  0  0  0  0
    2.1519    0.0700    4.4202 H   0  0  0  0  0  0  0  0  0  0  0  0
    0.7212    1.1088    6.1340 H   0  0  0  0  0  0  0  0  0  0  0  0
   -1.3068    2.3917    5.4656 H   0  0  0  0  0  0  0  0  0  0  0  0
   -0.4562    1.5955    1.3214 H   0  0  0  0  0  0  0  0  0  0  0  0
  1  2  1  0
  1 17  1  0
  1 18  1  0
  1 19  1  0
  2  3  1  0
  3  4  2  0
  3  5  1  0
  5  6  2  3
  5 20  1  0
  6  7  1  0
  6 21  1  0
  7  8  2  0
  7  9  1  0
  9 10  1  0
  9 22  1  0
 10 16  2  0
 10 11  1  0
 11 12  2  0
 11 23  1  0
 12 13  1  0
 12 24  1  0
 13 14  2  0
 13 25  1  0
 14 15  1  0
 14 16  1  0
 16 26  1  0
M  END
>  <i_m_ct_stereo_status>  (287) 
1

>  <s_m_source_file>  (287) 
/var/tmp/pbs.5076255.sched01/tmp0pz6dnip/90w4u7_w6b.sdf

>  <i_m_source_file_index>  (287) 
30

>  <i_lp_mmshare_version>  (287) 
48012

>  <i_f3d_flags>  (287) 
0

>  <s_epik_input>  (287) 
W0NIM11PQyg9TykvW0NIXT1bQ0hdL0MoPU8pW05IXWMxW2NIXVtjSF1bY0hdYyhDbClbY0hdMQ==

>  <s_epik_cmdline>  (287) 
J2VwaWtfcHl0aG9uJywgJy1waHQnLCAnMi4wJywgJy1waCcsICc3LjAnLCAnLXRuJywgJzgnLCAnLW1hJywgJzIwMCcsICctaW1hZScsICc8aW5maWxlLm1hZT4nLCAnLW9tYWUnLCAnPG91dGZpbGUubWFlPic=

>  <r_lp_tautomer_probability>  (287) 
1

>  <r_epik_Ionization_Penalty>  (287) 
4.65634e-06

>  <r_epik_Ionization_Penalty_Charging>  (287) 
0

>  <r_epik_Ionization_Penalty_Neutral>  (287) 
4.65634e-06

>  <r_epik_State_Penalty>  (287) 
-0

>  <r_epik_Charging_Adjusted_Penalty>  (287) 
0

>  <i_epik_Tot_Q>  (287) 
0

>  <i_epik_Tot_abs_Q>  (287) 
0

>  <s_epik_Chemistry_Notes>  (287) 
This compound has an ester and may undergo hydrolysis at high or low pH.

>  <s_lp_Force_Field>  (287) 
OPLS3e

>  <r_lp_Energy>  (287) 
19.0582

>  <b_lp_Chiralities_Consistent>  (287) 
1

>  <s_lp_Variant>  (287) 
75:0-1

>  <s_i_glide_gridfile>  (287) 
pfpi4k_grid

>  <i_i_glide_lignum>  (287) 
30

>  <i_i_glide_rotatable_bonds>  (287) 
5

>  <r_i_docking_score>  (287) 
-3.20107

>  <r_i_glide_ligand_efficiency>  (287) 
-0.200067

>  <r_i_glide_ligand_efficiency_sa>  (287) 
-0.504137

>  <r_i_glide_ligand_efficiency_ln>  (287) 
-0.848507

>  <r_i_glide_gscore>  (287) 
-3.20107

>  <r_i_glide_lipo>  (287) 
-0.164424

>  <r_i_glide_hbond>  (287) 
-0.30355

>  <r_i_glide_metal>  (287) 
-0

>  <r_i_glide_rewards>  (287) 
-1.77508

>  <r_i_glide_evdw>  (287) 
-22.6856

>  <r_i_glide_ecoul>  (287) 
-3.97711

>  <r_i_glide_erotb>  (287) 
0.90295

>  <r_i_glide_esite>  (287) 
-0.130116

>  <r_i_glide_emodel>  (287) 
-32.5633

>  <r_i_glide_energy>  (287) 
-26.6627

>  <r_i_glide_einternal>  (287) 
0.310829

>  <r_i_glide_intrahb_reward>  (287) 
-0

>  <i_i_glide_confnum>  (287) 
1

>  <i_i_glide_posenum>  (287) 
2

>  <r_i_glide_eff_state_penalty>  (287) 
0

>  <ligand_id>  (287) 
75

>  <original_smiles>  (287) 
COC(=O)C=CC(=O)Nc1cccc(Cl)c1

>  <smiles>  (287) 
[H]C(C(=O)OC([H])([H])[H])=C([H])C(=O)N([H])c1c([H])c([H])c([H])c(Cl)c1[H]

$$$$
75:0:2
     RDKit          3D

 26 26  0  0  1  0  0  0  0  0999 V2000
    7.5235   -2.8928   -1.3885 C   0  0  0  0  0  0  0  0  0  0  0  0
    6.7949   -2.1530   -0.4200 O   0  0  0  0  0  0  0  0  0  0  0  0
    5.5274   -1.7834   -0.6824 C   0  0  0  0  0  0  0  0  0  0  0  0
    4.9602   -1.9773   -1.7585 O   0  0  0  0  0  0  0  0  0  0  0  0
    4.9234   -1.1010    0.4733 C   0  0  0  0  0  0  0  0  0  0  0  0
    3.6405   -0.6839    0.4482 C   0  0  0  0  0  0  0  0  0  0  0  0
    3.0599   -0.0014    1.5926 C   0  0  0  0  0  0  0  0  0  0  0  0
    3.6165    0.1243    2.6854 O   0  0  0  0  0  0  0  0  0  0  0  0
    1.8251    0.4641    1.3300 N   0  0  0  0  0  0  0  0  0  0  0  0
    1.0733    1.3472    2.1549 C   0  0  0  0  0  0  0  0  0  0  0  0
   -0.3356    1.2645    2.1715 C   0  0  0  0  0  0  0  0  0  0  0  0
   -1.0957    2.1425    2.9708 C   0  0  0  0  0  0  0  0  0  0  0  0
   -0.4557    3.1317    3.7430 C   0  0  0  0  0  0  0  0  0  0  0  0
    0.9458    3.2403    3.7127 C   0  0  0  0  0  0  0  0  0  0  0  0
    1.7511    4.4585    4.6261 Cl  0  0  0  0  0  0  0  0  0  0  0  0
    1.7038    2.3597    2.9211 C   0  0  0  0  0  0  0  0  0  0  0  0
    8.5266   -3.0986   -1.0184 H   0  0  0  0  0  0  0  0  0  0  0  0
    7.6175   -2.3294   -2.3177 H   0  0  0  0  0  0  0  0  0  0  0  0
    7.0324   -3.8422   -1.6014 H   0  0  0  0  0  0  0  0  0  0  0  0
    5.5415   -0.9378    1.3444 H   0  0  0  0  0  0  0  0  0  0  0  0
    3.0404   -0.8566   -0.4351 H   0  0  0  0  0  0  0  0  0  0  0  0
    1.3927    0.1306    0.4654 H   0  0  0  0  0  0  0  0  0  0  0  0
   -0.8412    0.5309    1.5595 H   0  0  0  0  0  0  0  0  0  0  0  0
   -2.1787    2.0705    2.9744 H   0  0  0  0  0  0  0  0  0  0  0  0
   -1.0336    3.8143    4.3416 H   0  0  0  0  0  0  0  0  0  0  0  0
    2.7740    2.4893    2.8972 H   0  0  0  0  0  0  0  0  0  0  0  0
  1  2  1  0
  1 17  1  0
  1 18  1  0
  1 19  1  0
  2  3  1  0
  3  4  2  0
  3  5  1  0
  5  6  2  3
  5 20  1  0
  6  7  1  0
  6 21  1  0
  7  8  2  0
  7  9  1  0
  9 10  1  0
  9 22  1  0
 10 16  2  0
 10 11  1  0
 11 12  2  0
 11 23  1  0
 12 13  1  0
 12 24  1  0
 13 14  2  0
 13 25  1  0
 14 15  1  0
 14 16  1  0
 16 26  1  0
M  END
>  <i_m_ct_stereo_status>  (288) 
1

>  <s_m_source_file>  (288) 
/var/tmp/pbs.5076255.sched01/tmp0pz6dnip/90w4u7_w6b.sdf

>  <i_m_source_file_index>  (288) 
30

>  <i_lp_mmshare_version>  (288) 
48012

>  <i_f3d_flags>  (288) 
0

>  <s_epik_input>  (288) 
W0NIM11PQyg9TykvW0NIXT1bQ0hdL0MoPU8pW05IXWMxW2NIXVtjSF1bY0hdYyhDbClbY0hdMQ==

>  <s_epik_cmdline>  (288) 
J2VwaWtfcHl0aG9uJywgJy1waHQnLCAnMi4wJywgJy1waCcsICc3LjAnLCAnLXRuJywgJzgnLCAnLW1hJywgJzIwMCcsICctaW1hZScsICc8aW5maWxlLm1hZT4nLCAnLW9tYWUnLCAnPG91dGZpbGUubWFlPic=

>  <r_lp_tautomer_probability>  (288) 
1

>  <r_epik_Ionization_Penalty>  (288) 
4.65634e-06

>  <r_epik_Ionization_Penalty_Charging>  (288) 
0

>  <r_epik_Ionization_Penalty_Neutral>  (288) 
4.65634e-06

>  <r_epik_State_Penalty>  (288) 
-0

>  <r_epik_Charging_Adjusted_Penalty>  (288) 
0

>  <i_epik_Tot_Q>  (288) 
0

>  <i_epik_Tot_abs_Q>  (288) 
0

>  <s_epik_Chemistry_Notes>  (288) 
This compound has an ester and may undergo hydrolysis at high or low pH.

>  <s_lp_Force_Field>  (288) 
OPLS3e

>  <r_lp_Energy>  (288) 
19.0582

>  <b_lp_Chiralities_Consistent>  (288) 
1

>  <s_lp_Variant>  (288) 
75:0-1

>  <s_i_glide_gridfile>  (288) 
pfpi4k_grid

>  <i_i_glide_lignum>  (288) 
30

>  <i_i_glide_rotatable_bonds>  (288) 
5

>  <r_i_docking_score>  (288) 
-2.92655

>  <r_i_glide_ligand_efficiency>  (288) 
-0.182909

>  <r_i_glide_ligand_efficiency_sa>  (288) 
-0.460903

>  <r_i_glide_ligand_efficiency_ln>  (288) 
-0.775741

>  <r_i_glide_gscore>  (288) 
-2.92655

>  <r_i_glide_lipo>  (288) 
-0.0749486

>  <r_i_glide_hbond>  (288) 
-0.247408

>  <r_i_glide_metal>  (288) 
-0

>  <r_i_glide_rewards>  (288) 
-1.77508

>  <r_i_glide_evdw>  (288) 
-21.4942

>  <r_i_glide_ecoul>  (288) 
-3.6291

>  <r_i_glide_erotb>  (288) 
0.90295

>  <r_i_glide_esite>  (288) 
-0.112986

>  <r_i_glide_emodel>  (288) 
-28.6274

>  <r_i_glide_energy>  (288) 
-25.1233

>  <r_i_glide_einternal>  (288) 
3.81363

>  <r_i_glide_intrahb_reward>  (288) 
-0

>  <i_i_glide_confnum>  (288) 
2

>  <i_i_glide_posenum>  (288) 
36

>  <r_i_glide_eff_state_penalty>  (288) 
0

>  <ligand_id>  (288) 
75

>  <original_smiles>  (288) 
COC(=O)C=CC(=O)Nc1cccc(Cl)c1

>  <smiles>  (288) 
[H]C(C(=O)OC([H])([H])[H])=C([H])C(=O)N([H])c1c([H])c([H])c([H])c(Cl)c1[H]

$$$$
75:1:0
     RDKit          3D

 26 26  0  0  1  0  0  0  0  0999 V2000
    5.9571   -3.3716   -2.6188 C   0  0  0  0  0  0  0  0  0  0  0  0
    6.5552   -2.5410   -1.6356 O   0  0  0  0  0  0  0  0  0  0  0  0
    5.8477   -1.8996   -0.6765 C   0  0  0  0  0  0  0  0  0  0  0  0
    6.4273   -1.1098    0.0663 O   0  0  0  0  0  0  0  0  0  0  0  0
    4.3907   -2.2567   -0.6080 C   0  0  0  0  0  0  0  0  0  0  0  0
    3.3982   -1.7248    0.1387 C   0  0  0  0  0  0  0  0  0  0  0  0
    3.4502   -0.6582    1.1163 C   0  0  0  0  0  0  0  0  0  0  0  0
    4.4746   -0.2841    1.7021 O   0  0  0  0  0  0  0  0  0  0  0  0
    2.2315   -0.1424    1.2853 N   0  0  0  0  0  0  0  0  0  0  0  0
    1.7835    0.8556    2.2093 C   0  0  0  0  0  0  0  0  0  0  0  0
    2.6344    1.4790    3.1512 C   0  0  0  0  0  0  0  0  0  0  0  0
    2.1328    2.4554    4.0240 C   0  0  0  0  0  0  0  0  0  0  0  0
    0.7721    2.7964    3.9762 C   0  0  0  0  0  0  0  0  0  0  0  0
   -0.0866    2.1622    3.0601 C   0  0  0  0  0  0  0  0  0  0  0  0
   -1.7604    2.5587    3.0263 Cl  0  0  0  0  0  0  0  0  0  0  0  0
    0.4208    1.1925    2.1699 C   0  0  0  0  0  0  0  0  0  0  0  0
    6.7138   -3.7510   -3.2721 H   0  0  0  0  0  0  0  0  0  0  0  0
    5.2497   -2.7771   -3.2070 H   0  0  0  0  0  0  0  0  0  0  0  0
    5.4377   -4.2098   -2.1291 H   0  0  0  0  0  0  0  0  0  0  0  0
    4.0203   -3.0518   -1.2325 H   0  0  0  0  0  0  0  0  0  0  0  0
    2.4275   -2.1703   -0.0322 H   0  0  0  0  0  0  0  0  0  0  0  0
    1.5280   -0.5216    0.6465 H   0  0  0  0  0  0  0  0  0  0  0  0
    3.6842    1.2721    3.2380 H   0  0  0  0  0  0  0  0  0  0  0  0
    2.8065    2.9346    4.7154 H   0  0  0  0  0  0  0  0  0  0  0  0
    0.3912    3.5444    4.6472 H   0  0  0  0  0  0  0  0  0  0  0  0
   -0.2270    0.7237    1.4473 H   0  0  0  0  0  0  0  0  0  0  0  0
  1  2  1  0
  1 17  1  0
  1 18  1  0
  1 19  1  0
  2  3  1  0
  3  4  2  0
  3  5  1  0
  5  6  2  3
  5 20  1  0
  6  7  1  0
  6 21  1  0
  7  8  2  0
  7  9  1  0
  9 10  1  0
  9 22  1  0
 10 16  2  0
 10 11  1  0
 11 12  2  0
 11 23  1  0
 12 13  1  0
 12 24  1  0
 13 14  2  0
 13 25  1  0
 14 15  1  0
 14 16  1  0
 16 26  1  0
M  END
>  <i_m_ct_stereo_status>  (289) 
1

>  <s_m_source_file>  (289) 
/var/tmp/pbs.5076255.sched01/tmp0pz6dnip/90w4u7_w6b.sdf

>  <i_m_source_file_index>  (289) 
31

>  <i_lp_mmshare_version>  (289) 
48012

>  <i_f3d_flags>  (289) 
0

>  <s_epik_input>  (289) 
W0NIM11PQyg9TykvW0NIXT1bQ0hdL0MoPU8pW05IXWMxW2NIXVtjSF1bY0hdYyhDbClbY0hdMQ==

>  <s_epik_cmdline>  (289) 
J2VwaWtfcHl0aG9uJywgJy1waHQnLCAnMi4wJywgJy1waCcsICc3LjAnLCAnLXRuJywgJzgnLCAnLW1hJywgJzIwMCcsICctaW1hZScsICc8aW5maWxlLm1hZT4nLCAnLW9tYWUnLCAnPG91dGZpbGUubWFlPic=

>  <r_lp_tautomer_probability>  (289) 
1

>  <r_epik_Ionization_Penalty>  (289) 
4.65634e-06

>  <r_epik_Ionization_Penalty_Charging>  (289) 
0

>  <r_epik_Ionization_Penalty_Neutral>  (289) 
4.65634e-06

>  <r_epik_State_Penalty>  (289) 
-0

>  <r_epik_Charging_Adjusted_Penalty>  (289) 
0

>  <i_epik_Tot_Q>  (289) 
0

>  <i_epik_Tot_abs_Q>  (289) 
0

>  <s_epik_Chemistry_Notes>  (289) 
This compound has an ester and may undergo hydrolysis at high or low pH.

>  <s_lp_Force_Field>  (289) 
OPLS3e

>  <r_lp_Energy>  (289) 
26.7922

>  <b_lp_Chiralities_Consistent>  (289) 
1

>  <s_lp_Variant>  (289) 
75:0-2

>  <s_i_glide_gridfile>  (289) 
pfpi4k_grid

>  <i_i_glide_lignum>  (289) 
31

>  <i_i_glide_rotatable_bonds>  (289) 
5

>  <r_i_docking_score>  (289) 
-3.53464

>  <r_i_glide_ligand_efficiency>  (289) 
-0.220915

>  <r_i_glide_ligand_efficiency_sa>  (289) 
-0.556671

>  <r_i_glide_ligand_efficiency_ln>  (289) 
-0.936927

>  <r_i_glide_gscore>  (289) 
-3.53464

>  <r_i_glide_lipo>  (289) 
-0.326916

>  <r_i_glide_hbond>  (289) 
-0.25989

>  <r_i_glide_metal>  (289) 
-0

>  <r_i_glide_rewards>  (289) 
-1.77508

>  <r_i_glide_evdw>  (289) 
-20.4735

>  <r_i_glide_ecoul>  (289) 
-6.03479

>  <r_i_glide_erotb>  (289) 
0.90295

>  <r_i_glide_esite>  (289) 
-0.146809

>  <r_i_glide_emodel>  (289) 
-30.5659

>  <r_i_glide_energy>  (289) 
-26.5083

>  <r_i_glide_einternal>  (289) 
5.0802

>  <r_i_glide_intrahb_reward>  (289) 
-0

>  <i_i_glide_confnum>  (289) 
2

>  <i_i_glide_posenum>  (289) 
15

>  <r_i_glide_eff_state_penalty>  (289) 
0

>  <ligand_id>  (289) 
75

>  <original_smiles>  (289) 
COC(=O)C=CC(=O)Nc1cccc(Cl)c1

>  <smiles>  (289) 
[H]C(C(=O)OC([H])([H])[H])=C([H])C(=O)N([H])c1c([H])c([H])c([H])c(Cl)c1[H]

$$$$
75:1:1
     RDKit          3D

 26 26  0  0  1  0  0  0  0  0999 V2000
    6.6111   -2.5384   -0.6131 C   0  0  0  0  0  0  0  0  0  0  0  0
    6.7834   -1.8550    0.6221 O   0  0  0  0  0  0  0  0  0  0  0  0
    5.7714   -1.2188    1.2755 C   0  0  0  0  0  0  0  0  0  0  0  0
    5.9251   -0.8325    2.4268 O   0  0  0  0  0  0  0  0  0  0  0  0
    4.5338   -1.0102    0.4596 C   0  0  0  0  0  0  0  0  0  0  0  0
    3.3345   -0.4884    0.8108 C   0  0  0  0  0  0  0  0  0  0  0  0
    2.8952    0.0486    2.0961 C   0  0  0  0  0  0  0  0  0  0  0  0
    3.5765    0.1569    3.1084 O   0  0  0  0  0  0  0  0  0  0  0  0
    1.6043    0.4434    1.9882 N   0  0  0  0  0  0  0  0  0  0  0  0
    0.7890    1.0548    2.9739 C   0  0  0  0  0  0  0  0  0  0  0  0
    1.0773    1.0084    4.3600 C   0  0  0  0  0  0  0  0  0  0  0  0
    0.2328    1.6394    5.2814 C   0  0  0  0  0  0  0  0  0  0  0  0
   -0.9107    2.3140    4.8249 C   0  0  0  0  0  0  0  0  0  0  0  0
   -1.2078    2.3655    3.4506 C   0  0  0  0  0  0  0  0  0  0  0  0
   -2.6085    3.1974    2.8995 Cl  0  0  0  0  0  0  0  0  0  0  0  0
   -0.3605    1.7324    2.5239 C   0  0  0  0  0  0  0  0  0  0  0  0
    7.5267   -3.0405   -0.8854 H   0  0  0  0  0  0  0  0  0  0  0  0
    6.3087   -1.8120   -1.3837 H   0  0  0  0  0  0  0  0  0  0  0  0
    5.8245   -3.2880   -0.5045 H   0  0  0  0  0  0  0  0  0  0  0  0
    4.5596   -1.3045   -0.5715 H   0  0  0  0  0  0  0  0  0  0  0  0
    2.6211   -0.4713    0.0156 H   0  0  0  0  0  0  0  0  0  0  0  0
    1.1952    0.3363    1.0665 H   0  0  0  0  0  0  0  0  0  0  0  0
    1.9358    0.4913    4.7591 H   0  0  0  0  0  0  0  0  0  0  0  0
    0.4703    1.5996    6.3335 H   0  0  0  0  0  0  0  0  0  0  0  0
   -1.5624    2.7976    5.5267 H   0  0  0  0  0  0  0  0  0  0  0  0
   -0.5690    1.7722    1.4632 H   0  0  0  0  0  0  0  0  0  0  0  0
  1  2  1  0
  1 17  1  0
  1 18  1  0
  1 19  1  0
  2  3  1  0
  3  4  2  0
  3  5  1  0
  5  6  2  3
  5 20  1  0
  6  7  1  0
  6 21  1  0
  7  8  2  0
  7  9  1  0
  9 10  1  0
  9 22  1  0
 10 16  2  0
 10 11  1  0
 11 12  2  0
 11 23  1  0
 12 13  1  0
 12 24  1  0
 13 14  2  0
 13 25  1  0
 14 15  1  0
 14 16  1  0
 16 26  1  0
M  END
>  <i_m_ct_stereo_status>  (290) 
1

>  <s_m_source_file>  (290) 
/var/tmp/pbs.5076255.sched01/tmp0pz6dnip/90w4u7_w6b.sdf

>  <i_m_source_file_index>  (290) 
31

>  <i_lp_mmshare_version>  (290) 
48012

>  <i_f3d_flags>  (290) 
0

>  <s_epik_input>  (290) 
W0NIM11PQyg9TykvW0NIXT1bQ0hdL0MoPU8pW05IXWMxW2NIXVtjSF1bY0hdYyhDbClbY0hdMQ==

>  <s_epik_cmdline>  (290) 
J2VwaWtfcHl0aG9uJywgJy1waHQnLCAnMi4wJywgJy1waCcsICc3LjAnLCAnLXRuJywgJzgnLCAnLW1hJywgJzIwMCcsICctaW1hZScsICc8aW5maWxlLm1hZT4nLCAnLW9tYWUnLCAnPG91dGZpbGUubWFlPic=

>  <r_lp_tautomer_probability>  (290) 
1

>  <r_epik_Ionization_Penalty>  (290) 
4.65634e-06

>  <r_epik_Ionization_Penalty_Charging>  (290) 
0

>  <r_epik_Ionization_Penalty_Neutral>  (290) 
4.65634e-06

>  <r_epik_State_Penalty>  (290) 
-0

>  <r_epik_Charging_Adjusted_Penalty>  (290) 
0

>  <i_epik_Tot_Q>  (290) 
0

>  <i_epik_Tot_abs_Q>  (290) 
0

>  <s_epik_Chemistry_Notes>  (290) 
This compound has an ester and may undergo hydrolysis at high or low pH.

>  <s_lp_Force_Field>  (290) 
OPLS3e

>  <r_lp_Energy>  (290) 
26.7922

>  <b_lp_Chiralities_Consistent>  (290) 
1

>  <s_lp_Variant>  (290) 
75:0-2

>  <s_i_glide_gridfile>  (290) 
pfpi4k_grid

>  <i_i_glide_lignum>  (290) 
31

>  <i_i_glide_rotatable_bonds>  (290) 
5

>  <r_i_docking_score>  (290) 
-2.63004

>  <r_i_glide_ligand_efficiency>  (290) 
-0.164378

>  <r_i_glide_ligand_efficiency_sa>  (290) 
-0.414206

>  <r_i_glide_ligand_efficiency_ln>  (290) 
-0.697145

>  <r_i_glide_gscore>  (290) 
-2.63004

>  <r_i_glide_lipo>  (290) 
-0.0434668

>  <r_i_glide_hbond>  (290) 
-0.0543753

>  <r_i_glide_metal>  (290) 
-0

>  <r_i_glide_rewards>  (290) 
-1.98159

>  <r_i_glide_evdw>  (290) 
-21.6781

>  <r_i_glide_ecoul>  (290) 
-2.10226

>  <r_i_glide_erotb>  (290) 
0.90295

>  <r_i_glide_esite>  (290) 
-0.0543167

>  <r_i_glide_emodel>  (290) 
-26.4131

>  <r_i_glide_energy>  (290) 
-23.7804

>  <r_i_glide_einternal>  (290) 
4.54698

>  <r_i_glide_intrahb_reward>  (290) 
-0

>  <i_i_glide_confnum>  (290) 
6

>  <i_i_glide_posenum>  (290) 
5

>  <r_i_glide_eff_state_penalty>  (290) 
0

>  <ligand_id>  (290) 
75

>  <original_smiles>  (290) 
COC(=O)C=CC(=O)Nc1cccc(Cl)c1

>  <smiles>  (290) 
[H]C(C(=O)OC([H])([H])[H])=C([H])C(=O)N([H])c1c([H])c([H])c([H])c(Cl)c1[H]

$$$$
75:1:2
     RDKit          3D

 26 26  0  0  1  0  0  0  0  0999 V2000
    6.2262   -1.6939    0.2642 C   0  0  0  0  0  0  0  0  0  0  0  0
    6.1305   -1.3444    1.6305 O   0  0  0  0  0  0  0  0  0  0  0  0
    5.0474   -0.7167    2.1694 C   0  0  0  0  0  0  0  0  0  0  0  0
    5.0442   -0.4479    3.3608 O   0  0  0  0  0  0  0  0  0  0  0  0
    3.9296   -0.4301    1.2022 C   0  0  0  0  0  0  0  0  0  0  0  0
    2.7097    0.1267    1.4022 C   0  0  0  0  0  0  0  0  0  0  0  0
    2.1343    0.6416    2.6225 C   0  0  0  0  0  0  0  0  0  0  0  0
    2.7177    0.7348    3.7021 O   0  0  0  0  0  0  0  0  0  0  0  0
    0.8631    1.0233    2.4115 N   0  0  0  0  0  0  0  0  0  0  0  0
   -0.0424    1.6711    3.2953 C   0  0  0  0  0  0  0  0  0  0  0  0
    0.2091    1.8884    4.6760 C   0  0  0  0  0  0  0  0  0  0  0  0
   -0.7310    2.5581    5.4723 C   0  0  0  0  0  0  0  0  0  0  0  0
   -1.9328    3.0162    4.8968 C   0  0  0  0  0  0  0  0  0  0  0  0
   -2.1824    2.8043    3.5295 C   0  0  0  0  0  0  0  0  0  0  0  0
   -3.6297    3.3605    2.7992 Cl  0  0  0  0  0  0  0  0  0  0  0  0
   -1.2452    2.1258    2.7477 C   0  0  0  0  0  0  0  0  0  0  0  0
    7.1607   -2.1986    0.0765 H   0  0  0  0  0  0  0  0  0  0  0  0
    6.1856   -0.7783   -0.3394 H   0  0  0  0  0  0  0  0  0  0  0  0
    5.3987   -2.3645   -0.0013 H   0  0  0  0  0  0  0  0  0  0  0  0
    4.0632   -0.6971    0.1709 H   0  0  0  0  0  0  0  0  0  0  0  0
    2.1068    0.1799    0.5105 H   0  0  0  0  0  0  0  0  0  0  0  0
    0.5350    0.8920    1.4576 H   0  0  0  0  0  0  0  0  0  0  0  0
    1.1117    1.5628    5.1745 H   0  0  0  0  0  0  0  0  0  0  0  0
   -0.5116    2.7105    6.5198 H   0  0  0  0  0  0  0  0  0  0  0  0
   -2.6520    3.5211    5.5157 H   0  0  0  0  0  0  0  0  0  0  0  0
   -1.4294    1.9523    1.6832 H   0  0  0  0  0  0  0  0  0  0  0  0
  1  2  1  0
  1 17  1  0
  1 18  1  0
  1 19  1  0
  2  3  1  0
  3  4  2  0
  3  5  1  0
  5  6  2  3
  5 20  1  0
  6  7  1  0
  6 21  1  0
  7  8  2  0
  7  9  1  0
  9 10  1  0
  9 22  1  0
 10 16  2  0
 10 11  1  0
 11 12  2  0
 11 23  1  0
 12 13  1  0
 12 24  1  0
 13 14  2  0
 13 25  1  0
 14 15  1  0
 14 16  1  0
 16 26  1  0
M  END
>  <i_m_ct_stereo_status>  (291) 
1

>  <s_m_source_file>  (291) 
/var/tmp/pbs.5076255.sched01/tmp0pz6dnip/90w4u7_w6b.sdf

>  <i_m_source_file_index>  (291) 
31

>  <i_lp_mmshare_version>  (291) 
48012

>  <i_f3d_flags>  (291) 
0

>  <s_epik_input>  (291) 
W0NIM11PQyg9TykvW0NIXT1bQ0hdL0MoPU8pW05IXWMxW2NIXVtjSF1bY0hdYyhDbClbY0hdMQ==

>  <s_epik_cmdline>  (291) 
J2VwaWtfcHl0aG9uJywgJy1waHQnLCAnMi4wJywgJy1waCcsICc3LjAnLCAnLXRuJywgJzgnLCAnLW1hJywgJzIwMCcsICctaW1hZScsICc8aW5maWxlLm1hZT4nLCAnLW9tYWUnLCAnPG91dGZpbGUubWFlPic=

>  <r_lp_tautomer_probability>  (291) 
1

>  <r_epik_Ionization_Penalty>  (291) 
4.65634e-06

>  <r_epik_Ionization_Penalty_Charging>  (291) 
0

>  <r_epik_Ionization_Penalty_Neutral>  (291) 
4.65634e-06

>  <r_epik_State_Penalty>  (291) 
-0

>  <r_epik_Charging_Adjusted_Penalty>  (291) 
0

>  <i_epik_Tot_Q>  (291) 
0

>  <i_epik_Tot_abs_Q>  (291) 
0

>  <s_epik_Chemistry_Notes>  (291) 
This compound has an ester and may undergo hydrolysis at high or low pH.

>  <s_lp_Force_Field>  (291) 
OPLS3e

>  <r_lp_Energy>  (291) 
26.7922

>  <b_lp_Chiralities_Consistent>  (291) 
1

>  <s_lp_Variant>  (291) 
75:0-2

>  <s_i_glide_gridfile>  (291) 
pfpi4k_grid

>  <i_i_glide_lignum>  (291) 
31

>  <i_i_glide_rotatable_bonds>  (291) 
5

>  <r_i_docking_score>  (291) 
-2.46441

>  <r_i_glide_ligand_efficiency>  (291) 
-0.154026

>  <r_i_glide_ligand_efficiency_sa>  (291) 
-0.38812

>  <r_i_glide_ligand_efficiency_ln>  (291) 
-0.653241

>  <r_i_glide_gscore>  (291) 
-2.46441

>  <r_i_glide_lipo>  (291) 
-0.122897

>  <r_i_glide_hbond>  (291) 
0

>  <r_i_glide_metal>  (291) 
-0

>  <r_i_glide_rewards>  (291) 
-1.95044

>  <r_i_glide_evdw>  (291) 
-21.3154

>  <r_i_glide_ecoul>  (291) 
-1.14408

>  <r_i_glide_erotb>  (291) 
0.90295

>  <r_i_glide_esite>  (291) 
-0.0566421

>  <r_i_glide_emodel>  (291) 
-24.857

>  <r_i_glide_energy>  (291) 
-22.4594

>  <r_i_glide_einternal>  (291) 
4.27773

>  <r_i_glide_intrahb_reward>  (291) 
-0

>  <i_i_glide_confnum>  (291) 
2

>  <i_i_glide_posenum>  (291) 
2

>  <r_i_glide_eff_state_penalty>  (291) 
0

>  <ligand_id>  (291) 
75

>  <original_smiles>  (291) 
COC(=O)C=CC(=O)Nc1cccc(Cl)c1

>  <smiles>  (291) 
[H]C(C(=O)OC([H])([H])[H])=C([H])C(=O)N([H])c1c([H])c([H])c([H])c(Cl)c1[H]

$$$$
76:0:0
     RDKit          3D

 38 40  0  0  1  0  0  0  0  0999 V2000
    7.5123   -3.1045    0.5598 C   0  0  0  0  0  0  0  0  0  0  0  0
    8.1265   -4.2707    0.3769 N   0  0  0  0  0  0  0  0  0  0  0  0
    7.5405   -5.3487    0.9470 C   0  0  0  0  0  0  0  0  0  0  0  0
    8.0576   -6.6557    0.9411 C   0  0  0  0  0  0  0  0  0  0  0  0
    7.0067   -7.7907    1.7723 S   0  0  0  0  0  0  0  0  0  0  0  0
    5.8710   -6.4928    2.1108 C   0  0  0  0  0  0  0  0  0  0  0  0
    6.3217   -5.2546    1.6236 C   0  0  0  0  0  0  0  0  0  0  0  0
    5.7353   -3.9775    1.7258 C   0  0  0  0  0  0  0  0  0  0  0  0
    4.4586   -3.8158    2.2878 N   0  0  0  0  0  0  0  0  0  0  0  0
    3.7166   -2.5562    2.2343 C   0  0  0  0  0  0  0  0  0  0  0  0
    3.0222   -2.2871    0.8878 C   0  0  0  0  0  0  0  0  0  0  0  0
    3.9596   -1.7126   -0.1920 C   0  0  0  0  0  0  0  0  0  0  0  0
    3.3704   -1.6964   -1.5429 N   0  0  0  0  0  0  0  0  0  0  0  0
    4.1829   -0.8654   -2.4629 C   0  0  0  0  0  0  0  0  0  0  0  0
    3.5676   -0.8560   -3.8634 C   0  0  0  0  0  0  0  0  0  0  0  0
    3.4738   -2.1987   -4.3202 O   0  0  0  0  0  0  0  0  0  0  0  0
    2.6323   -3.0079   -3.5150 C   0  0  0  0  0  0  0  0  0  0  0  0
    3.2230   -3.0652   -2.1091 C   0  0  0  0  0  0  0  0  0  0  0  0
    6.3885   -2.8955    1.2400 N   0  0  0  0  0  0  0  0  0  0  0  0
    7.9370   -2.2478    0.0615 H   0  0  0  0  0  0  0  0  0  0  0  0
    8.9980   -7.0222    0.5408 H   0  0  0  0  0  0  0  0  0  0  0  0
    4.9774   -6.7350    2.6554 H   0  0  0  0  0  0  0  0  0  0  0  0
    2.9323   -2.6429    2.9830 H   0  0  0  0  0  0  0  0  0  0  0  0
    4.3390   -1.7190    2.5531 H   0  0  0  0  0  0  0  0  0  0  0  0
    2.5332   -3.2033    0.5781 H   0  0  0  0  0  0  0  0  0  0  0  0
    2.2146   -1.5695    1.0438 H   0  0  0  0  0  0  0  0  0  0  0  0
    4.2975   -0.7148    0.1138 H   0  0  0  0  0  0  0  0  0  0  0  0
    4.8397   -2.3140   -0.3444 H   0  0  0  0  0  0  0  0  0  0  0  0
    4.2619    0.1463   -2.0808 H   0  0  0  0  0  0  0  0  0  0  0  0
    5.2017   -1.2510   -2.5121 H   0  0  0  0  0  0  0  0  0  0  0  0
    2.5949   -0.3685   -3.8470 H   0  0  0  0  0  0  0  0  0  0  0  0
    4.2017   -0.2898   -4.5468 H   0  0  0  0  0  0  0  0  0  0  0  0
    1.6126   -2.6284   -3.4804 H   0  0  0  0  0  0  0  0  0  0  0  0
    2.5828   -4.0104   -3.9369 H   0  0  0  0  0  0  0  0  0  0  0  0
    4.1922   -3.5641   -2.1470 H   0  0  0  0  0  0  0  0  0  0  0  0
    2.5846   -3.6982   -1.4968 H   0  0  0  0  0  0  0  0  0  0  0  0
    3.9800   -4.6395    2.6163 H   0  0  0  0  0  0  0  0  0  0  0  0
    2.4361   -1.2895   -1.4735 H   0  0  0  0  0  0  0  0  0  0  0  0
  1 19  1  0
  1  2  2  0
  1 20  1  0
  2  3  1  0
  3  7  1  0
  3  4  2  0
  4  5  1  0
  4 21  1  0
  5  6  1  0
  6  7  2  0
  6 22  1  0
  7  8  1  0
  8  9  1  0
  8 19  2  0
  9 10  1  0
  9 37  1  0
 10 11  1  0
 10 23  1  0
 10 24  1  0
 11 12  1  0
 11 25  1  0
 11 26  1  0
 12 13  1  0
 12 27  1  0
 12 28  1  0
 13 18  1  0
 13 14  1  0
 13 38  1  0
 14 15  1  0
 14 29  1  0
 14 30  1  0
 15 16  1  0
 15 31  1  0
 15 32  1  0
 16 17  1  0
 17 18  1  0
 17 33  1  0
 17 34  1  0
 18 35  1  0
 18 36  1  0
M  CHG  1  13   1
M  END
>  <i_m_ct_stereo_status>  (292) 
1

>  <s_m_source_file>  (292) 
/var/tmp/pbs.5076255.sched01/tmp0pz6dnip/90w4u7_w6b.sdf

>  <i_m_source_file_index>  (292) 
32

>  <i_lp_mmshare_version>  (292) 
48012

>  <i_f3d_flags>  (292) 
0

>  <s_epik_input>  (292) 
W2NIXTFzW2NIXWMoYzEyKS9jKFtuSF1bY0hdbjIpPU5cW0NIMl1bQ0gyXVtDSDJdTjNbQ0gyXVtDSDJdT1tDSDJdW0NIMl0z

>  <s_epik_cmdline>  (292) 
J2VwaWtfcHl0aG9uJywgJy1waHQnLCAnMi4wJywgJy1waCcsICc3LjAnLCAnLXRuJywgJzgnLCAnLW1hJywgJzIwMCcsICctaW1hZScsICc8aW5maWxlLm1hZT4nLCAnLW9tYWUnLCAnPG91dGZpbGUubWFlPic=

>  <r_epik_Ionization_Penalty>  (292) 
0.131918

>  <r_epik_Ionization_Penalty_Charging>  (292) 
0.125468

>  <r_epik_Ionization_Penalty_Neutral>  (292) 
0.00645008

>  <r_epik_State_Penalty>  (292) 
0.114933

>  <r_epik_Charging_Adjusted_Penalty>  (292) 
0.240401

>  <i_epik_Tot_Q>  (292) 
1

>  <i_epik_Tot_abs_Q>  (292) 
1

>  <s_lp_Force_Field>  (292) 
OPLS3e

>  <r_lp_Energy>  (292) 
30.4102

>  <b_lp_Chiralities_Consistent>  (292) 
1

>  <s_lp_Variant>  (292) 
76:0-1

>  <s_i_glide_gridfile>  (292) 
pfpi4k_grid

>  <i_i_glide_lignum>  (292) 
32

>  <i_i_glide_rotatable_bonds>  (292) 
5

>  <r_i_docking_score>  (292) 
-4.88237

>  <r_i_glide_ligand_efficiency>  (292) 
-0.256967

>  <r_i_glide_ligand_efficiency_sa>  (292) 
-0.685691

>  <r_i_glide_ligand_efficiency_ln>  (292) 
-1.23779

>  <r_i_glide_gscore>  (292) 
-4.88237

>  <r_i_glide_lipo>  (292) 
-0.798098

>  <r_i_glide_hbond>  (292) 
-0.52

>  <r_i_glide_metal>  (292) 
-0

>  <r_i_glide_rewards>  (292) 
-1.71

>  <r_i_glide_evdw>  (292) 
-24.3969

>  <r_i_glide_ecoul>  (292) 
-8.23098

>  <r_i_glide_erotb>  (292) 
0.693445

>  <r_i_glide_esite>  (292) 
-0.0932293

>  <r_i_glide_emodel>  (292) 
-42.9227

>  <r_i_glide_energy>  (292) 
-32.6279

>  <r_i_glide_einternal>  (292) 
2.46809

>  <r_i_glide_intrahb_reward>  (292) 
-0

>  <i_i_glide_confnum>  (292) 
3

>  <i_i_glide_posenum>  (292) 
28

>  <r_i_glide_eff_state_penalty>  (292) 
0

>  <ligand_id>  (292) 
76

>  <original_smiles>  (292) 
c1nc2cscc2c(=NCCCN2CCOCC2)[nH]1

>  <smiles>  (292) 
[H]c1nc(N([H])C([H])([H])C([H])([H])C([H])([H])[N+]2([H])C([H])([H])C([H])([H])OC([H])([H])C2([H])[H])c2c([H])sc([H])c2n1

$$$$
76:0:1
     RDKit          3D

 38 40  0  0  1  0  0  0  0  0999 V2000
   -0.0737    0.5787    3.6522 C   0  0  0  0  0  0  0  0  0  0  0  0
   -0.4565    1.8205    3.9545 N   0  0  0  0  0  0  0  0  0  0  0  0
    0.4812    2.7814    3.8292 C   0  0  0  0  0  0  0  0  0  0  0  0
    0.2873    4.1499    4.0772 C   0  0  0  0  0  0  0  0  0  0  0  0
    1.7375    5.0995    3.7960 S   0  0  0  0  0  0  0  0  0  0  0  0
    2.6107    3.6288    3.3739 C   0  0  0  0  0  0  0  0  0  0  0  0
    1.7892    2.4904    3.4389 C   0  0  0  0  0  0  0  0  0  0  0  0
    2.0958    1.1407    3.1555 C   0  0  0  0  0  0  0  0  0  0  0  0
    3.4003    0.7784    2.7920 N   0  0  0  0  0  0  0  0  0  0  0  0
    3.6903   -0.5140    2.1664 C   0  0  0  0  0  0  0  0  0  0  0  0
    3.4148   -0.4985    0.6578 C   0  0  0  0  0  0  0  0  0  0  0  0
    3.7582   -1.8313   -0.0398 C   0  0  0  0  0  0  0  0  0  0  0  0
    3.3611   -1.8402   -1.4766 N   0  0  0  0  0  0  0  0  0  0  0  0
    4.2289   -0.9913   -2.3318 C   0  0  0  0  0  0  0  0  0  0  0  0
    3.7776   -1.0271   -3.7987 C   0  0  0  0  0  0  0  0  0  0  0  0
    3.7649   -2.3715   -4.2562 O   0  0  0  0  0  0  0  0  0  0  0  0
    2.8491   -3.1789   -3.5245 C   0  0  0  0  0  0  0  0  0  0  0  0
    3.2653   -3.2106   -2.0407 C   0  0  0  0  0  0  0  0  0  0  0  0
    1.1416    0.1862    3.2662 N   0  0  0  0  0  0  0  0  0  0  0  0
   -0.8148   -0.1932    3.7633 H   0  0  0  0  0  0  0  0  0  0  0  0
   -0.6130    4.6604    4.3756 H   0  0  0  0  0  0  0  0  0  0  0  0
    3.6495    3.7250    3.0976 H   0  0  0  0  0  0  0  0  0  0  0  0
    4.7456   -0.7301    2.3253 H   0  0  0  0  0  0  0  0  0  0  0  0
    3.1349   -1.3145    2.6560 H   0  0  0  0  0  0  0  0  0  0  0  0
    2.3671   -0.2547    0.4832 H   0  0  0  0  0  0  0  0  0  0  0  0
    4.0099    0.3038    0.2283 H   0  0  0  0  0  0  0  0  0  0  0  0
    4.8244   -2.0533    0.0485 H   0  0  0  0  0  0  0  0  0  0  0  0
    3.2381   -2.6360    0.4827 H   0  0  0  0  0  0  0  0  0  0  0  0
    4.2279    0.0430   -1.9994 H   0  0  0  0  0  0  0  0  0  0  0  0
    5.2563   -1.3484   -2.2593 H   0  0  0  0  0  0  0  0  0  0  0  0
    2.8007   -0.5611   -3.9230 H   0  0  0  0  0  0  0  0  0  0  0  0
    4.4816   -0.4605   -4.4088 H   0  0  0  0  0  0  0  0  0  0  0  0
    1.8312   -2.8087   -3.6464 H   0  0  0  0  0  0  0  0  0  0  0  0
    2.8672   -4.1871   -3.9388 H   0  0  0  0  0  0  0  0  0  0  0  0
    4.2300   -3.7121   -1.9469 H   0  0  0  0  0  0  0  0  0  0  0  0
    2.5446   -3.8080   -1.4820 H   0  0  0  0  0  0  0  0  0  0  0  0
    4.0783    1.5267    2.7111 H   0  0  0  0  0  0  0  0  0  0  0  0
    2.4120   -1.4647   -1.5053 H   0  0  0  0  0  0  0  0  0  0  0  0
  1 19  1  0
  1  2  2  0
  1 20  1  0
  2  3  1  0
  3  7  1  0
  3  4  2  0
  4  5  1  0
  4 21  1  0
  5  6  1  0
  6  7  2  0
  6 22  1  0
  7  8  1  0
  8  9  1  0
  8 19  2  0
  9 10  1  0
  9 37  1  0
 10 11  1  0
 10 23  1  0
 10 24  1  0
 11 12  1  0
 11 25  1  0
 11 26  1  0
 12 13  1  0
 12 27  1  0
 12 28  1  0
 13 18  1  0
 13 14  1  0
 13 38  1  0
 14 15  1  0
 14 29  1  0
 14 30  1  0
 15 16  1  0
 15 31  1  0
 15 32  1  0
 16 17  1  0
 17 18  1  0
 17 33  1  0
 17 34  1  0
 18 35  1  0
 18 36  1  0
M  CHG  1  13   1
M  END
>  <i_m_ct_stereo_status>  (293) 
1

>  <s_m_source_file>  (293) 
/var/tmp/pbs.5076255.sched01/tmp0pz6dnip/90w4u7_w6b.sdf

>  <i_m_source_file_index>  (293) 
32

>  <i_lp_mmshare_version>  (293) 
48012

>  <i_f3d_flags>  (293) 
0

>  <s_epik_input>  (293) 
W2NIXTFzW2NIXWMoYzEyKS9jKFtuSF1bY0hdbjIpPU5cW0NIMl1bQ0gyXVtDSDJdTjNbQ0gyXVtDSDJdT1tDSDJdW0NIMl0z

>  <s_epik_cmdline>  (293) 
J2VwaWtfcHl0aG9uJywgJy1waHQnLCAnMi4wJywgJy1waCcsICc3LjAnLCAnLXRuJywgJzgnLCAnLW1hJywgJzIwMCcsICctaW1hZScsICc8aW5maWxlLm1hZT4nLCAnLW9tYWUnLCAnPG91dGZpbGUubWFlPic=

>  <r_epik_Ionization_Penalty>  (293) 
0.131918

>  <r_epik_Ionization_Penalty_Charging>  (293) 
0.125468

>  <r_epik_Ionization_Penalty_Neutral>  (293) 
0.00645008

>  <r_epik_State_Penalty>  (293) 
0.114933

>  <r_epik_Charging_Adjusted_Penalty>  (293) 
0.240401

>  <i_epik_Tot_Q>  (293) 
1

>  <i_epik_Tot_abs_Q>  (293) 
1

>  <s_lp_Force_Field>  (293) 
OPLS3e

>  <r_lp_Energy>  (293) 
30.4102

>  <b_lp_Chiralities_Consistent>  (293) 
1

>  <s_lp_Variant>  (293) 
76:0-1

>  <s_i_glide_gridfile>  (293) 
pfpi4k_grid

>  <i_i_glide_lignum>  (293) 
32

>  <i_i_glide_rotatable_bonds>  (293) 
5

>  <r_i_docking_score>  (293) 
-4.65803

>  <r_i_glide_ligand_efficiency>  (293) 
-0.245159

>  <r_i_glide_ligand_efficiency_sa>  (293) 
-0.654184

>  <r_i_glide_ligand_efficiency_ln>  (293) 
-1.18091

>  <r_i_glide_gscore>  (293) 
-4.65803

>  <r_i_glide_lipo>  (293) 
-0.417127

>  <r_i_glide_hbond>  (293) 
-0.808

>  <r_i_glide_metal>  (293) 
-0

>  <r_i_glide_rewards>  (293) 
-1.50421

>  <r_i_glide_evdw>  (293) 
-23.7838

>  <r_i_glide_ecoul>  (293) 
-8.82981

>  <r_i_glide_erotb>  (293) 
0.693445

>  <r_i_glide_esite>  (293) 
-0.108473

>  <r_i_glide_emodel>  (293) 
-44.0029

>  <r_i_glide_energy>  (293) 
-32.6136

>  <r_i_glide_einternal>  (293) 
1.15633

>  <r_i_glide_intrahb_reward>  (293) 
-0

>  <i_i_glide_confnum>  (293) 
1

>  <i_i_glide_posenum>  (293) 
11

>  <r_i_glide_eff_state_penalty>  (293) 
0

>  <ligand_id>  (293) 
76

>  <original_smiles>  (293) 
c1nc2cscc2c(=NCCCN2CCOCC2)[nH]1

>  <smiles>  (293) 
[H]c1nc(N([H])C([H])([H])C([H])([H])C([H])([H])[N+]2([H])C([H])([H])C([H])([H])OC([H])([H])C2([H])[H])c2c([H])sc([H])c2n1

$$$$
76:0:2
     RDKit          3D

 38 40  0  0  1  0  0  0  0  0999 V2000
    0.1984   -1.8276    5.4528 C   0  0  0  0  0  0  0  0  0  0  0  0
   -0.6159   -0.7781    5.5709 N   0  0  0  0  0  0  0  0  0  0  0  0
   -0.5974    0.1023    4.5486 C   0  0  0  0  0  0  0  0  0  0  0  0
   -1.3638    1.2764    4.4689 C   0  0  0  0  0  0  0  0  0  0  0  0
   -1.1094    2.1466    2.9668 S   0  0  0  0  0  0  0  0  0  0  0  0
    0.0532    0.9270    2.4587 C   0  0  0  0  0  0  0  0  0  0  0  0
    0.2052   -0.0897    3.4214 C   0  0  0  0  0  0  0  0  0  0  0  0
    1.0137   -1.2460    3.3845 C   0  0  0  0  0  0  0  0  0  0  0  0
    1.8047   -1.5238    2.2586 N   0  0  0  0  0  0  0  0  0  0  0  0
    2.6023   -2.7462    2.1648 C   0  0  0  0  0  0  0  0  0  0  0  0
    2.7947   -3.1749    0.7108 C   0  0  0  0  0  0  0  0  0  0  0  0
    3.7580   -2.2887   -0.0907 C   0  0  0  0  0  0  0  0  0  0  0  0
    3.2854   -2.0298   -1.4753 N   0  0  0  0  0  0  0  0  0  0  0  0
    4.1538   -1.0650   -2.1885 C   0  0  0  0  0  0  0  0  0  0  0  0
    3.6198   -0.7898   -3.6040 C   0  0  0  0  0  0  0  0  0  0  0  0
    3.5223   -2.0186   -4.3159 O   0  0  0  0  0  0  0  0  0  0  0  0
    2.6156   -2.9280   -3.6996 C   0  0  0  0  0  0  0  0  0  0  0  0
    3.1141   -3.2606   -2.2865 C   0  0  0  0  0  0  0  0  0  0  0  0
    1.0018   -2.1106    4.4244 N   0  0  0  0  0  0  0  0  0  0  0  0
    0.1979   -2.5288    6.2707 H   0  0  0  0  0  0  0  0  0  0  0  0
   -2.0636    1.6861    5.1800 H   0  0  0  0  0  0  0  0  0  0  0  0
    0.5111    1.0513    1.4868 H   0  0  0  0  0  0  0  0  0  0  0  0
    3.5696   -2.5992    2.6437 H   0  0  0  0  0  0  0  0  0  0  0  0
    2.1067   -3.5560    2.6967 H   0  0  0  0  0  0  0  0  0  0  0  0
    3.1523   -4.2000    0.6674 H   0  0  0  0  0  0  0  0  0  0  0  0
    1.8149   -3.1981    0.2382 H   0  0  0  0  0  0  0  0  0  0  0  0
    3.8983   -1.3322    0.4151 H   0  0  0  0  0  0  0  0  0  0  0  0
    4.7408   -2.7593   -0.1214 H   0  0  0  0  0  0  0  0  0  0  0  0
    4.2192   -0.1351   -1.6282 H   0  0  0  0  0  0  0  0  0  0  0  0
    5.1660   -1.4644   -2.2504 H   0  0  0  0  0  0  0  0  0  0  0  0
    2.6576   -0.2775   -3.5736 H   0  0  0  0  0  0  0  0  0  0  0  0
    4.3078   -0.1382   -4.1409 H   0  0  0  0  0  0  0  0  0  0  0  0
    1.6076   -2.5146   -3.6716 H   0  0  0  0  0  0  0  0  0  0  0  0
    2.5597   -3.8401   -4.2935 H   0  0  0  0  0  0  0  0  0  0  0  0
    4.0627   -3.7955   -2.3455 H   0  0  0  0  0  0  0  0  0  0  0  0
    2.3950   -3.9356   -1.8276 H   0  0  0  0  0  0  0  0  0  0  0  0
    1.7213   -0.9165    1.4537 H   0  0  0  0  0  0  0  0  0  0  0  0
    2.3681   -1.5934   -1.3858 H   0  0  0  0  0  0  0  0  0  0  0  0
  1 19  1  0
  1  2  2  0
  1 20  1  0
  2  3  1  0
  3  7  1  0
  3  4  2  0
  4  5  1  0
  4 21  1  0
  5  6  1  0
  6  7  2  0
  6 22  1  0
  7  8  1  0
  8  9  1  0
  8 19  2  0
  9 10  1  0
  9 37  1  0
 10 11  1  0
 10 23  1  0
 10 24  1  0
 11 12  1  0
 11 25  1  0
 11 26  1  0
 12 13  1  0
 12 27  1  0
 12 28  1  0
 13 18  1  0
 13 14  1  0
 13 38  1  0
 14 15  1  0
 14 29  1  0
 14 30  1  0
 15 16  1  0
 15 31  1  0
 15 32  1  0
 16 17  1  0
 17 18  1  0
 17 33  1  0
 17 34  1  0
 18 35  1  0
 18 36  1  0
M  CHG  1  13   1
M  END
>  <i_m_ct_stereo_status>  (294) 
1

>  <s_m_source_file>  (294) 
/var/tmp/pbs.5076255.sched01/tmp0pz6dnip/90w4u7_w6b.sdf

>  <i_m_source_file_index>  (294) 
32

>  <i_lp_mmshare_version>  (294) 
48012

>  <i_f3d_flags>  (294) 
0

>  <s_epik_input>  (294) 
W2NIXTFzW2NIXWMoYzEyKS9jKFtuSF1bY0hdbjIpPU5cW0NIMl1bQ0gyXVtDSDJdTjNbQ0gyXVtDSDJdT1tDSDJdW0NIMl0z

>  <s_epik_cmdline>  (294) 
J2VwaWtfcHl0aG9uJywgJy1waHQnLCAnMi4wJywgJy1waCcsICc3LjAnLCAnLXRuJywgJzgnLCAnLW1hJywgJzIwMCcsICctaW1hZScsICc8aW5maWxlLm1hZT4nLCAnLW9tYWUnLCAnPG91dGZpbGUubWFlPic=

>  <r_epik_Ionization_Penalty>  (294) 
0.131918

>  <r_epik_Ionization_Penalty_Charging>  (294) 
0.125468

>  <r_epik_Ionization_Penalty_Neutral>  (294) 
0.00645008

>  <r_epik_State_Penalty>  (294) 
0.114933

>  <r_epik_Charging_Adjusted_Penalty>  (294) 
0.240401

>  <i_epik_Tot_Q>  (294) 
1

>  <i_epik_Tot_abs_Q>  (294) 
1

>  <s_lp_Force_Field>  (294) 
OPLS3e

>  <r_lp_Energy>  (294) 
30.4102

>  <b_lp_Chiralities_Consistent>  (294) 
1

>  <s_lp_Variant>  (294) 
76:0-1

>  <s_i_glide_gridfile>  (294) 
pfpi4k_grid

>  <i_i_glide_lignum>  (294) 
32

>  <i_i_glide_rotatable_bonds>  (294) 
5

>  <r_i_docking_score>  (294) 
-4.40097

>  <r_i_glide_ligand_efficiency>  (294) 
-0.23163

>  <r_i_glide_ligand_efficiency_sa>  (294) 
-0.618082

>  <r_i_glide_ligand_efficiency_ln>  (294) 
-1.11574

>  <r_i_glide_gscore>  (294) 
-4.40097

>  <r_i_glide_lipo>  (294) 
-0.465784

>  <r_i_glide_hbond>  (294) 
-0.52

>  <r_i_glide_metal>  (294) 
-0

>  <r_i_glide_rewards>  (294) 
-1.50421

>  <r_i_glide_evdw>  (294) 
-24.9967

>  <r_i_glide_ecoul>  (294) 
-8.17357

>  <r_i_glide_erotb>  (294) 
0.693445

>  <r_i_glide_esite>  (294) 
-0.128552

>  <r_i_glide_emodel>  (294) 
-41.2683

>  <r_i_glide_energy>  (294) 
-33.1703

>  <r_i_glide_einternal>  (294) 
6.17133

>  <r_i_glide_intrahb_reward>  (294) 
-0

>  <i_i_glide_confnum>  (294) 
3

>  <i_i_glide_posenum>  (294) 
9

>  <r_i_glide_eff_state_penalty>  (294) 
0

>  <ligand_id>  (294) 
76

>  <original_smiles>  (294) 
c1nc2cscc2c(=NCCCN2CCOCC2)[nH]1

>  <smiles>  (294) 
[H]c1nc(N([H])C([H])([H])C([H])([H])C([H])([H])[N+]2([H])C([H])([H])C([H])([H])OC([H])([H])C2([H])[H])c2c([H])sc([H])c2n1

$$$$
76:1:0
     RDKit          3D

 37 39  0  0  1  0  0  0  0  0999 V2000
    0.7154    0.3227    2.4498 C   0  0  0  0  0  0  0  0  0  0  0  0
    0.8861   -0.2396    3.6458 N   0  0  0  0  0  0  0  0  0  0  0  0
    0.2293    0.3212    4.6751 C   0  0  0  0  0  0  0  0  0  0  0  0
    0.3039   -0.0813    6.0202 C   0  0  0  0  0  0  0  0  0  0  0  0
   -0.6516    0.9301    7.0914 S   0  0  0  0  0  0  0  0  0  0  0  0
   -1.1666    1.8822    5.7067 C   0  0  0  0  0  0  0  0  0  0  0  0
   -0.6022    1.4239    4.5030 C   0  0  0  0  0  0  0  0  0  0  0  0
   -0.7190    1.9471    3.1955 C   0  0  0  0  0  0  0  0  0  0  0  0
   -1.4720    3.0911    2.9068 N   0  0  0  0  0  0  0  0  0  0  0  0
   -2.8557    3.1417    3.3720 C   0  0  0  0  0  0  0  0  0  0  0  0
   -3.8437    3.6782    2.3282 C   0  0  0  0  0  0  0  0  0  0  0  0
   -3.6763    5.1834    2.0546 C   0  0  0  0  0  0  0  0  0  0  0  0
   -4.5965    5.7277    1.0661 N   0  0  0  0  0  0  0  0  0  0  0  0
   -4.1555    7.0321    0.5792 C   0  0  0  0  0  0  0  0  0  0  0  0
   -5.1298    7.6050   -0.4629 C   0  0  0  0  0  0  0  0  0  0  0  0
   -6.4259    7.6855    0.1158 O   0  0  0  0  0  0  0  0  0  0  0  0
   -6.9133    6.4172    0.5362 C   0  0  0  0  0  0  0  0  0  0  0  0
   -5.9592    5.8393    1.5861 C   0  0  0  0  0  0  0  0  0  0  0  0
   -0.0505    1.3784    2.1749 N   0  0  0  0  0  0  0  0  0  0  0  0
    1.2359   -0.1315    1.6269 H   0  0  0  0  0  0  0  0  0  0  0  0
    0.8765   -0.8852    6.4498 H   0  0  0  0  0  0  0  0  0  0  0  0
   -1.8149    2.7271    5.8746 H   0  0  0  0  0  0  0  0  0  0  0  0
   -3.1906    2.1433    3.6742 H   0  0  0  0  0  0  0  0  0  0  0  0
   -2.9010    3.7546    4.2721 H   0  0  0  0  0  0  0  0  0  0  0  0
   -3.7697    3.1001    1.4027 H   0  0  0  0  0  0  0  0  0  0  0  0
   -4.8411    3.4844    2.7084 H   0  0  0  0  0  0  0  0  0  0  0  0
   -3.7838    5.7640    2.9479 H   0  0  0  0  0  0  0  0  0  0  0  0
   -2.6478    5.3612    1.7464 H   0  0  0  0  0  0  0  0  0  0  0  0
   -4.0604    7.7395    1.4064 H   0  0  0  0  0  0  0  0  0  0  0  0
   -3.1662    6.9418    0.1300 H   0  0  0  0  0  0  0  0  0  0  0  0
   -4.8217    8.6033   -0.7694 H   0  0  0  0  0  0  0  0  0  0  0  0
   -5.1559    6.9848   -1.3611 H   0  0  0  0  0  0  0  0  0  0  0  0
   -7.8941    6.5364    0.9814 H   0  0  0  0  0  0  0  0  0  0  0  0
   -7.0212    5.7462   -0.3191 H   0  0  0  0  0  0  0  0  0  0  0  0
   -6.3362    4.8677    1.8992 H   0  0  0  0  0  0  0  0  0  0  0  0
   -5.9799    6.4770    2.4732 H   0  0  0  0  0  0  0  0  0  0  0  0
   -1.2283    3.5334    2.0216 H   0  0  0  0  0  0  0  0  0  0  0  0
  1 19  1  0
  1  2  2  0
  1 20  1  0
  2  3  1  0
  3  7  1  0
  3  4  2  0
  4  5  1  0
  4 21  1  0
  5  6  1  0
  6  7  2  0
  6 22  1  0
  7  8  1  0
  8  9  1  0
  8 19  2  0
  9 10  1  0
  9 37  1  0
 10 11  1  0
 10 23  1  0
 10 24  1  0
 11 12  1  0
 11 25  1  0
 11 26  1  0
 12 13  1  0
 12 27  1  0
 12 28  1  0
 13 18  1  0
 13 14  1  0
 14 15  1  0
 14 29  1  0
 14 30  1  0
 15 16  1  0
 15 31  1  0
 15 32  1  0
 16 17  1  0
 17 18  1  0
 17 33  1  0
 17 34  1  0
 18 35  1  0
 18 36  1  0
M  END
>  <i_m_ct_stereo_status>  (295) 
1

>  <s_m_source_file>  (295) 
/var/tmp/pbs.5076255.sched01/tmp0pz6dnip/90w4u7_w6b.sdf

>  <i_m_source_file_index>  (295) 
33

>  <i_lp_mmshare_version>  (295) 
48012

>  <i_f3d_flags>  (295) 
0

>  <s_epik_input>  (295) 
W2NIXTFzW2NIXWMoYzEyKS9jKFtuSF1bY0hdbjIpPU5cW0NIMl1bQ0gyXVtDSDJdTjNbQ0gyXVtDSDJdT1tDSDJdW0NIMl0z

>  <s_epik_cmdline>  (295) 
J2VwaWtfcHl0aG9uJywgJy1waHQnLCAnMi4wJywgJy1waCcsICc3LjAnLCAnLXRuJywgJzgnLCAnLW1hJywgJzIwMCcsICctaW1hZScsICc8aW5maWxlLm1hZT4nLCAnLW9tYWUnLCAnPG91dGZpbGUubWFlPic=

>  <r_epik_Ionization_Penalty>  (295) 
0.98956

>  <r_epik_Ionization_Penalty_Charging>  (295) 
0

>  <r_epik_Ionization_Penalty_Neutral>  (295) 
0.98956

>  <r_epik_State_Penalty>  (295) 
1.0282

>  <r_epik_Charging_Adjusted_Penalty>  (295) 
1.0282

>  <i_epik_Tot_Q>  (295) 
0

>  <i_epik_Tot_abs_Q>  (295) 
0

>  <s_lp_Force_Field>  (295) 
OPLS3e

>  <r_lp_Energy>  (295) 
24.116

>  <b_lp_Chiralities_Consistent>  (295) 
1

>  <s_lp_Variant>  (295) 
76:0-2

>  <s_i_glide_gridfile>  (295) 
pfpi4k_grid

>  <i_i_glide_lignum>  (295) 
33

>  <i_i_glide_rotatable_bonds>  (295) 
5

>  <r_i_docking_score>  (295) 
-3.61554

>  <r_i_glide_ligand_efficiency>  (295) 
-0.190291

>  <r_i_glide_ligand_efficiency_sa>  (295) 
-0.507774

>  <r_i_glide_ligand_efficiency_ln>  (295) 
-0.916616

>  <r_i_glide_gscore>  (295) 
-3.61554

>  <r_i_glide_lipo>  (295) 
-1.14777

>  <r_i_glide_hbond>  (295) 
-0.16

>  <r_i_glide_metal>  (295) 
-0

>  <r_i_glide_rewards>  (295) 
-1.51108

>  <r_i_glide_evdw>  (295) 
-23.716

>  <r_i_glide_ecoul>  (295) 
-1.25112

>  <r_i_glide_erotb>  (295) 
0.697809

>  <r_i_glide_esite>  (295) 
-0.12102

>  <r_i_glide_emodel>  (295) 
-26.3174

>  <r_i_glide_energy>  (295) 
-24.9671

>  <r_i_glide_einternal>  (295) 
8.03424

>  <r_i_glide_intrahb_reward>  (295) 
-0

>  <i_i_glide_confnum>  (295) 
3

>  <i_i_glide_posenum>  (295) 
37

>  <r_i_glide_eff_state_penalty>  (295) 
0

>  <ligand_id>  (295) 
76

>  <original_smiles>  (295) 
c1nc2cscc2c(=NCCCN2CCOCC2)[nH]1

>  <smiles>  (295) 
[H]c1nc(N([H])C([H])([H])C([H])([H])C([H])([H])N2C([H])([H])C([H])([H])OC([H])([H])C2([H])[H])c2c([H])sc([H])c2n1

$$$$
76:1:1
     RDKit          3D

 37 39  0  0  1  0  0  0  0  0999 V2000
   -2.0759    6.5266    1.6969 C   0  0  0  0  0  0  0  0  0  0  0  0
   -2.8303    7.4056    1.0521 N   0  0  0  0  0  0  0  0  0  0  0  0
   -4.1344    7.0959    0.9921 C   0  0  0  0  0  0  0  0  0  0  0  0
   -5.1116    7.9139    0.4290 C   0  0  0  0  0  0  0  0  0  0  0  0
   -6.6652    7.1408    0.4763 S   0  0  0  0  0  0  0  0  0  0  0  0
   -6.0031    5.7579    1.2874 C   0  0  0  0  0  0  0  0  0  0  0  0
   -4.6328    5.8982    1.4732 C   0  0  0  0  0  0  0  0  0  0  0  0
   -3.7423    5.0272    2.0907 C   0  0  0  0  0  0  0  0  0  0  0  0
   -4.1035    3.7347    2.4703 N   0  0  0  0  0  0  0  0  0  0  0  0
   -3.2394    2.9686    3.3723 C   0  0  0  0  0  0  0  0  0  0  0  0
   -2.0864    2.2987    2.6438 C   0  0  0  0  0  0  0  0  0  0  0  0
   -1.2209    1.4117    3.5475 C   0  0  0  0  0  0  0  0  0  0  0  0
   -0.1234    0.7647    2.8285 N   0  0  0  0  0  0  0  0  0  0  0  0
    0.4032   -0.3847    3.5515 C   0  0  0  0  0  0  0  0  0  0  0  0
    1.5615   -1.0556    2.7911 C   0  0  0  0  0  0  0  0  0  0  0  0
    2.5926   -0.1015    2.5616 O   0  0  0  0  0  0  0  0  0  0  0  0
    2.1328    1.0170    1.8139 C   0  0  0  0  0  0  0  0  0  0  0  0
    0.9687    1.6969    2.5484 C   0  0  0  0  0  0  0  0  0  0  0  0
   -2.4874    5.4321    2.3642 N   0  0  0  0  0  0  0  0  0  0  0  0
   -1.0171    6.7244    1.7376 H   0  0  0  0  0  0  0  0  0  0  0  0
   -5.0178    8.8919   -0.0063 H   0  0  0  0  0  0  0  0  0  0  0  0
   -6.6521    4.9487    1.5870 H   0  0  0  0  0  0  0  0  0  0  0  0
   -2.8904    3.5879    4.2112 H   0  0  0  0  0  0  0  0  0  0  0  0
   -3.8353    2.1872    3.8023 H   0  0  0  0  0  0  0  0  0  0  0  0
   -2.4950    1.7138    1.8133 H   0  0  0  0  0  0  0  0  0  0  0  0
   -1.4670    3.0564    2.1914 H   0  0  0  0  0  0  0  0  0  0  0  0
   -0.8176    2.0004    4.3736 H   0  0  0  0  0  0  0  0  0  0  0  0
   -1.8649    0.6556    3.9917 H   0  0  0  0  0  0  0  0  0  0  0  0
    0.7420   -0.0803    4.5434 H   0  0  0  0  0  0  0  0  0  0  0  0
   -0.3899   -1.1158    3.6925 H   0  0  0  0  0  0  0  0  0  0  0  0
    1.9716   -1.8750    3.3773 H   0  0  0  0  0  0  0  0  0  0  0  0
    1.2218   -1.4738    1.8414 H   0  0  0  0  0  0  0  0  0  0  0  0
    2.9569    1.7194    1.6991 H   0  0  0  0  0  0  0  0  0  0  0  0
    1.8201    0.6924    0.8224 H   0  0  0  0  0  0  0  0  0  0  0  0
    0.6186    2.5381    1.9457 H   0  0  0  0  0  0  0  0  0  0  0  0
    1.3422    2.1228    3.4773 H   0  0  0  0  0  0  0  0  0  0  0  0
   -4.9858    3.3276    2.1611 H   0  0  0  0  0  0  0  0  0  0  0  0
  1 19  1  0
  1  2  2  0
  1 20  1  0
  2  3  1  0
  3  7  1  0
  3  4  2  0
  4  5  1  0
  4 21  1  0
  5  6  1  0
  6  7  2  0
  6 22  1  0
  7  8  1  0
  8  9  1  0
  8 19  2  0
  9 10  1  0
  9 37  1  0
 10 11  1  0
 10 23  1  0
 10 24  1  0
 11 12  1  0
 11 25  1  0
 11 26  1  0
 12 13  1  0
 12 27  1  0
 12 28  1  0
 13 18  1  0
 13 14  1  0
 14 15  1  0
 14 29  1  0
 14 30  1  0
 15 16  1  0
 15 31  1  0
 15 32  1  0
 16 17  1  0
 17 18  1  0
 17 33  1  0
 17 34  1  0
 18 35  1  0
 18 36  1  0
M  END
>  <i_m_ct_stereo_status>  (296) 
1

>  <s_m_source_file>  (296) 
/var/tmp/pbs.5076255.sched01/tmp0pz6dnip/90w4u7_w6b.sdf

>  <i_m_source_file_index>  (296) 
33

>  <i_lp_mmshare_version>  (296) 
48012

>  <i_f3d_flags>  (296) 
0

>  <s_epik_input>  (296) 
W2NIXTFzW2NIXWMoYzEyKS9jKFtuSF1bY0hdbjIpPU5cW0NIMl1bQ0gyXVtDSDJdTjNbQ0gyXVtDSDJdT1tDSDJdW0NIMl0z

>  <s_epik_cmdline>  (296) 
J2VwaWtfcHl0aG9uJywgJy1waHQnLCAnMi4wJywgJy1waCcsICc3LjAnLCAnLXRuJywgJzgnLCAnLW1hJywgJzIwMCcsICctaW1hZScsICc8aW5maWxlLm1hZT4nLCAnLW9tYWUnLCAnPG91dGZpbGUubWFlPic=

>  <r_epik_Ionization_Penalty>  (296) 
0.98956

>  <r_epik_Ionization_Penalty_Charging>  (296) 
0

>  <r_epik_Ionization_Penalty_Neutral>  (296) 
0.98956

>  <r_epik_State_Penalty>  (296) 
1.0282

>  <r_epik_Charging_Adjusted_Penalty>  (296) 
1.0282

>  <i_epik_Tot_Q>  (296) 
0

>  <i_epik_Tot_abs_Q>  (296) 
0

>  <s_lp_Force_Field>  (296) 
OPLS3e

>  <r_lp_Energy>  (296) 
24.116

>  <b_lp_Chiralities_Consistent>  (296) 
1

>  <s_lp_Variant>  (296) 
76:0-2

>  <s_i_glide_gridfile>  (296) 
pfpi4k_grid

>  <i_i_glide_lignum>  (296) 
33

>  <i_i_glide_rotatable_bonds>  (296) 
5

>  <r_i_docking_score>  (296) 
-3.37513

>  <r_i_glide_ligand_efficiency>  (296) 
-0.177638

>  <r_i_glide_ligand_efficiency_sa>  (296) 
-0.474011

>  <r_i_glide_ligand_efficiency_ln>  (296) 
-0.855668

>  <r_i_glide_gscore>  (296) 
-3.37513

>  <r_i_glide_lipo>  (296) 
-0.913646

>  <r_i_glide_hbond>  (296) 
-0.16

>  <r_i_glide_metal>  (296) 
-0

>  <r_i_glide_rewards>  (296) 
-1.51108

>  <r_i_glide_evdw>  (296) 
-10.9904

>  <r_i_glide_ecoul>  (296) 
-5.59126

>  <r_i_glide_erotb>  (296) 
0.697809

>  <r_i_glide_esite>  (296) 
-0.1

>  <r_i_glide_emodel>  (296) 
-19.8614

>  <r_i_glide_energy>  (296) 
-16.5817

>  <r_i_glide_einternal>  (296) 
2.02617

>  <r_i_glide_intrahb_reward>  (296) 
-0

>  <i_i_glide_confnum>  (296) 
3

>  <i_i_glide_posenum>  (296) 
14

>  <r_i_glide_eff_state_penalty>  (296) 
0

>  <ligand_id>  (296) 
76

>  <original_smiles>  (296) 
c1nc2cscc2c(=NCCCN2CCOCC2)[nH]1

>  <smiles>  (296) 
[H]c1nc(N([H])C([H])([H])C([H])([H])C([H])([H])N2C([H])([H])C([H])([H])OC([H])([H])C2([H])[H])c2c([H])sc([H])c2n1

$$$$
76:1:2
     RDKit          3D

 37 39  0  0  1  0  0  0  0  0999 V2000
    4.5888   -1.6600   -0.5505 C   0  0  0  0  0  0  0  0  0  0  0  0
    4.2587   -2.9426   -0.4089 N   0  0  0  0  0  0  0  0  0  0  0  0
    3.5395   -3.2656    0.6813 C   0  0  0  0  0  0  0  0  0  0  0  0
    3.1380   -4.5705    1.0253 C   0  0  0  0  0  0  0  0  0  0  0  0
    2.2761   -4.6184    2.5566 S   0  0  0  0  0  0  0  0  0  0  0  0
    2.4809   -2.8694    2.7157 C   0  0  0  0  0  0  0  0  0  0  0  0
    3.1629   -2.3137    1.6190 C   0  0  0  0  0  0  0  0  0  0  0  0
    3.5395   -0.9665    1.3674 C   0  0  0  0  0  0  0  0  0  0  0  0
    3.2433    0.0974    2.2235 N   0  0  0  0  0  0  0  0  0  0  0  0
    1.8693    0.2715    2.7049 C   0  0  0  0  0  0  0  0  0  0  0  0
    1.0088    1.1754    1.8145 C   0  0  0  0  0  0  0  0  0  0  0  0
   -0.4328    1.2363    2.3675 C   0  0  0  0  0  0  0  0  0  0  0  0
   -0.5888    2.0365    3.5794 N   0  0  0  0  0  0  0  0  0  0  0  0
   -1.9142    1.8882    4.1787 C   0  0  0  0  0  0  0  0  0  0  0  0
   -2.0597    2.7683    5.4372 C   0  0  0  0  0  0  0  0  0  0  0  0
   -1.7952    4.1316    5.1163 O   0  0  0  0  0  0  0  0  0  0  0  0
   -0.4990    4.3137    4.5616 C   0  0  0  0  0  0  0  0  0  0  0  0
   -0.3566    3.4512    3.3046 C   0  0  0  0  0  0  0  0  0  0  0  0
    4.2801   -0.6721    0.2748 N   0  0  0  0  0  0  0  0  0  0  0  0
    5.1721   -1.4099   -1.4248 H   0  0  0  0  0  0  0  0  0  0  0  0
    3.3054   -5.5098    0.5127 H   0  0  0  0  0  0  0  0  0  0  0  0
    2.1239   -2.4001    3.6272 H   0  0  0  0  0  0  0  0  0  0  0  0
    1.3225   -0.6749    2.7635 H   0  0  0  0  0  0  0  0  0  0  0  0
    1.9478    0.6927    3.7119 H   0  0  0  0  0  0  0  0  0  0  0  0
    1.4649    2.1614    1.6603 H   0  0  0  0  0  0  0  0  0  0  0  0
    0.9613    0.7032    0.8369 H   0  0  0  0  0  0  0  0  0  0  0  0
   -1.0988    1.6151    1.5974 H   0  0  0  0  0  0  0  0  0  0  0  0
   -0.7810    0.2187    2.5563 H   0  0  0  0  0  0  0  0  0  0  0  0
   -2.6866    2.1568    3.4562 H   0  0  0  0  0  0  0  0  0  0  0  0
   -2.0936    0.8458    4.4464 H   0  0  0  0  0  0  0  0  0  0  0  0
   -3.0653    2.7003    5.8484 H   0  0  0  0  0  0  0  0  0  0  0  0
   -1.3706    2.4366    6.2159 H   0  0  0  0  0  0  0  0  0  0  0  0
   -0.3541    5.3626    4.3031 H   0  0  0  0  0  0  0  0  0  0  0  0
    0.2670    4.0478    5.2940 H   0  0  0  0  0  0  0  0  0  0  0  0
    0.6504    3.6170    2.9255 H   0  0  0  0  0  0  0  0  0  0  0  0
   -1.0542    3.7921    2.5366 H   0  0  0  0  0  0  0  0  0  0  0  0
    3.7581    0.9539    2.0417 H   0  0  0  0  0  0  0  0  0  0  0  0
  1 19  1  0
  1  2  2  0
  1 20  1  0
  2  3  1  0
  3  7  1  0
  3  4  2  0
  4  5  1  0
  4 21  1  0
  5  6  1  0
  6  7  2  0
  6 22  1  0
  7  8  1  0
  8  9  1  0
  8 19  2  0
  9 10  1  0
  9 37  1  0
 10 11  1  0
 10 23  1  0
 10 24  1  0
 11 12  1  0
 11 25  1  0
 11 26  1  0
 12 13  1  0
 12 27  1  0
 12 28  1  0
 13 18  1  0
 13 14  1  0
 14 15  1  0
 14 29  1  0
 14 30  1  0
 15 16  1  0
 15 31  1  0
 15 32  1  0
 16 17  1  0
 17 18  1  0
 17 33  1  0
 17 34  1  0
 18 35  1  0
 18 36  1  0
M  END
>  <i_m_ct_stereo_status>  (297) 
1

>  <s_m_source_file>  (297) 
/var/tmp/pbs.5076255.sched01/tmp0pz6dnip/90w4u7_w6b.sdf

>  <i_m_source_file_index>  (297) 
33

>  <i_lp_mmshare_version>  (297) 
48012

>  <i_f3d_flags>  (297) 
0

>  <s_epik_input>  (297) 
W2NIXTFzW2NIXWMoYzEyKS9jKFtuSF1bY0hdbjIpPU5cW0NIMl1bQ0gyXVtDSDJdTjNbQ0gyXVtDSDJdT1tDSDJdW0NIMl0z

>  <s_epik_cmdline>  (297) 
J2VwaWtfcHl0aG9uJywgJy1waHQnLCAnMi4wJywgJy1waCcsICc3LjAnLCAnLXRuJywgJzgnLCAnLW1hJywgJzIwMCcsICctaW1hZScsICc8aW5maWxlLm1hZT4nLCAnLW9tYWUnLCAnPG91dGZpbGUubWFlPic=

>  <r_epik_Ionization_Penalty>  (297) 
0.98956

>  <r_epik_Ionization_Penalty_Charging>  (297) 
0

>  <r_epik_Ionization_Penalty_Neutral>  (297) 
0.98956

>  <r_epik_State_Penalty>  (297) 
1.0282

>  <r_epik_Charging_Adjusted_Penalty>  (297) 
1.0282

>  <i_epik_Tot_Q>  (297) 
0

>  <i_epik_Tot_abs_Q>  (297) 
0

>  <s_lp_Force_Field>  (297) 
OPLS3e

>  <r_lp_Energy>  (297) 
24.116

>  <b_lp_Chiralities_Consistent>  (297) 
1

>  <s_lp_Variant>  (297) 
76:0-2

>  <s_i_glide_gridfile>  (297) 
pfpi4k_grid

>  <i_i_glide_lignum>  (297) 
33

>  <i_i_glide_rotatable_bonds>  (297) 
5

>  <r_i_docking_score>  (297) 
-2.31926

>  <r_i_glide_ligand_efficiency>  (297) 
-0.122066

>  <r_i_glide_ligand_efficiency_sa>  (297) 
-0.325722

>  <r_i_glide_ligand_efficiency_ln>  (297) 
-0.587983

>  <r_i_glide_gscore>  (297) 
-2.31926

>  <r_i_glide_lipo>  (297) 
-0.0339622

>  <r_i_glide_hbond>  (297) 
-0.0163023

>  <r_i_glide_metal>  (297) 
-0

>  <r_i_glide_rewards>  (297) 
-1.51108

>  <r_i_glide_evdw>  (297) 
-21.3202

>  <r_i_glide_ecoul>  (297) 
-2.39534

>  <r_i_glide_erotb>  (297) 
0.697809

>  <r_i_glide_esite>  (297) 
-0.0304081

>  <r_i_glide_emodel>  (297) 
-23.0054

>  <r_i_glide_energy>  (297) 
-23.7156

>  <r_i_glide_einternal>  (297) 
7.96324

>  <r_i_glide_intrahb_reward>  (297) 
-0

>  <i_i_glide_confnum>  (297) 
3

>  <i_i_glide_posenum>  (297) 
38

>  <r_i_glide_eff_state_penalty>  (297) 
0

>  <ligand_id>  (297) 
76

>  <original_smiles>  (297) 
c1nc2cscc2c(=NCCCN2CCOCC2)[nH]1

>  <smiles>  (297) 
[H]c1nc(N([H])C([H])([H])C([H])([H])C([H])([H])N2C([H])([H])C([H])([H])OC([H])([H])C2([H])[H])c2c([H])sc([H])c2n1

$$$$
78:0:0
     RDKit          3D

 44 48  0  0  1  0  0  0  0  0999 V2000
    3.7547   -0.5951   -2.9376 C   0  0  0  0  0  0  0  0  0  0  0  0
    3.7563   -1.5319   -1.6964 C   0  0  0  0  0  0  0  0  0  0  0  0
    3.8300   -3.0589   -2.0087 C   0  0  1  0  0  0  0  0  0  0  0  0
    2.5568   -3.4528   -2.4974 O   0  0  0  0  0  0  0  0  0  0  0  0
    4.8898   -3.3678   -3.0967 C   0  0  0  0  0  0  0  0  0  0  0  0
    4.5871   -3.6076   -4.2670 O   0  0  0  0  0  0  0  0  0  0  0  0
    6.1678   -3.3068   -2.6716 O   0  0  0  0  0  0  0  0  0  0  0  0
    6.5212   -3.2372   -1.2934 C   0  0  0  0  0  0  0  0  0  0  0  0
    5.5059   -3.9084   -0.4010 C   0  0  0  0  0  0  0  0  0  0  0  0
    4.1917   -3.8610   -0.7430 C   0  0  0  0  0  0  0  0  0  0  0  0
    3.2112   -4.5680    0.0820 C   0  0  0  0  0  0  0  0  0  0  0  0
    3.6556   -5.2471    1.1428 C   0  0  0  0  0  0  0  0  0  0  0  0
    5.0219   -5.2685    1.4855 N   0  0  0  0  0  0  0  0  0  0  0  0
    5.9855   -4.6256    0.7821 C   0  0  0  0  0  0  0  0  0  0  0  0
    7.1714   -4.6355    1.1133 O   0  0  0  0  0  0  0  0  0  0  0  0
    5.2689   -6.0590    2.6956 C   0  0  0  0  0  0  0  0  0  0  0  0
    3.8945   -6.5321    3.0399 C   0  0  0  0  0  0  0  0  0  0  0  0
    3.6066   -7.3062    4.0972 N   0  0  0  0  0  0  0  0  0  0  0  0
    2.3050   -7.6328    4.2478 C   0  0  0  0  0  0  0  0  0  0  0  0
    1.9262   -8.4415    5.3470 C   0  0  0  0  0  0  0  0  0  0  0  0
    0.5847   -8.7981    5.5572 C   0  0  0  0  0  0  0  0  0  0  0  0
    0.1981   -9.6834    6.7211 C   0  0  0  0  0  0  0  0  0  0  0  0
   -0.3859   -8.3749    4.6503 C   0  0  0  0  0  0  0  0  0  0  0  0
   -0.0214   -7.5848    3.5534 C   0  0  0  0  0  0  0  0  0  0  0  0
   -1.2641   -7.1216    2.4738 Cl  0  0  0  0  0  0  0  0  0  0  0  0
    1.3094   -7.1792    3.3243 C   0  0  0  0  0  0  0  0  0  0  0  0
    1.6497   -6.3762    2.2554 N   0  0  0  0  0  0  0  0  0  0  0  0
    2.9551   -6.0670    2.1416 C   0  0  0  0  0  0  0  0  0  0  0  0
    3.8506    0.4661   -2.7135 H   0  0  0  0  0  0  0  0  0  0  0  0
    2.8491   -0.7534   -3.5234 H   0  0  0  0  0  0  0  0  0  0  0  0
    4.6126   -0.7581   -3.5821 H   0  0  0  0  0  0  0  0  0  0  0  0
    4.5712   -1.2309   -1.0462 H   0  0  0  0  0  0  0  0  0  0  0  0
    2.8833   -1.3556   -1.0676 H   0  0  0  0  0  0  0  0  0  0  0  0
    2.5932   -4.3816   -2.7125 H   0  0  0  0  0  0  0  0  0  0  0  0
    7.4951   -3.7032   -1.1784 H   0  0  0  0  0  0  0  0  0  0  0  0
    6.6432   -2.2030   -0.9930 H   0  0  0  0  0  0  0  0  0  0  0  0
    2.1465   -4.6074   -0.1259 H   0  0  0  0  0  0  0  0  0  0  0  0
    5.9217   -6.9160    2.4949 H   0  0  0  0  0  0  0  0  0  0  0  0
    5.6631   -5.4373    3.5070 H   0  0  0  0  0  0  0  0  0  0  0  0
    2.6776   -8.7975    6.0220 H   0  0  0  0  0  0  0  0  0  0  0  0
   -0.8756   -9.8807    6.7504 H   0  0  0  0  0  0  0  0  0  0  0  0
    0.4676   -9.2377    7.6838 H   0  0  0  0  0  0  0  0  0  0  0  0
    0.6862  -10.6626    6.5957 H   0  0  0  0  0  0  0  0  0  0  0  0
   -1.4119   -8.6815    4.7868 H   0  0  0  0  0  0  0  0  0  0  0  0
  1  2  1  0
  1 29  1  0
  1 30  1  0
  1 31  1  0
  2  3  1  0
  2 32  1  0
  2 33  1  0
  3 10  1  0
  3  4  1  6
  3  5  1  0
  4 34  1  0
  5  6  2  0
  5  7  1  0
  7  8  1  0
  8  9  1  0
  8 35  1  0
  8 36  1  0
  9 14  1  0
  9 10  2  0
 10 11  1  0
 11 12  2  0
 11 37  1  0
 12 28  1  0
 12 13  1  0
 13 14  1  0
 13 16  1  0
 14 15  2  0
 16 17  1  0
 16 38  1  0
 16 39  1  0
 17 28  2  0
 17 18  1  0
 18 19  2  0
 19 26  1  0
 19 20  1  0
 20 21  2  0
 20 40  1  0
 21 22  1  0
 21 23  1  0
 22 41  1  0
 22 42  1  0
 22 43  1  0
 23 24  2  0
 23 44  1  0
 24 25  1  0
 24 26  1  0
 26 27  2  0
 27 28  1  0
M  END
>  <i_m_ct_stereo_status>  (298) 
1

>  <s_m_source_file>  (298) 
/var/tmp/pbs.5076255.sched01/tmp0pz6dnip/90w4u7_w6b.sdf

>  <i_m_source_file_index>  (298) 
35

>  <i_lp_mmshare_version>  (298) 
48012

>  <i_f3d_flags>  (298) 
0

>  <s_epik_input>  (298) 
W0NIMl0xT0MoPU8pW0NAXShbT0hdKShbQ0gyXVtDSDNdKWMoYzEyKVtjSF1jM24oYzI9TylbQ0gyXWM0YzNuYzVjKG40KVtjSF1jKFtDSDNdKVtjSF1jNUNs

>  <s_epik_cmdline>  (298) 
J2VwaWtfcHl0aG9uJywgJy1waHQnLCAnMi4wJywgJy1waCcsICc3LjAnLCAnLXRuJywgJzgnLCAnLW1hJywgJzIwMCcsICctaW1hZScsICc8aW5maWxlLm1hZT4nLCAnLW9tYWUnLCAnPG91dGZpbGUubWFlPic=

>  <r_lp_tautomer_probability>  (298) 
1

>  <r_epik_Ionization_Penalty>  (298) 
1.65748e-05

>  <r_epik_Ionization_Penalty_Charging>  (298) 
1.33823e-07

>  <r_epik_Ionization_Penalty_Neutral>  (298) 
1.6441e-05

>  <r_epik_State_Penalty>  (298) 
-0

>  <r_epik_Charging_Adjusted_Penalty>  (298) 
1.33823e-07

>  <i_epik_Tot_Q>  (298) 
0

>  <i_epik_Tot_abs_Q>  (298) 
0

>  <s_epik_Chemistry_Notes>  (298) 
This compound has an ester and may undergo hydrolysis at high or low pH.

>  <s_lp_Force_Field>  (298) 
OPLS3e

>  <r_lp_Energy>  (298) 
49.799

>  <b_lp_Chiralities_Consistent>  (298) 
1

>  <s_lp_Variant>  (298) 
78:0-1

>  <s_i_glide_gridfile>  (298) 
pfpi4k_grid

>  <i_i_glide_lignum>  (298) 
35

>  <i_i_glide_rotatable_bonds>  (298) 
2

>  <r_i_docking_score>  (298) 
-4.08671

>  <r_i_glide_ligand_efficiency>  (298) 
-0.145954

>  <r_i_glide_ligand_efficiency_sa>  (298) 
-0.443202

>  <r_i_glide_ligand_efficiency_ln>  (298) 
-0.943332

>  <r_i_glide_gscore>  (298) 
-4.08671

>  <r_i_glide_lipo>  (298) 
-0.362916

>  <r_i_glide_hbond>  (298) 
-0.0641674

>  <r_i_glide_metal>  (298) 
-0

>  <r_i_glide_rewards>  (298) 
-1.02797

>  <r_i_glide_evdw>  (298) 
-29.5408

>  <r_i_glide_ecoul>  (298) 
-7.6974

>  <r_i_glide_erotb>  (298) 
0

>  <r_i_glide_esite>  (298) 
0

>  <r_i_glide_emodel>  (298) 
-45.6633

>  <r_i_glide_energy>  (298) 
-37.2382

>  <r_i_glide_einternal>  (298) 
2.50462

>  <r_i_glide_intrahb_reward>  (298) 
-0

>  <i_i_glide_confnum>  (298) 
2

>  <i_i_glide_posenum>  (298) 
30

>  <r_i_glide_eff_state_penalty>  (298) 
0

>  <ligand_id>  (298) 
78

>  <original_smiles>  (298) 
CCC1(O)C(=O)OCc2c1cc1n(c2=O)Cc2nc3cc(C)cc(Cl)c3nc2-1

>  <smiles>  (298) 
[H]OC1(C([H])([H])C([H])([H])[H])C(=O)OC([H])([H])c2c1c([H])c1n(c2=O)C([H])([H])c2nc3c([H])c(C([H])([H])[H])c([H])c(Cl)c3nc2-1

$$$$
78:0:1
     RDKit          3D

 44 48  0  0  1  0  0  0  0  0999 V2000
    2.1714   -2.6147   -3.9435 C   0  0  0  0  0  0  0  0  0  0  0  0
    2.6151   -3.0221   -2.5316 C   0  0  0  0  0  0  0  0  0  0  0  0
    4.1441   -3.2023   -2.3026 C   0  0  1  0  0  0  0  0  0  0  0  0
    4.6221   -4.0164   -3.3649 O   0  0  0  0  0  0  0  0  0  0  0  0
    4.8967   -1.8409   -2.3449 C   0  0  0  0  0  0  0  0  0  0  0  0
    4.3933   -0.8134   -2.7989 O   0  0  0  0  0  0  0  0  0  0  0  0
    6.1745   -1.8556   -1.8873 O   0  0  0  0  0  0  0  0  0  0  0  0
    6.7725   -2.9929   -1.3045 C   0  0  0  0  0  0  0  0  0  0  0  0
    5.7663   -3.8200   -0.5336 C   0  0  0  0  0  0  0  0  0  0  0  0
    4.4850   -3.8997   -0.9649 C   0  0  0  0  0  0  0  0  0  0  0  0
    3.5144   -4.6670   -0.1773 C   0  0  0  0  0  0  0  0  0  0  0  0
    3.9436   -5.2721    0.9479 C   0  0  0  0  0  0  0  0  0  0  0  0
    5.2788   -5.1655    1.3636 N   0  0  0  0  0  0  0  0  0  0  0  0
    6.2282   -4.4813    0.6960 C   0  0  0  0  0  0  0  0  0  0  0  0
    7.3922   -4.4231    1.0982 O   0  0  0  0  0  0  0  0  0  0  0  0
    5.5140   -5.8922    2.6152 C   0  0  0  0  0  0  0  0  0  0  0  0
    4.1585   -6.4607    2.9097 C   0  0  0  0  0  0  0  0  0  0  0  0
    3.8611   -7.2094    3.9799 N   0  0  0  0  0  0  0  0  0  0  0  0
    2.5764   -7.6285    4.0670 C   0  0  0  0  0  0  0  0  0  0  0  0
    2.1820   -8.4191    5.1687 C   0  0  0  0  0  0  0  0  0  0  0  0
    0.8612   -8.8745    5.3150 C   0  0  0  0  0  0  0  0  0  0  0  0
    0.4766   -9.7477    6.4931 C   0  0  0  0  0  0  0  0  0  0  0  0
   -0.0896   -8.5412    4.3364 C   0  0  0  0  0  0  0  0  0  0  0  0
    0.2845   -7.7544    3.2289 C   0  0  0  0  0  0  0  0  0  0  0  0
   -0.9384   -7.3893    2.0863 Cl  0  0  0  0  0  0  0  0  0  0  0  0
    1.6055   -7.2750    3.0622 C   0  0  0  0  0  0  0  0  0  0  0  0
    1.9521   -6.4966    1.9851 N   0  0  0  0  0  0  0  0  0  0  0  0
    3.2432   -6.1025    1.9310 C   0  0  0  0  0  0  0  0  0  0  0  0
    1.0870   -2.5405   -3.9805 H   0  0  0  0  0  0  0  0  0  0  0  0
    2.4384   -3.3865   -4.6647 H   0  0  0  0  0  0  0  0  0  0  0  0
    2.5944   -1.6722   -4.2870 H   0  0  0  0  0  0  0  0  0  0  0  0
    2.2408   -2.3021   -1.8082 H   0  0  0  0  0  0  0  0  0  0  0  0
    2.0665   -3.9468   -2.3571 H   0  0  0  0  0  0  0  0  0  0  0  0
    4.1767   -4.8556   -3.3074 H   0  0  0  0  0  0  0  0  0  0  0  0
    7.2530   -3.5778   -2.0804 H   0  0  0  0  0  0  0  0  0  0  0  0
    7.5443   -2.6235   -0.6344 H   0  0  0  0  0  0  0  0  0  0  0  0
    2.4819   -4.8105   -0.4575 H   0  0  0  0  0  0  0  0  0  0  0  0
    6.2533   -6.6851    2.4734 H   0  0  0  0  0  0  0  0  0  0  0  0
    5.8320   -5.2017    3.4028 H   0  0  0  0  0  0  0  0  0  0  0  0
    2.9135   -8.6932    5.9120 H   0  0  0  0  0  0  0  0  0  0  0  0
   -0.5738  -10.0337    6.4686 H   0  0  0  0  0  0  0  0  0  0  0  0
    0.6514   -9.2214    7.4338 H   0  0  0  0  0  0  0  0  0  0  0  0
    1.0701  -10.6585    6.4689 H   0  0  0  0  0  0  0  0  0  0  0  0
   -1.1015   -8.9113    4.4336 H   0  0  0  0  0  0  0  0  0  0  0  0
  1  2  1  0
  1 29  1  0
  1 30  1  0
  1 31  1  0
  2  3  1  0
  2 32  1  0
  2 33  1  0
  3 10  1  0
  3  4  1  6
  3  5  1  0
  4 34  1  0
  5  6  2  0
  5  7  1  0
  7  8  1  0
  8  9  1  0
  8 35  1  0
  8 36  1  0
  9 14  1  0
  9 10  2  0
 10 11  1  0
 11 12  2  0
 11 37  1  0
 12 28  1  0
 12 13  1  0
 13 14  1  0
 13 16  1  0
 14 15  2  0
 16 17  1  0
 16 38  1  0
 16 39  1  0
 17 28  2  0
 17 18  1  0
 18 19  2  0
 19 26  1  0
 19 20  1  0
 20 21  2  0
 20 40  1  0
 21 22  1  0
 21 23  1  0
 22 41  1  0
 22 42  1  0
 22 43  1  0
 23 24  2  0
 23 44  1  0
 24 25  1  0
 24 26  1  0
 26 27  2  0
 27 28  1  0
M  END
>  <i_m_ct_stereo_status>  (299) 
1

>  <s_m_source_file>  (299) 
/var/tmp/pbs.5076255.sched01/tmp0pz6dnip/90w4u7_w6b.sdf

>  <i_m_source_file_index>  (299) 
35

>  <i_lp_mmshare_version>  (299) 
48012

>  <i_f3d_flags>  (299) 
0

>  <s_epik_input>  (299) 
W0NIMl0xT0MoPU8pW0NAXShbT0hdKShbQ0gyXVtDSDNdKWMoYzEyKVtjSF1jM24oYzI9TylbQ0gyXWM0YzNuYzVjKG40KVtjSF1jKFtDSDNdKVtjSF1jNUNs

>  <s_epik_cmdline>  (299) 
J2VwaWtfcHl0aG9uJywgJy1waHQnLCAnMi4wJywgJy1waCcsICc3LjAnLCAnLXRuJywgJzgnLCAnLW1hJywgJzIwMCcsICctaW1hZScsICc8aW5maWxlLm1hZT4nLCAnLW9tYWUnLCAnPG91dGZpbGUubWFlPic=

>  <r_lp_tautomer_probability>  (299) 
1

>  <r_epik_Ionization_Penalty>  (299) 
1.65748e-05

>  <r_epik_Ionization_Penalty_Charging>  (299) 
1.33823e-07

>  <r_epik_Ionization_Penalty_Neutral>  (299) 
1.6441e-05

>  <r_epik_State_Penalty>  (299) 
-0

>  <r_epik_Charging_Adjusted_Penalty>  (299) 
1.33823e-07

>  <i_epik_Tot_Q>  (299) 
0

>  <i_epik_Tot_abs_Q>  (299) 
0

>  <s_epik_Chemistry_Notes>  (299) 
This compound has an ester and may undergo hydrolysis at high or low pH.

>  <s_lp_Force_Field>  (299) 
OPLS3e

>  <r_lp_Energy>  (299) 
49.799

>  <b_lp_Chiralities_Consistent>  (299) 
1

>  <s_lp_Variant>  (299) 
78:0-1

>  <s_i_glide_gridfile>  (299) 
pfpi4k_grid

>  <i_i_glide_lignum>  (299) 
35

>  <i_i_glide_rotatable_bonds>  (299) 
2

>  <r_i_docking_score>  (299) 
-3.94163

>  <r_i_glide_ligand_efficiency>  (299) 
-0.140772

>  <r_i_glide_ligand_efficiency_sa>  (299) 
-0.427468

>  <r_i_glide_ligand_efficiency_ln>  (299) 
-0.909843

>  <r_i_glide_gscore>  (299) 
-3.94163

>  <r_i_glide_lipo>  (299) 
-0.408932

>  <r_i_glide_hbond>  (299) 
-0.130135

>  <r_i_glide_metal>  (299) 
-0

>  <r_i_glide_rewards>  (299) 
-0.766327

>  <r_i_glide_evdw>  (299) 
-30.0253

>  <r_i_glide_ecoul>  (299) 
-7.517

>  <r_i_glide_erotb>  (299) 
0

>  <r_i_glide_esite>  (299) 
-0.00741813

>  <r_i_glide_emodel>  (299) 
-45.5521

>  <r_i_glide_energy>  (299) 
-37.5423

>  <r_i_glide_einternal>  (299) 
2.92188

>  <r_i_glide_intrahb_reward>  (299) 
-0

>  <i_i_glide_confnum>  (299) 
3

>  <i_i_glide_posenum>  (299) 
7

>  <r_i_glide_eff_state_penalty>  (299) 
0

>  <ligand_id>  (299) 
78

>  <original_smiles>  (299) 
CCC1(O)C(=O)OCc2c1cc1n(c2=O)Cc2nc3cc(C)cc(Cl)c3nc2-1

>  <smiles>  (299) 
[H]OC1(C([H])([H])C([H])([H])[H])C(=O)OC([H])([H])c2c1c([H])c1n(c2=O)C([H])([H])c2nc3c([H])c(C([H])([H])[H])c([H])c(Cl)c3nc2-1

$$$$
78:0:2
     RDKit          3D

 44 48  0  0  1  0  0  0  0  0999 V2000
    3.3958   -1.1860    0.9896 C   0  0  0  0  0  0  0  0  0  0  0  0
    4.1881   -1.1207   -0.3287 C   0  0  0  0  0  0  0  0  0  0  0  0
    4.1066   -2.4086   -1.2024 C   0  0  1  0  0  0  0  0  0  0  0  0
    2.7702   -2.5507   -1.6702 O   0  0  0  0  0  0  0  0  0  0  0  0
    5.0262   -2.2432   -2.4329 C   0  0  0  0  0  0  0  0  0  0  0  0
    4.6084   -1.8562   -3.5209 O   0  0  0  0  0  0  0  0  0  0  0  0
    6.3428   -2.4526   -2.2034 O   0  0  0  0  0  0  0  0  0  0  0  0
    6.8573   -2.9257   -0.9697 C   0  0  0  0  0  0  0  0  0  0  0  0
    5.8888   -3.8580   -0.2760 C   0  0  0  0  0  0  0  0  0  0  0  0
    4.5538   -3.6541   -0.4232 C   0  0  0  0  0  0  0  0  0  0  0  0
    3.6083   -4.5930    0.1684 C   0  0  0  0  0  0  0  0  0  0  0  0
    4.1100   -5.6344    0.8423 C   0  0  0  0  0  0  0  0  0  0  0  0
    5.4978   -5.8187    0.9912 N   0  0  0  0  0  0  0  0  0  0  0  0
    6.4340   -4.9824    0.4808 C   0  0  0  0  0  0  0  0  0  0  0  0
    7.6434   -5.1490    0.6508 O   0  0  0  0  0  0  0  0  0  0  0  0
    5.8065   -7.0263    1.7504 C   0  0  0  0  0  0  0  0  0  0  0  0
    4.4395   -7.5523    2.0517 C   0  0  0  0  0  0  0  0  0  0  0  0
    4.2075   -8.6676    2.7521 N   0  0  0  0  0  0  0  0  0  0  0  0
    2.9033   -8.9889    2.9233 C   0  0  0  0  0  0  0  0  0  0  0  0
    2.5743  -10.1491    3.6534 C   0  0  0  0  0  0  0  0  0  0  0  0
    1.2397  -10.5237    3.8655 C   0  0  0  0  0  0  0  0  0  0  0  0
    0.9069  -11.7641    4.6559 C   0  0  0  0  0  0  0  0  0  0  0  0
    0.2133   -9.7273    3.3528 C   0  0  0  0  0  0  0  0  0  0  0  0
    0.5170   -8.5532    2.6432 C   0  0  0  0  0  0  0  0  0  0  0  0
   -0.7898   -7.5558    2.1231 Cl  0  0  0  0  0  0  0  0  0  0  0  0
    1.8541   -8.1621    2.3863 C   0  0  0  0  0  0  0  0  0  0  0  0
    2.1390   -7.0205    1.6767 N   0  0  0  0  0  0  0  0  0  0  0  0
    3.4510   -6.7438    1.5250 C   0  0  0  0  0  0  0  0  0  0  0  0
    3.4569   -0.2393    1.5294 H   0  0  0  0  0  0  0  0  0  0  0  0
    3.7787   -1.9701    1.6473 H   0  0  0  0  0  0  0  0  0  0  0  0
    2.3394   -1.3960    0.8200 H   0  0  0  0  0  0  0  0  0  0  0  0
    3.8503   -0.2726   -0.9173 H   0  0  0  0  0  0  0  0  0  0  0  0
    5.2178   -0.8650   -0.0670 H   0  0  0  0  0  0  0  0  0  0  0  0
    2.1963   -1.9474   -1.1901 H   0  0  0  0  0  0  0  0  0  0  0  0
    7.7959   -3.4357   -1.1783 H   0  0  0  0  0  0  0  0  0  0  0  0
    7.1047   -2.0921   -0.3213 H   0  0  0  0  0  0  0  0  0  0  0  0
    2.5371   -4.4826    0.0797 H   0  0  0  0  0  0  0  0  0  0  0  0
    6.3699   -7.7449    1.1467 H   0  0  0  0  0  0  0  0  0  0  0  0
    6.3396   -6.7805    2.6744 H   0  0  0  0  0  0  0  0  0  0  0  0
    3.3542  -10.7664    4.0676 H   0  0  0  0  0  0  0  0  0  0  0  0
   -0.1650  -11.9472    4.7376 H   0  0  0  0  0  0  0  0  0  0  0  0
    1.3008  -11.6634    5.6628 H   0  0  0  0  0  0  0  0  0  0  0  0
    1.3509  -12.6484    4.2035 H   0  0  0  0  0  0  0  0  0  0  0  0
   -0.8148   -9.9967    3.5294 H   0  0  0  0  0  0  0  0  0  0  0  0
  1  2  1  0
  1 29  1  0
  1 30  1  0
  1 31  1  0
  2  3  1  0
  2 32  1  0
  2 33  1  0
  3 10  1  0
  3  4  1  6
  3  5  1  0
  4 34  1  0
  5  6  2  0
  5  7  1  0
  7  8  1  0
  8  9  1  0
  8 35  1  0
  8 36  1  0
  9 14  1  0
  9 10  2  0
 10 11  1  0
 11 12  2  0
 11 37  1  0
 12 28  1  0
 12 13  1  0
 13 14  1  0
 13 16  1  0
 14 15  2  0
 16 17  1  0
 16 38  1  0
 16 39  1  0
 17 28  2  0
 17 18  1  0
 18 19  2  0
 19 26  1  0
 19 20  1  0
 20 21  2  0
 20 40  1  0
 21 22  1  0
 21 23  1  0
 22 41  1  0
 22 42  1  0
 22 43  1  0
 23 24  2  0
 23 44  1  0
 24 25  1  0
 24 26  1  0
 26 27  2  0
 27 28  1  0
M  END
>  <i_m_ct_stereo_status>  (300) 
1

>  <s_m_source_file>  (300) 
/var/tmp/pbs.5076255.sched01/tmp0pz6dnip/90w4u7_w6b.sdf

>  <i_m_source_file_index>  (300) 
35

>  <i_lp_mmshare_version>  (300) 
48012

>  <i_f3d_flags>  (300) 
0

>  <s_epik_input>  (300) 
W0NIMl0xT0MoPU8pW0NAXShbT0hdKShbQ0gyXVtDSDNdKWMoYzEyKVtjSF1jM24oYzI9TylbQ0gyXWM0YzNuYzVjKG40KVtjSF1jKFtDSDNdKVtjSF1jNUNs

>  <s_epik_cmdline>  (300) 
J2VwaWtfcHl0aG9uJywgJy1waHQnLCAnMi4wJywgJy1waCcsICc3LjAnLCAnLXRuJywgJzgnLCAnLW1hJywgJzIwMCcsICctaW1hZScsICc8aW5maWxlLm1hZT4nLCAnLW9tYWUnLCAnPG91dGZpbGUubWFlPic=

>  <r_lp_tautomer_probability>  (300) 
1

>  <r_epik_Ionization_Penalty>  (300) 
1.65748e-05

>  <r_epik_Ionization_Penalty_Charging>  (300) 
1.33823e-07

>  <r_epik_Ionization_Penalty_Neutral>  (300) 
1.6441e-05

>  <r_epik_State_Penalty>  (300) 
-0

>  <r_epik_Charging_Adjusted_Penalty>  (300) 
1.33823e-07

>  <i_epik_Tot_Q>  (300) 
0

>  <i_epik_Tot_abs_Q>  (300) 
0

>  <s_epik_Chemistry_Notes>  (300) 
This compound has an ester and may undergo hydrolysis at high or low pH.

>  <s_lp_Force_Field>  (300) 
OPLS3e

>  <r_lp_Energy>  (300) 
49.799

>  <b_lp_Chiralities_Consistent>  (300) 
1

>  <s_lp_Variant>  (300) 
78:0-1

>  <s_i_glide_gridfile>  (300) 
pfpi4k_grid

>  <i_i_glide_lignum>  (300) 
35

>  <i_i_glide_rotatable_bonds>  (300) 
2

>  <r_i_docking_score>  (300) 
-3.81537

>  <r_i_glide_ligand_efficiency>  (300) 
-0.136263

>  <r_i_glide_ligand_efficiency_sa>  (300) 
-0.413775

>  <r_i_glide_ligand_efficiency_ln>  (300) 
-0.880698

>  <r_i_glide_gscore>  (300) 
-3.81537

>  <r_i_glide_lipo>  (300) 
-0.461525

>  <r_i_glide_hbond>  (300) 
-0.0242539

>  <r_i_glide_metal>  (300) 
-0

>  <r_i_glide_rewards>  (300) 
-0.951687

>  <r_i_glide_evdw>  (300) 
-31.3372

>  <r_i_glide_ecoul>  (300) 
-5.40693

>  <r_i_glide_erotb>  (300) 
0

>  <r_i_glide_esite>  (300) 
0

>  <r_i_glide_emodel>  (300) 
-43.7358

>  <r_i_glide_energy>  (300) 
-36.7441

>  <r_i_glide_einternal>  (300) 
3.73727

>  <r_i_glide_intrahb_reward>  (300) 
-0

>  <i_i_glide_confnum>  (300) 
4

>  <i_i_glide_posenum>  (300) 
32

>  <r_i_glide_eff_state_penalty>  (300) 
0

>  <ligand_id>  (300) 
78

>  <original_smiles>  (300) 
CCC1(O)C(=O)OCc2c1cc1n(c2=O)Cc2nc3cc(C)cc(Cl)c3nc2-1

>  <smiles>  (300) 
[H]OC1(C([H])([H])C([H])([H])[H])C(=O)OC([H])([H])c2c1c([H])c1n(c2=O)C([H])([H])c2nc3c([H])c(C([H])([H])[H])c([H])c(Cl)c3nc2-1

$$$$
79:0:0
     RDKit          3D

 13 14  0  0  1  0  0  0  0  0999 V2000
    0.0025   -9.7831    3.2691 C   0  0  0  0  0  0  0  0  0  0  0  0
   -1.0996   -8.9251    3.0338 C   0  0  0  0  0  0  0  0  0  0  0  0
   -1.0188   -7.7452    2.4232 N   0  0  0  0  0  0  0  0  0  0  0  0
    0.2000   -7.3848    1.9853 C   0  0  0  0  0  0  0  0  0  0  0  0
    0.5837   -6.2791    1.3467 N   0  0  0  0  0  0  0  0  0  0  0  0
    1.9290   -6.4604    1.1977 C   0  0  0  0  0  0  0  0  0  0  0  0
    2.4319   -7.5879    1.6821 N   0  0  0  0  0  0  0  0  0  0  0  0
    1.3282   -8.1949    2.1907 N   0  0  0  0  0  0  0  0  0  0  0  0
    1.2474   -9.3945    2.8298 C   0  0  0  0  0  0  0  0  0  0  0  0
   -0.1404  -10.7270    3.7895 H   0  0  0  0  0  0  0  0  0  0  0  0
   -2.0859   -9.2236    3.3743 H   0  0  0  0  0  0  0  0  0  0  0  0
    2.5586   -5.7372    0.6986 H   0  0  0  0  0  0  0  0  0  0  0  0
    2.1572   -9.9737    2.9565 H   0  0  0  0  0  0  0  0  0  0  0  0
  1  9  2  0
  1  2  1  0
  1 10  1  0
  2  3  2  0
  2 11  1  0
  3  4  1  0
  4  8  1  0
  4  5  2  0
  5  6  1  0
  6  7  2  0
  6 12  1  0
  7  8  1  0
  8  9  1  0
  9 13  1  0
M  END
>  <i_m_ct_stereo_status>  (301) 
1

>  <s_m_source_file>  (301) 
/var/tmp/pbs.5076255.sched01/tmp0pz6dnip/90w4u7_w6b.sdf

>  <i_m_source_file_index>  (301) 
36

>  <i_lp_mmshare_version>  (301) 
48012

>  <i_f3d_flags>  (301) 
0

>  <s_epik_input>  (301) 
bjFbY0hdW2NIXVtjSF1uKGMxMiluW2NIXW4y

>  <s_epik_cmdline>  (301) 
J2VwaWtfcHl0aG9uJywgJy1waHQnLCAnMi4wJywgJy1waCcsICc3LjAnLCAnLXRuJywgJzgnLCAnLW1hJywgJzIwMCcsICctaW1hZScsICc8aW5maWxlLm1hZT4nLCAnLW9tYWUnLCAnPG91dGZpbGUubWFlPic=

>  <r_lp_tautomer_probability>  (301) 
1

>  <r_epik_Ionization_Penalty>  (301) 
1.66986e-07

>  <r_epik_Ionization_Penalty_Charging>  (301) 
0

>  <r_epik_Ionization_Penalty_Neutral>  (301) 
1.66986e-07

>  <r_epik_State_Penalty>  (301) 
-0

>  <r_epik_Charging_Adjusted_Penalty>  (301) 
0

>  <i_epik_Tot_Q>  (301) 
0

>  <i_epik_Tot_abs_Q>  (301) 
0

>  <s_lp_Force_Field>  (301) 
OPLS3e

>  <r_lp_Energy>  (301) 
14.6748

>  <b_lp_Chiralities_Consistent>  (301) 
1

>  <s_lp_Variant>  (301) 
79:0-1

>  <s_i_glide_gridfile>  (301) 
pfpi4k_grid

>  <i_i_glide_lignum>  (301) 
36

>  <i_i_glide_rotatable_bonds>  (301) 
0

>  <r_i_docking_score>  (301) 
-4.2457

>  <r_i_glide_ligand_efficiency>  (301) 
-0.471744

>  <r_i_glide_ligand_efficiency_sa>  (301) 
-0.981268

>  <r_i_glide_ligand_efficiency_ln>  (301) 
-1.32793

>  <r_i_glide_gscore>  (301) 
-4.2457

>  <r_i_glide_lipo>  (301) 
-0.0335694

>  <r_i_glide_hbond>  (301) 
-0.16

>  <r_i_glide_metal>  (301) 
-0

>  <r_i_glide_rewards>  (301) 
-2.25

>  <r_i_glide_evdw>  (301) 
-13.9361

>  <r_i_glide_ecoul>  (301) 
-6.47193

>  <r_i_glide_erotb>  (301) 
0

>  <r_i_glide_esite>  (301) 
-0.134534

>  <r_i_glide_emodel>  (301) 
-27.1664

>  <r_i_glide_energy>  (301) 
-20.4081

>  <r_i_glide_einternal>  (301) 
0

>  <r_i_glide_intrahb_reward>  (301) 
-0

>  <i_i_glide_confnum>  (301) 
1

>  <i_i_glide_posenum>  (301) 
1

>  <r_i_glide_eff_state_penalty>  (301) 
0

>  <ligand_id>  (301) 
79

>  <original_smiles>  (301) 
c1cnc2ncnn2c1

>  <smiles>  (301) 
[H]c1nc2nc([H])c([H])c([H])n2n1

$$$$
79:0:1
     RDKit          3D

 13 14  0  0  1  0  0  0  0  0999 V2000
   -0.4155   -9.0801    2.7929 C   0  0  0  0  0  0  0  0  0  0  0  0
   -0.4283   -7.8555    2.0831 C   0  0  0  0  0  0  0  0  0  0  0  0
   -0.2420   -6.6587    2.6354 N   0  0  0  0  0  0  0  0  0  0  0  0
   -0.0091   -6.6498    3.9626 C   0  0  0  0  0  0  0  0  0  0  0  0
    0.2055   -5.6248    4.7817 N   0  0  0  0  0  0  0  0  0  0  0  0
    0.3608   -6.2201    5.9991 C   0  0  0  0  0  0  0  0  0  0  0  0
    0.2479   -7.5417    6.0266 N   0  0  0  0  0  0  0  0  0  0  0  0
    0.0132   -7.8328    4.7194 N   0  0  0  0  0  0  0  0  0  0  0  0
   -0.1860   -9.0531    4.1504 C   0  0  0  0  0  0  0  0  0  0  0  0
   -0.5784  -10.0219    2.2734 H   0  0  0  0  0  0  0  0  0  0  0  0
   -0.6059   -7.8619    1.0134 H   0  0  0  0  0  0  0  0  0  0  0  0
    0.5561   -5.6539    6.8974 H   0  0  0  0  0  0  0  0  0  0  0  0
   -0.1590   -9.9295    4.7918 H   0  0  0  0  0  0  0  0  0  0  0  0
  1  9  2  0
  1  2  1  0
  1 10  1  0
  2  3  2  0
  2 11  1  0
  3  4  1  0
  4  8  1  0
  4  5  2  0
  5  6  1  0
  6  7  2  0
  6 12  1  0
  7  8  1  0
  8  9  1  0
  9 13  1  0
M  END
>  <i_m_ct_stereo_status>  (302) 
1

>  <s_m_source_file>  (302) 
/var/tmp/pbs.5076255.sched01/tmp0pz6dnip/90w4u7_w6b.sdf

>  <i_m_source_file_index>  (302) 
36

>  <i_lp_mmshare_version>  (302) 
48012

>  <i_f3d_flags>  (302) 
0

>  <s_epik_input>  (302) 
bjFbY0hdW2NIXVtjSF1uKGMxMiluW2NIXW4y

>  <s_epik_cmdline>  (302) 
J2VwaWtfcHl0aG9uJywgJy1waHQnLCAnMi4wJywgJy1waCcsICc3LjAnLCAnLXRuJywgJzgnLCAnLW1hJywgJzIwMCcsICctaW1hZScsICc8aW5maWxlLm1hZT4nLCAnLW9tYWUnLCAnPG91dGZpbGUubWFlPic=

>  <r_lp_tautomer_probability>  (302) 
1

>  <r_epik_Ionization_Penalty>  (302) 
1.66986e-07

>  <r_epik_Ionization_Penalty_Charging>  (302) 
0

>  <r_epik_Ionization_Penalty_Neutral>  (302) 
1.66986e-07

>  <r_epik_State_Penalty>  (302) 
-0

>  <r_epik_Charging_Adjusted_Penalty>  (302) 
0

>  <i_epik_Tot_Q>  (302) 
0

>  <i_epik_Tot_abs_Q>  (302) 
0

>  <s_lp_Force_Field>  (302) 
OPLS3e

>  <r_lp_Energy>  (302) 
14.6748

>  <b_lp_Chiralities_Consistent>  (302) 
1

>  <s_lp_Variant>  (302) 
79:0-1

>  <s_i_glide_gridfile>  (302) 
pfpi4k_grid

>  <i_i_glide_lignum>  (302) 
36

>  <i_i_glide_rotatable_bonds>  (302) 
0

>  <r_i_docking_score>  (302) 
-3.62809

>  <r_i_glide_ligand_efficiency>  (302) 
-0.403121

>  <r_i_glide_ligand_efficiency_sa>  (302) 
-0.838526

>  <r_i_glide_ligand_efficiency_ln>  (302) 
-1.13476

>  <r_i_glide_gscore>  (302) 
-3.62809

>  <r_i_glide_lipo>  (302) 
0

>  <r_i_glide_hbond>  (302) 
-0.16

>  <r_i_glide_metal>  (302) 
-0

>  <r_i_glide_rewards>  (302) 
-2.25

>  <r_i_glide_evdw>  (302) 
-11.0514

>  <r_i_glide_ecoul>  (302) 
-3.88131

>  <r_i_glide_erotb>  (302) 
0

>  <r_i_glide_esite>  (302) 
-0.0833245

>  <r_i_glide_emodel>  (302) 
-20.708

>  <r_i_glide_energy>  (302) 
-14.9327

>  <r_i_glide_einternal>  (302) 
0

>  <r_i_glide_intrahb_reward>  (302) 
-0

>  <i_i_glide_confnum>  (302) 
1

>  <i_i_glide_posenum>  (302) 
3

>  <r_i_glide_eff_state_penalty>  (302) 
0

>  <ligand_id>  (302) 
79

>  <original_smiles>  (302) 
c1cnc2ncnn2c1

>  <smiles>  (302) 
[H]c1nc2nc([H])c([H])c([H])n2n1

$$$$
79:0:2
     RDKit          3D

 13 14  0  0  1  0  0  0  0  0999 V2000
   -0.5268    1.9461    2.8817 C   0  0  0  0  0  0  0  0  0  0  0  0
   -1.3521    2.5193    3.8779 C   0  0  0  0  0  0  0  0  0  0  0  0
   -1.7836    1.8790    4.9610 N   0  0  0  0  0  0  0  0  0  0  0  0
   -1.4029    0.5968    5.0862 C   0  0  0  0  0  0  0  0  0  0  0  0
   -1.6780   -0.2914    6.0425 N   0  0  0  0  0  0  0  0  0  0  0  0
   -1.0109   -1.4096    5.6292 C   0  0  0  0  0  0  0  0  0  0  0  0
   -0.3470   -1.3156    4.4851 N   0  0  0  0  0  0  0  0  0  0  0  0
   -0.5861   -0.0272    4.1276 N   0  0  0  0  0  0  0  0  0  0  0  0
   -0.1398    0.6340    3.0230 C   0  0  0  0  0  0  0  0  0  0  0  0
   -0.2067    2.5362    2.0240 H   0  0  0  0  0  0  0  0  0  0  0  0
   -1.6632    3.5527    3.7807 H   0  0  0  0  0  0  0  0  0  0  0  0
   -1.0278   -2.3328    6.1903 H   0  0  0  0  0  0  0  0  0  0  0  0
    0.4878    0.0980    2.3180 H   0  0  0  0  0  0  0  0  0  0  0  0
  1  9  2  0
  1  2  1  0
  1 10  1  0
  2  3  2  0
  2 11  1  0
  3  4  1  0
  4  8  1  0
  4  5  2  0
  5  6  1  0
  6  7  2  0
  6 12  1  0
  7  8  1  0
  8  9  1  0
  9 13  1  0
M  END
>  <i_m_ct_stereo_status>  (303) 
1

>  <s_m_source_file>  (303) 
/var/tmp/pbs.5076255.sched01/tmp0pz6dnip/90w4u7_w6b.sdf

>  <i_m_source_file_index>  (303) 
36

>  <i_lp_mmshare_version>  (303) 
48012

>  <i_f3d_flags>  (303) 
0

>  <s_epik_input>  (303) 
bjFbY0hdW2NIXVtjSF1uKGMxMiluW2NIXW4y

>  <s_epik_cmdline>  (303) 
J2VwaWtfcHl0aG9uJywgJy1waHQnLCAnMi4wJywgJy1waCcsICc3LjAnLCAnLXRuJywgJzgnLCAnLW1hJywgJzIwMCcsICctaW1hZScsICc8aW5maWxlLm1hZT4nLCAnLW9tYWUnLCAnPG91dGZpbGUubWFlPic=

>  <r_lp_tautomer_probability>  (303) 
1

>  <r_epik_Ionization_Penalty>  (303) 
1.66986e-07

>  <r_epik_Ionization_Penalty_Charging>  (303) 
0

>  <r_epik_Ionization_Penalty_Neutral>  (303) 
1.66986e-07

>  <r_epik_State_Penalty>  (303) 
-0

>  <r_epik_Charging_Adjusted_Penalty>  (303) 
0

>  <i_epik_Tot_Q>  (303) 
0

>  <i_epik_Tot_abs_Q>  (303) 
0

>  <s_lp_Force_Field>  (303) 
OPLS3e

>  <r_lp_Energy>  (303) 
14.6748

>  <b_lp_Chiralities_Consistent>  (303) 
1

>  <s_lp_Variant>  (303) 
79:0-1

>  <s_i_glide_gridfile>  (303) 
pfpi4k_grid

>  <i_i_glide_lignum>  (303) 
36

>  <i_i_glide_rotatable_bonds>  (303) 
0

>  <r_i_docking_score>  (303) 
-3.61166

>  <r_i_glide_ligand_efficiency>  (303) 
-0.401295

>  <r_i_glide_ligand_efficiency_sa>  (303) 
-0.834728

>  <r_i_glide_ligand_efficiency_ln>  (303) 
-1.12962

>  <r_i_glide_gscore>  (303) 
-3.61166

>  <r_i_glide_lipo>  (303) 
0

>  <r_i_glide_hbond>  (303) 
-0.136992

>  <r_i_glide_metal>  (303) 
-0

>  <r_i_glide_rewards>  (303) 
-2.25

>  <r_i_glide_evdw>  (303) 
-11.621

>  <r_i_glide_ecoul>  (303) 
-3.60831

>  <r_i_glide_erotb>  (303) 
0

>  <r_i_glide_esite>  (303) 
-0.10237

>  <r_i_glide_emodel>  (303) 
-20.9787

>  <r_i_glide_energy>  (303) 
-15.2293

>  <r_i_glide_einternal>  (303) 
0

>  <r_i_glide_intrahb_reward>  (303) 
-0

>  <i_i_glide_confnum>  (303) 
1

>  <i_i_glide_posenum>  (303) 
2

>  <r_i_glide_eff_state_penalty>  (303) 
0

>  <ligand_id>  (303) 
79

>  <original_smiles>  (303) 
c1cnc2ncnn2c1

>  <smiles>  (303) 
[H]c1nc2nc([H])c([H])c([H])n2n1

$$$$
80:0:0
     RDKit          3D

 13 13  0  0  1  0  0  0  0  0999 V2000
    4.2262   -7.6705    1.1670 C   0  0  0  0  0  0  0  0  0  0  0  0
    2.8374   -7.2978    1.3119 N   0  0  0  0  0  0  0  0  0  0  0  0
    2.1717   -6.2243    0.8890 C   0  0  0  0  0  0  0  0  0  0  0  0
    0.8751   -6.2626    1.1657 N   0  0  0  0  0  0  0  0  0  0  0  0
    0.8017   -7.4622    1.8282 C   0  0  0  0  0  0  0  0  0  0  0  0
   -0.4592   -7.9601    2.4108 N   0  0  0  0  0  0  0  0  0  0  0  0
   -0.5186   -9.1201    2.8054 O   0  0  0  0  0  0  0  0  0  0  0  0
   -1.3926   -7.1657    2.4881 O   0  0  0  0  0  0  0  0  0  0  0  0
    1.9594   -8.1175    1.9344 N   0  0  0  0  0  0  0  0  0  0  0  0
    4.7741   -6.8942    0.6278 H   0  0  0  0  0  0  0  0  0  0  0  0
    4.2929   -8.6096    0.6122 H   0  0  0  0  0  0  0  0  0  0  0  0
    4.6692   -7.8048    2.1546 H   0  0  0  0  0  0  0  0  0  0  0  0
    2.6388   -5.4104    0.3492 H   0  0  0  0  0  0  0  0  0  0  0  0
  1  2  1  0
  1 10  1  0
  1 11  1  0
  1 12  1  0
  2  9  1  0
  2  3  1  0
  3  4  2  0
  3 13  1  0
  4  5  1  0
  5  6  1  0
  5  9  2  0
  6  7  2  0
  6  8  1  0
M  CHG  2   6   1   8  -1
M  END
>  <i_m_ct_stereo_status>  (304) 
1

>  <s_m_source_file>  (304) 
/var/tmp/pbs.5076255.sched01/tmp0pz6dnip/90w4u7_w6b.sdf

>  <i_m_source_file_index>  (304) 
37

>  <i_lp_mmshare_version>  (304) 
48012

>  <i_f3d_flags>  (304) 
0

>  <s_epik_input>  (304) 
W0NIM11uMVtjSF1uYyhuMSlbTitdKD1PKVtPLV0=

>  <s_epik_cmdline>  (304) 
J2VwaWtfcHl0aG9uJywgJy1waHQnLCAnMi4wJywgJy1waCcsICc3LjAnLCAnLXRuJywgJzgnLCAnLW1hJywgJzIwMCcsICctaW1hZScsICc8aW5maWxlLm1hZT4nLCAnLW9tYWUnLCAnPG91dGZpbGUubWFlPic=

>  <r_lp_tautomer_probability>  (304) 
1

>  <r_epik_Ionization_Penalty>  (304) 
1.5584e-07

>  <r_epik_Ionization_Penalty_Charging>  (304) 
0

>  <r_epik_Ionization_Penalty_Neutral>  (304) 
1.5584e-07

>  <r_epik_State_Penalty>  (304) 
-0

>  <r_epik_Charging_Adjusted_Penalty>  (304) 
0

>  <i_epik_Tot_Q>  (304) 
0

>  <i_epik_Tot_abs_Q>  (304) 
2

>  <s_lp_Force_Field>  (304) 
OPLS3e

>  <r_lp_Energy>  (304) 
7.98853

>  <b_lp_Chiralities_Consistent>  (304) 
1

>  <s_lp_Variant>  (304) 
80:0-1

>  <s_i_glide_gridfile>  (304) 
pfpi4k_grid

>  <i_i_glide_lignum>  (304) 
37

>  <i_i_glide_rotatable_bonds>  (304) 
1

>  <r_i_docking_score>  (304) 
-4.08826

>  <r_i_glide_ligand_efficiency>  (304) 
-0.454251

>  <r_i_glide_ligand_efficiency_sa>  (304) 
-0.944881

>  <r_i_glide_ligand_efficiency_ln>  (304) 
-1.27869

>  <r_i_glide_gscore>  (304) 
-4.08826

>  <r_i_glide_lipo>  (304) 
-0.0581758

>  <r_i_glide_hbond>  (304) 
-0.16

>  <r_i_glide_metal>  (304) 
-0

>  <r_i_glide_rewards>  (304) 
-2.29371

>  <r_i_glide_evdw>  (304) 
-12.7376

>  <r_i_glide_ecoul>  (304) 
-4.53734

>  <r_i_glide_erotb>  (304) 
0

>  <r_i_glide_esite>  (304) 
-0.258896

>  <r_i_glide_emodel>  (304) 
-22.7916

>  <r_i_glide_energy>  (304) 
-17.2749

>  <r_i_glide_einternal>  (304) 
0.164385

>  <r_i_glide_intrahb_reward>  (304) 
-0

>  <i_i_glide_confnum>  (304) 
2

>  <i_i_glide_posenum>  (304) 
3

>  <r_i_glide_eff_state_penalty>  (304) 
0

>  <ligand_id>  (304) 
80

>  <original_smiles>  (304) 
Cn1cnc([N+](=O)[O-])n1

>  <smiles>  (304) 
[H]c1nc([N+](=O)[O-])nn1C([H])([H])[H]

$$$$
80:0:1
     RDKit          3D

 13 13  0  0  1  0  0  0  0  0999 V2000
    1.0510    1.4352    1.6772 C   0  0  0  0  0  0  0  0  0  0  0  0
    0.1129    1.5512    2.7733 N   0  0  0  0  0  0  0  0  0  0  0  0
   -0.4753    2.6199    3.3043 C   0  0  0  0  0  0  0  0  0  0  0  0
   -1.2598    2.3350    4.3350 N   0  0  0  0  0  0  0  0  0  0  0  0
   -1.1183    0.9716    4.3781 C   0  0  0  0  0  0  0  0  0  0  0  0
   -1.7929    0.1215    5.3788 N   0  0  0  0  0  0  0  0  0  0  0  0
   -1.9391   -1.0690    5.1258 O   0  0  0  0  0  0  0  0  0  0  0  0
   -2.1798    0.6270    6.4308 O   0  0  0  0  0  0  0  0  0  0  0  0
   -0.2999    0.4602    3.4540 N   0  0  0  0  0  0  0  0  0  0  0  0
    1.2686    2.4247    1.2814 H   0  0  0  0  0  0  0  0  0  0  0  0
    0.6230    0.8080    0.8933 H   0  0  0  0  0  0  0  0  0  0  0  0
    1.9826    0.9915    2.0319 H   0  0  0  0  0  0  0  0  0  0  0  0
   -0.3174    3.6252    2.9362 H   0  0  0  0  0  0  0  0  0  0  0  0
  1  2  1  0
  1 10  1  0
  1 11  1  0
  1 12  1  0
  2  9  1  0
  2  3  1  0
  3  4  2  0
  3 13  1  0
  4  5  1  0
  5  6  1  0
  5  9  2  0
  6  7  2  0
  6  8  1  0
M  CHG  2   6   1   8  -1
M  END
>  <i_m_ct_stereo_status>  (305) 
1

>  <s_m_source_file>  (305) 
/var/tmp/pbs.5076255.sched01/tmp0pz6dnip/90w4u7_w6b.sdf

>  <i_m_source_file_index>  (305) 
37

>  <i_lp_mmshare_version>  (305) 
48012

>  <i_f3d_flags>  (305) 
0

>  <s_epik_input>  (305) 
W0NIM11uMVtjSF1uYyhuMSlbTitdKD1PKVtPLV0=

>  <s_epik_cmdline>  (305) 
J2VwaWtfcHl0aG9uJywgJy1waHQnLCAnMi4wJywgJy1waCcsICc3LjAnLCAnLXRuJywgJzgnLCAnLW1hJywgJzIwMCcsICctaW1hZScsICc8aW5maWxlLm1hZT4nLCAnLW9tYWUnLCAnPG91dGZpbGUubWFlPic=

>  <r_lp_tautomer_probability>  (305) 
1

>  <r_epik_Ionization_Penalty>  (305) 
1.5584e-07

>  <r_epik_Ionization_Penalty_Charging>  (305) 
0

>  <r_epik_Ionization_Penalty_Neutral>  (305) 
1.5584e-07

>  <r_epik_State_Penalty>  (305) 
-0

>  <r_epik_Charging_Adjusted_Penalty>  (305) 
0

>  <i_epik_Tot_Q>  (305) 
0

>  <i_epik_Tot_abs_Q>  (305) 
2

>  <s_lp_Force_Field>  (305) 
OPLS3e

>  <r_lp_Energy>  (305) 
7.98853

>  <b_lp_Chiralities_Consistent>  (305) 
1

>  <s_lp_Variant>  (305) 
80:0-1

>  <s_i_glide_gridfile>  (305) 
pfpi4k_grid

>  <i_i_glide_lignum>  (305) 
37

>  <i_i_glide_rotatable_bonds>  (305) 
1

>  <r_i_docking_score>  (305) 
-3.8366

>  <r_i_glide_ligand_efficiency>  (305) 
-0.426289

>  <r_i_glide_ligand_efficiency_sa>  (305) 
-0.886717

>  <r_i_glide_ligand_efficiency_ln>  (305) 
-1.19998

>  <r_i_glide_gscore>  (305) 
-3.8366

>  <r_i_glide_lipo>  (305) 
0

>  <r_i_glide_hbond>  (305) 
0

>  <r_i_glide_metal>  (305) 
-0

>  <r_i_glide_rewards>  (305) 
-2.25

>  <r_i_glide_evdw>  (305) 
-12.9494

>  <r_i_glide_ecoul>  (305) 
-4.03201

>  <r_i_glide_erotb>  (305) 
0

>  <r_i_glide_esite>  (305) 
-0.334331

>  <r_i_glide_emodel>  (305) 
-21.8684

>  <r_i_glide_energy>  (305) 
-16.9814

>  <r_i_glide_einternal>  (305) 
0.54978

>  <r_i_glide_intrahb_reward>  (305) 
-0

>  <i_i_glide_confnum>  (305) 
2

>  <i_i_glide_posenum>  (305) 
1

>  <r_i_glide_eff_state_penalty>  (305) 
0

>  <ligand_id>  (305) 
80

>  <original_smiles>  (305) 
Cn1cnc([N+](=O)[O-])n1

>  <smiles>  (305) 
[H]c1nc([N+](=O)[O-])nn1C([H])([H])[H]

$$$$
80:0:2
     RDKit          3D

 13 13  0  0  1  0  0  0  0  0999 V2000
   -2.1927   -7.9555    3.6422 C   0  0  0  0  0  0  0  0  0  0  0  0
   -0.8588   -8.0724    3.1133 N   0  0  0  0  0  0  0  0  0  0  0  0
    0.0419   -9.0450    3.2425 C   0  0  0  0  0  0  0  0  0  0  0  0
    1.1865   -8.7799    2.6347 N   0  0  0  0  0  0  0  0  0  0  0  0
    0.8981   -7.5573    2.0881 C   0  0  0  0  0  0  0  0  0  0  0  0
    1.8591   -6.7977    1.2733 N   0  0  0  0  0  0  0  0  0  0  0  0
    3.0400   -7.1371    1.2872 O   0  0  0  0  0  0  0  0  0  0  0  0
    1.4220   -5.8645    0.6038 O   0  0  0  0  0  0  0  0  0  0  0  0
   -0.3289   -7.0907    2.3553 N   0  0  0  0  0  0  0  0  0  0  0  0
   -2.4413   -8.8535    4.2103 H   0  0  0  0  0  0  0  0  0  0  0  0
   -2.8904   -7.8516    2.8149 H   0  0  0  0  0  0  0  0  0  0  0  0
   -2.2587   -7.0781    4.2863 H   0  0  0  0  0  0  0  0  0  0  0  0
   -0.1343   -9.9518    3.8044 H   0  0  0  0  0  0  0  0  0  0  0  0
  1  2  1  0
  1 10  1  0
  1 11  1  0
  1 12  1  0
  2  9  1  0
  2  3  1  0
  3  4  2  0
  3 13  1  0
  4  5  1  0
  5  6  1  0
  5  9  2  0
  6  7  2  0
  6  8  1  0
M  CHG  2   6   1   8  -1
M  END
>  <i_m_ct_stereo_status>  (306) 
1

>  <s_m_source_file>  (306) 
/var/tmp/pbs.5076255.sched01/tmp0pz6dnip/90w4u7_w6b.sdf

>  <i_m_source_file_index>  (306) 
37

>  <i_lp_mmshare_version>  (306) 
48012

>  <i_f3d_flags>  (306) 
0

>  <s_epik_input>  (306) 
W0NIM11uMVtjSF1uYyhuMSlbTitdKD1PKVtPLV0=

>  <s_epik_cmdline>  (306) 
J2VwaWtfcHl0aG9uJywgJy1waHQnLCAnMi4wJywgJy1waCcsICc3LjAnLCAnLXRuJywgJzgnLCAnLW1hJywgJzIwMCcsICctaW1hZScsICc8aW5maWxlLm1hZT4nLCAnLW9tYWUnLCAnPG91dGZpbGUubWFlPic=

>  <r_lp_tautomer_probability>  (306) 
1

>  <r_epik_Ionization_Penalty>  (306) 
1.5584e-07

>  <r_epik_Ionization_Penalty_Charging>  (306) 
0

>  <r_epik_Ionization_Penalty_Neutral>  (306) 
1.5584e-07

>  <r_epik_State_Penalty>  (306) 
-0

>  <r_epik_Charging_Adjusted_Penalty>  (306) 
0

>  <i_epik_Tot_Q>  (306) 
0

>  <i_epik_Tot_abs_Q>  (306) 
2

>  <s_lp_Force_Field>  (306) 
OPLS3e

>  <r_lp_Energy>  (306) 
7.98853

>  <b_lp_Chiralities_Consistent>  (306) 
1

>  <s_lp_Variant>  (306) 
80:0-1

>  <s_i_glide_gridfile>  (306) 
pfpi4k_grid

>  <i_i_glide_lignum>  (306) 
37

>  <i_i_glide_rotatable_bonds>  (306) 
1

>  <r_i_docking_score>  (306) 
-3.74399

>  <r_i_glide_ligand_efficiency>  (306) 
-0.415999

>  <r_i_glide_ligand_efficiency_sa>  (306) 
-0.865313

>  <r_i_glide_ligand_efficiency_ln>  (306) 
-1.17101

>  <r_i_glide_gscore>  (306) 
-3.74399

>  <r_i_glide_lipo>  (306) 
0

>  <r_i_glide_hbond>  (306) 
-0.0855371

>  <r_i_glide_metal>  (306) 
-0

>  <r_i_glide_rewards>  (306) 
-2.25

>  <r_i_glide_evdw>  (306) 
-14.1138

>  <r_i_glide_ecoul>  (306) 
-2.87038

>  <r_i_glide_erotb>  (306) 
0

>  <r_i_glide_esite>  (306) 
-0.272206

>  <r_i_glide_emodel>  (306) 
-21.9666

>  <r_i_glide_energy>  (306) 
-16.9842

>  <r_i_glide_einternal>  (306) 
0.22898

>  <r_i_glide_intrahb_reward>  (306) 
-0

>  <i_i_glide_confnum>  (306) 
1

>  <i_i_glide_posenum>  (306) 
34

>  <r_i_glide_eff_state_penalty>  (306) 
0

>  <ligand_id>  (306) 
80

>  <original_smiles>  (306) 
Cn1cnc([N+](=O)[O-])n1

>  <smiles>  (306) 
[H]c1nc([N+](=O)[O-])nn1C([H])([H])[H]

$$$$
81:0:0
     RDKit          3D

 82 86  0  0  1  0  0  0  0  0999 V2000
   -2.0596   -8.2832    4.3407 C   0  0  0  0  0  0  0  0  0  0  0  0
   -0.5507   -8.3246    4.4466 C   0  0  2  0  0  0  0  0  0  0  0  0
   -0.1142   -8.2416    5.9095 C   0  0  0  0  0  0  0  0  0  0  0  0
    1.4128   -8.2612    6.0442 C   0  0  0  0  0  0  0  0  0  0  0  0
    2.0770   -7.0569    5.3028 C   0  0  1  0  0  0  0  0  0  0  0  0
    1.7474   -5.7533    6.1182 C   0  0  0  0  0  0  0  0  0  0  0  0
    2.2746   -4.6693    5.7839 O   0  0  0  0  0  0  0  0  0  0  0  0
    1.0514   -5.8213    7.1655 O   0  0  0  0  0  0  0  0  0  0  0  0
    3.6070   -7.2848    5.2904 C   0  0  0  0  0  0  0  0  0  0  0  0
    4.3986   -6.4154    4.2768 C   0  0  0  0  0  0  0  0  0  0  0  0
    3.9724   -6.5896    2.7798 C   0  0  1  0  0  0  0  0  0  0  0  0
    4.2218   -8.0801    2.3501 C   0  0  0  0  0  0  0  0  0  0  0  0
    2.4293   -6.3325    2.7129 C   0  0  2  0  0  0  0  0  0  0  0  0
    2.1037   -4.8164    2.7566 C   0  0  0  0  0  0  0  0  0  0  0  0
    2.8010   -4.0447    1.6589 C   0  0  0  0  0  0  0  0  0  0  0  0
    4.3546   -4.1139    1.8583 C   0  0  2  0  0  0  0  0  0  0  0  0
    5.0524   -3.0683    0.8633 C   0  0  1  0  0  0  0  0  0  0  0  0
    4.3831   -1.6873    1.1544 C   0  0  0  0  0  0  0  0  0  0  0  0
    6.5825   -2.8429    1.0985 C   0  0  0  0  0  0  0  0  0  0  0  0
    7.2722   -1.9111    0.0813 C   0  0  0  0  0  0  0  0  0  0  0  0
    7.0323   -2.4177   -1.3511 C   0  0  1  0  0  0  0  0  0  0  0  0
    7.9586   -3.4502   -1.6006 O   0  0  0  0  0  0  0  0  0  0  0  0
    5.5396   -2.6841   -1.6988 C   0  0  0  0  0  0  0  0  0  0  0  0
    4.8206   -1.3130   -1.8891 C   0  0  0  0  0  0  0  0  0  0  0  0
    5.4378   -3.3478   -3.0849 C   0  0  0  0  0  0  0  0  0  0  0  0
    4.8263   -3.5500   -0.5973 C   0  0  1  0  0  0  0  0  0  0  0  0
    5.2232   -5.0424   -0.6873 C   0  0  0  0  0  0  0  0  0  0  0  0
    4.6046   -6.0207    0.3117 C   0  0  0  0  0  0  0  0  0  0  0  0
    4.8135   -5.6299    1.7941 C   0  0  2  0  0  0  0  0  0  0  0  0
    6.3266   -5.8099    2.1583 C   0  0  0  0  0  0  0  0  0  0  0  0
    1.6139   -7.1560    3.7817 C   0  0  2  0  0  0  0  0  0  0  0  0
    0.0748   -7.1730    3.5919 C   0  0  1  0  0  0  0  0  0  0  0  0
   -0.3742   -7.3885    2.1248 C   0  0  0  0  0  0  0  0  0  0  0  0
   -2.4227   -7.2580    4.5500 H   0  0  0  0  0  0  0  0  0  0  0  0
   -2.4268   -9.0089    5.0709 H   0  0  0  0  0  0  0  0  0  0  0  0
   -2.4738   -8.6325    3.3916 H   0  0  0  0  0  0  0  0  0  0  0  0
   -0.2347   -9.3063    4.0984 H   0  0  0  0  0  0  0  0  0  0  0  0
   -0.5540   -7.3397    6.3334 H   0  0  0  0  0  0  0  0  0  0  0  0
   -0.5471   -9.0549    6.5147 H   0  0  0  0  0  0  0  0  0  0  0  0
    1.6889   -8.2513    7.0992 H   0  0  0  0  0  0  0  0  0  0  0  0
    1.7703   -9.2183    5.6766 H   0  0  0  0  0  0  0  0  0  0  0  0
    3.9960   -7.1066    6.2941 H   0  0  0  0  0  0  0  0  0  0  0  0
    3.8223   -8.3296    5.1127 H   0  0  0  0  0  0  0  0  0  0  0  0
    4.3032   -5.3751    4.5580 H   0  0  0  0  0  0  0  0  0  0  0  0
    5.4531   -6.6438    4.4344 H   0  0  0  0  0  0  0  0  0  0  0  0
    3.7519   -8.3075    1.3899 H   0  0  0  0  0  0  0  0  0  0  0  0
    3.8148   -8.8187    3.0408 H   0  0  0  0  0  0  0  0  0  0  0  0
    5.2747   -8.3451    2.2510 H   0  0  0  0  0  0  0  0  0  0  0  0
    2.1280   -6.7073    1.7404 H   0  0  0  0  0  0  0  0  0  0  0  0
    1.0144   -4.6695    2.6785 H   0  0  0  0  0  0  0  0  0  0  0  0
    2.4646   -4.3397    3.6519 H   0  0  0  0  0  0  0  0  0  0  0  0
    2.4781   -4.3429    0.6624 H   0  0  0  0  0  0  0  0  0  0  0  0
    2.4365   -3.0318    1.8173 H   0  0  0  0  0  0  0  0  0  0  0  0
    4.5992   -3.7662    2.8632 H   0  0  0  0  0  0  0  0  0  0  0  0
    4.9975   -0.8214    0.9350 H   0  0  0  0  0  0  0  0  0  0  0  0
    4.1451   -1.5826    2.2134 H   0  0  0  0  0  0  0  0  0  0  0  0
    3.4580   -1.5687    0.5868 H   0  0  0  0  0  0  0  0  0  0  0  0
    6.7305   -2.4574    2.0998 H   0  0  0  0  0  0  0  0  0  0  0  0
    7.1521   -3.7571    1.0134 H   0  0  0  0  0  0  0  0  0  0  0  0
    6.9360   -0.8818    0.2048 H   0  0  0  0  0  0  0  0  0  0  0  0
    8.3464   -1.8651    0.2945 H   0  0  0  0  0  0  0  0  0  0  0  0
    7.3415   -1.6948   -2.0882 H   0  0  0  0  0  0  0  0  0  0  0  0
    8.1719   -3.4176   -2.5269 H   0  0  0  0  0  0  0  0  0  0  0  0
    3.7365   -1.4249   -1.8391 H   0  0  0  0  0  0  0  0  0  0  0  0
    5.0336   -0.8476   -2.8580 H   0  0  0  0  0  0  0  0  0  0  0  0
    5.1140   -0.5677   -1.1564 H   0  0  0  0  0  0  0  0  0  0  0  0
    4.4117   -3.6083   -3.3516 H   0  0  0  0  0  0  0  0  0  0  0  0
    6.0524   -4.2462   -3.1301 H   0  0  0  0  0  0  0  0  0  0  0  0
    5.8006   -2.6792   -3.8560 H   0  0  0  0  0  0  0  0  0  0  0  0
    3.7702   -3.5182   -0.8440 H   0  0  0  0  0  0  0  0  0  0  0  0
    5.0014   -5.4381   -1.6846 H   0  0  0  0  0  0  0  0  0  0  0  0
    6.2912   -5.0753   -0.5746 H   0  0  0  0  0  0  0  0  0  0  0  0
    3.5475   -6.1214    0.0620 H   0  0  0  0  0  0  0  0  0  0  0  0
    5.0436   -7.0015    0.1057 H   0  0  0  0  0  0  0  0  0  0  0  0
    6.9909   -5.7850    1.2978 H   0  0  0  0  0  0  0  0  0  0  0  0
    6.5694   -6.7671    2.6108 H   0  0  0  0  0  0  0  0  0  0  0  0
    6.6558   -5.0565    2.8742 H   0  0  0  0  0  0  0  0  0  0  0  0
    1.8269   -8.1849    3.5165 H   0  0  0  0  0  0  0  0  0  0  0  0
   -0.3261   -6.2300    3.9496 H   0  0  0  0  0  0  0  0  0  0  0  0
   -0.0064   -8.3311    1.7145 H   0  0  0  0  0  0  0  0  0  0  0  0
   -0.0436   -6.5857    1.4749 H   0  0  0  0  0  0  0  0  0  0  0  0
   -1.4576   -7.4179    2.0183 H   0  0  0  0  0  0  0  0  0  0  0  0
  1  2  1  0
  1 34  1  0
  1 35  1  0
  1 36  1  0
  2 32  1  0
  2  3  1  0
  2 37  1  6
  3  4  1  0
  3 38  1  0
  3 39  1  0
  4  5  1  0
  4 40  1  0
  4 41  1  0
  5 31  1  0
  5  6  1  1
  5  9  1  0
  6  7  2  0
  6  8  1  0
  9 10  1  0
  9 42  1  0
  9 43  1  0
 10 11  1  0
 10 44  1  0
 10 45  1  0
 11 29  1  0
 11 12  1  6
 11 13  1  0
 12 46  1  0
 12 47  1  0
 12 48  1  0
 13 14  1  0
 13 31  1  0
 13 49  1  6
 14 15  1  0
 14 50  1  0
 14 51  1  0
 15 16  1  0
 15 52  1  0
 15 53  1  0
 16 29  1  0
 16 17  1  0
 16 54  1  1
 17 26  1  0
 17 18  1  6
 17 19  1  0
 18 55  1  0
 18 56  1  0
 18 57  1  0
 19 20  1  0
 19 58  1  0
 19 59  1  0
 20 21  1  0
 20 60  1  0
 20 61  1  0
 21 22  1  0
 21 23  1  0
 21 62  1  6
 22 63  1  0
 23 24  1  0
 23 25  1  0
 23 26  1  0
 24 64  1  0
 24 65  1  0
 24 66  1  0
 25 67  1  0
 25 68  1  0
 25 69  1  0
 26 27  1  0
 26 70  1  6
 27 28  1  0
 27 71  1  0
 27 72  1  0
 28 29  1  0
 28 73  1  0
 28 74  1  0
 29 30  1  1
 30 75  1  0
 30 76  1  0
 30 77  1  0
 31 32  1  0
 31 78  1  6
 32 33  1  0
 32 79  1  1
 33 80  1  0
 33 81  1  0
 33 82  1  0
M  CHG  1   8  -1
M  END
>  <i_m_ct_stereo_status>  (307) 
1

>  <s_m_source_file>  (307) 
/var/tmp/pbs.5076255.sched01/tmp0pz6dnip/90w4u7_w6b.sdf

>  <i_m_source_file_index>  (307) 
38

>  <i_lp_mmshare_version>  (307) 
48012

>  <i_f3d_flags>  (307) 
0

>  <s_epik_input>  (307) 
W0NIMl0xW0NIMl1bQ0BASF0oW0NIM10pW0NASF0oW0NIM10pW0NASF0oW0NAQF0xMkMoPU8pW09IXSlbQ0BASF0zW0NAXShbQ0gzXSkoW0NIMl1bQ0gyXTIpW0NAXTQoW0NIM10pW0NASF0oW0NIMl1bQ0gyXTMpW0NAXTUoW0NIM10pW0NASF0oW0NIMl1bQ0gyXTQpQyhbQ0gzXSkoW0NIM10pW0NASF0oW09IXSlbQ0gyXVtDSDJdNQ==

>  <s_epik_cmdline>  (307) 
J2VwaWtfcHl0aG9uJywgJy1waHQnLCAnMi4wJywgJy1waCcsICc3LjAnLCAnLXRuJywgJzgnLCAnLW1hJywgJzIwMCcsICctaW1hZScsICc8aW5maWxlLm1hZT4nLCAnLW9tYWUnLCAnPG91dGZpbGUubWFlPic=

>  <r_epik_Ionization_Penalty>  (307) 
0.0108575

>  <r_epik_Ionization_Penalty_Charging>  (307) 
0.0108543

>  <r_epik_Ionization_Penalty_Neutral>  (307) 
3.18502e-06

>  <r_epik_State_Penalty>  (307) 
0.00832294

>  <r_epik_Charging_Adjusted_Penalty>  (307) 
0.0191773

>  <i_epik_Tot_Q>  (307) 
-1

>  <i_epik_Tot_abs_Q>  (307) 
1

>  <s_lp_Force_Field>  (307) 
OPLS3e

>  <r_lp_Energy>  (307) 
105.968

>  <b_lp_Chiralities_Consistent>  (307) 
1

>  <s_lp_Variant>  (307) 
81:0-1

>  <s_i_glide_gridfile>  (307) 
pfpi4k_grid

>  <i_i_glide_lignum>  (307) 
38

>  <i_i_glide_rotatable_bonds>  (307) 
2

>  <r_i_docking_score>  (307) 
-2.11995

>  <r_i_glide_ligand_efficiency>  (307) 
-0.064241

>  <r_i_glide_ligand_efficiency_sa>  (307) 
-0.206055

>  <r_i_glide_ligand_efficiency_ln>  (307) 
-0.471466

>  <r_i_glide_gscore>  (307) 
-2.11995

>  <r_i_glide_lipo>  (307) 
-0.566948

>  <r_i_glide_hbond>  (307) 
-0.32

>  <r_i_glide_metal>  (307) 
-0

>  <r_i_glide_rewards>  (307) 
-0.288353

>  <r_i_glide_evdw>  (307) 
-15.0579

>  <r_i_glide_ecoul>  (307) 
-1.27818

>  <r_i_glide_erotb>  (307) 
0

>  <r_i_glide_esite>  (307) 
-2.66529e-05

>  <r_i_glide_emodel>  (307) 
-12.8683

>  <r_i_glide_energy>  (307) 
-16.3361

>  <r_i_glide_einternal>  (307) 
3.92779

>  <r_i_glide_intrahb_reward>  (307) 
-0

>  <i_i_glide_confnum>  (307) 
2

>  <i_i_glide_posenum>  (307) 
7

>  <r_i_glide_eff_state_penalty>  (307) 
0

>  <ligand_id>  (307) 
81

>  <original_smiles>  (307) 
CC1CCC2(C(=O)O)CCC3(C)C(CCC4C5(C)CCC(O)C(C)(C)C5CCC43C)C2C1C

>  <smiles>  (307) 
[H]OC1([H])C([H])([H])C([H])([H])C2(C([H])([H])[H])C([H])(C([H])([H])C([H])([H])C3(C([H])([H])[H])C2([H])C([H])([H])C([H])([H])C2([H])C4([H])C([H])(C([H])([H])[H])C([H])(C([H])([H])[H])C([H])([H])C([H])([H])C4(C(=O)[O-])C([H])([H])C([H])([H])C23C([H])([H])[H])C1(C([H])([H])[H])C([H])([H])[H]

$$$$
81:0:1
     RDKit          3D

 82 86  0  0  1  0  0  0  0  0999 V2000
   -1.9310   -8.2916    4.2878 C   0  0  0  0  0  0  0  0  0  0  0  0
   -0.4451   -8.2862    4.4502 C   0  0  2  0  0  0  0  0  0  0  0  0
   -0.0572   -8.1012    5.9133 C   0  0  0  0  0  0  0  0  0  0  0  0
    1.4471   -8.0795    6.1022 C   0  0  0  0  0  0  0  0  0  0  0  0
    2.0869   -6.9423    5.2726 C   0  0  1  0  0  0  0  0  0  0  0  0
    1.6948   -5.5922    5.9706 C   0  0  0  0  0  0  0  0  0  0  0  0
    0.6561   -4.9700    5.5918 O   0  0  0  0  0  0  0  0  0  0  0  0
    2.3884   -5.2128    6.9257 O   0  0  0  0  0  0  0  0  0  0  0  0
    3.6304   -7.1271    5.3502 C   0  0  0  0  0  0  0  0  0  0  0  0
    4.4112   -6.2514    4.3477 C   0  0  0  0  0  0  0  0  0  0  0  0
    4.0204   -6.4802    2.8562 C   0  0  1  0  0  0  0  0  0  0  0  0
    4.3155   -7.9681    2.4628 C   0  0  0  0  0  0  0  0  0  0  0  0
    2.4675   -6.2658    2.7491 C   0  0  2  0  0  0  0  0  0  0  0  0
    2.1003   -4.7744    2.8064 C   0  0  0  0  0  0  0  0  0  0  0  0
    2.8089   -3.9776    1.7333 C   0  0  0  0  0  0  0  0  0  0  0  0
    4.3542   -3.9988    1.9075 C   0  0  2  0  0  0  0  0  0  0  0  0
    5.0112   -2.9778    0.8824 C   0  0  1  0  0  0  0  0  0  0  0  0
    4.3051   -1.6131    1.0947 C   0  0  0  0  0  0  0  0  0  0  0  0
    6.5250   -2.6872    1.1342 C   0  0  0  0  0  0  0  0  0  0  0  0
    7.2184   -1.7870    0.0938 C   0  0  0  0  0  0  0  0  0  0  0  0
    7.0270   -2.3804   -1.3164 C   0  0  1  0  0  0  0  0  0  0  0  0
    7.9909   -3.4032   -1.4633 O   0  0  0  0  0  0  0  0  0  0  0  0
    5.5404   -2.6681   -1.6777 C   0  0  0  0  0  0  0  0  0  0  0  0
    4.7951   -1.3319   -1.9435 C   0  0  0  0  0  0  0  0  0  0  0  0
    5.4886   -3.3748   -3.0512 C   0  0  0  0  0  0  0  0  0  0  0  0
    4.8160   -3.5205   -0.5743 C   0  0  1  0  0  0  0  0  0  0  0  0
    5.2740   -4.9781   -0.6078 C   0  0  0  0  0  0  0  0  0  0  0  0
    4.6693   -5.9507    0.3861 C   0  0  0  0  0  0  0  0  0  0  0  0
    4.8413   -5.5111    1.8621 C   0  0  2  0  0  0  0  0  0  0  0  0
    6.3424   -5.6447    2.2532 C   0  0  0  0  0  0  0  0  0  0  0  0
    1.6577   -7.1264    3.7785 C   0  0  2  0  0  0  0  0  0  0  0  0
    0.1303   -7.1721    3.5487 C   0  0  1  0  0  0  0  0  0  0  0  0
   -0.2764   -7.4306    2.0945 C   0  0  0  0  0  0  0  0  0  0  0  0
   -2.3320   -7.2806    4.4348 H   0  0  0  0  0  0  0  0  0  0  0  0
   -2.3027   -9.0019    5.0215 H   0  0  0  0  0  0  0  0  0  0  0  0
   -2.3135   -8.6761    3.3447 H   0  0  0  0  0  0  0  0  0  0  0  0
   -0.1088   -9.2633    4.1402 H   0  0  0  0  0  0  0  0  0  0  0  0
   -0.4744   -7.1775    6.3182 H   0  0  0  0  0  0  0  0  0  0  0  0
   -0.4734   -8.9117    6.5261 H   0  0  0  0  0  0  0  0  0  0  0  0
    1.6857   -7.9618    7.1577 H   0  0  0  0  0  0  0  0  0  0  0  0
    1.8514   -9.0459    5.7999 H   0  0  0  0  0  0  0  0  0  0  0  0
    3.9831   -6.9003    6.3530 H   0  0  0  0  0  0  0  0  0  0  0  0
    3.8699   -8.1836    5.2241 H   0  0  0  0  0  0  0  0  0  0  0  0
    4.2577   -5.2063    4.6116 H   0  0  0  0  0  0  0  0  0  0  0  0
    5.4674   -6.4404    4.5320 H   0  0  0  0  0  0  0  0  0  0  0  0
    3.8700   -8.2234    1.5014 H   0  0  0  0  0  0  0  0  0  0  0  0
    3.9181   -8.6854    3.1707 H   0  0  0  0  0  0  0  0  0  0  0  0
    5.3740   -8.1962    2.3956 H   0  0  0  0  0  0  0  0  0  0  0  0
    2.1960   -6.6237    1.7609 H   0  0  0  0  0  0  0  0  0  0  0  0
    1.0234   -4.6557    2.6885 H   0  0  0  0  0  0  0  0  0  0  0  0
    2.3769   -4.3086    3.7499 H   0  0  0  0  0  0  0  0  0  0  0  0
    2.5022   -4.3498    0.7552 H   0  0  0  0  0  0  0  0  0  0  0  0
    2.3935   -2.9757    1.8153 H   0  0  0  0  0  0  0  0  0  0  0  0
    4.5815   -3.6204    2.8983 H   0  0  0  0  0  0  0  0  0  0  0  0
    4.9076   -0.7408    0.8506 H   0  0  0  0  0  0  0  0  0  0  0  0
    4.0571   -1.4785    2.1484 H   0  0  0  0  0  0  0  0  0  0  0  0
    3.3888   -1.5398    0.5045 H   0  0  0  0  0  0  0  0  0  0  0  0
    6.6119   -2.2602    2.1402 H   0  0  0  0  0  0  0  0  0  0  0  0
    7.1284   -3.5907    1.1147 H   0  0  0  0  0  0  0  0  0  0  0  0
    6.8619   -0.7731    0.1576 H   0  0  0  0  0  0  0  0  0  0  0  0
    8.2846   -1.7073    0.3282 H   0  0  0  0  0  0  0  0  0  0  0  0
    7.2845   -1.7147   -2.1205 H   0  0  0  0  0  0  0  0  0  0  0  0
    8.8177   -2.9955   -1.7784 H   0  0  0  0  0  0  0  0  0  0  0  0
    3.7093   -1.4782   -1.9236 H   0  0  0  0  0  0  0  0  0  0  0  0
    5.0170   -0.9132   -2.9268 H   0  0  0  0  0  0  0  0  0  0  0  0
    5.0546   -0.5479   -1.2374 H   0  0  0  0  0  0  0  0  0  0  0  0
    4.4685   -3.6646   -3.3173 H   0  0  0  0  0  0  0  0  0  0  0  0
    6.1393   -4.2449   -3.0478 H   0  0  0  0  0  0  0  0  0  0  0  0
    5.8475   -2.7215   -3.8177 H   0  0  0  0  0  0  0  0  0  0  0  0
    3.7559   -3.5182   -0.8505 H   0  0  0  0  0  0  0  0  0  0  0  0
    5.0307   -5.4016   -1.5721 H   0  0  0  0  0  0  0  0  0  0  0  0
    6.3440   -4.9776   -0.4622 H   0  0  0  0  0  0  0  0  0  0  0  0
    3.6212   -6.1099    0.1181 H   0  0  0  0  0  0  0  0  0  0  0  0
    5.1650   -6.9126    0.2239 H   0  0  0  0  0  0  0  0  0  0  0  0
    7.0246   -5.6190    1.4104 H   0  0  0  0  0  0  0  0  0  0  0  0
    6.6053   -6.5814    2.7332 H   0  0  0  0  0  0  0  0  0  0  0  0
    6.6027   -4.8584    2.9562 H   0  0  0  0  0  0  0  0  0  0  0  0
    1.9203   -8.1524    3.5491 H   0  0  0  0  0  0  0  0  0  0  0  0
   -0.3203   -6.2351    3.8445 H   0  0  0  0  0  0  0  0  0  0  0  0
    0.1295   -8.3770    1.7393 H   0  0  0  0  0  0  0  0  0  0  0  0
    0.0511   -6.6259    1.4346 H   0  0  0  0  0  0  0  0  0  0  0  0
   -1.3572   -7.4741    1.9699 H   0  0  0  0  0  0  0  0  0  0  0  0
  1  2  1  0
  1 34  1  0
  1 35  1  0
  1 36  1  0
  2 32  1  0
  2  3  1  0
  2 37  1  6
  3  4  1  0
  3 38  1  0
  3 39  1  0
  4  5  1  0
  4 40  1  0
  4 41  1  0
  5 31  1  0
  5  6  1  1
  5  9  1  0
  6  7  2  0
  6  8  1  0
  9 10  1  0
  9 42  1  0
  9 43  1  0
 10 11  1  0
 10 44  1  0
 10 45  1  0
 11 29  1  0
 11 12  1  6
 11 13  1  0
 12 46  1  0
 12 47  1  0
 12 48  1  0
 13 14  1  0
 13 31  1  0
 13 49  1  6
 14 15  1  0
 14 50  1  0
 14 51  1  0
 15 16  1  0
 15 52  1  0
 15 53  1  0
 16 29  1  0
 16 17  1  0
 16 54  1  1
 17 26  1  0
 17 18  1  6
 17 19  1  0
 18 55  1  0
 18 56  1  0
 18 57  1  0
 19 20  1  0
 19 58  1  0
 19 59  1  0
 20 21  1  0
 20 60  1  0
 20 61  1  0
 21 22  1  0
 21 23  1  0
 21 62  1  6
 22 63  1  0
 23 24  1  0
 23 25  1  0
 23 26  1  0
 24 64  1  0
 24 65  1  0
 24 66  1  0
 25 67  1  0
 25 68  1  0
 25 69  1  0
 26 27  1  0
 26 70  1  6
 27 28  1  0
 27 71  1  0
 27 72  1  0
 28 29  1  0
 28 73  1  0
 28 74  1  0
 29 30  1  1
 30 75  1  0
 30 76  1  0
 30 77  1  0
 31 32  1  0
 31 78  1  6
 32 33  1  0
 32 79  1  1
 33 80  1  0
 33 81  1  0
 33 82  1  0
M  CHG  1   8  -1
M  END
>  <i_m_ct_stereo_status>  (308) 
1

>  <s_m_source_file>  (308) 
/var/tmp/pbs.5076255.sched01/tmp0pz6dnip/90w4u7_w6b.sdf

>  <i_m_source_file_index>  (308) 
38

>  <i_lp_mmshare_version>  (308) 
48012

>  <i_f3d_flags>  (308) 
0

>  <s_epik_input>  (308) 
W0NIMl0xW0NIMl1bQ0BASF0oW0NIM10pW0NASF0oW0NIM10pW0NASF0oW0NAQF0xMkMoPU8pW09IXSlbQ0BASF0zW0NAXShbQ0gzXSkoW0NIMl1bQ0gyXTIpW0NAXTQoW0NIM10pW0NASF0oW0NIMl1bQ0gyXTMpW0NAXTUoW0NIM10pW0NASF0oW0NIMl1bQ0gyXTQpQyhbQ0gzXSkoW0NIM10pW0NASF0oW09IXSlbQ0gyXVtDSDJdNQ==

>  <s_epik_cmdline>  (308) 
J2VwaWtfcHl0aG9uJywgJy1waHQnLCAnMi4wJywgJy1waCcsICc3LjAnLCAnLXRuJywgJzgnLCAnLW1hJywgJzIwMCcsICctaW1hZScsICc8aW5maWxlLm1hZT4nLCAnLW9tYWUnLCAnPG91dGZpbGUubWFlPic=

>  <r_epik_Ionization_Penalty>  (308) 
0.0108575

>  <r_epik_Ionization_Penalty_Charging>  (308) 
0.0108543

>  <r_epik_Ionization_Penalty_Neutral>  (308) 
3.18502e-06

>  <r_epik_State_Penalty>  (308) 
0.00832294

>  <r_epik_Charging_Adjusted_Penalty>  (308) 
0.0191773

>  <i_epik_Tot_Q>  (308) 
-1

>  <i_epik_Tot_abs_Q>  (308) 
1

>  <s_lp_Force_Field>  (308) 
OPLS3e

>  <r_lp_Energy>  (308) 
105.968

>  <b_lp_Chiralities_Consistent>  (308) 
1

>  <s_lp_Variant>  (308) 
81:0-1

>  <s_i_glide_gridfile>  (308) 
pfpi4k_grid

>  <i_i_glide_lignum>  (308) 
38

>  <i_i_glide_rotatable_bonds>  (308) 
2

>  <r_i_docking_score>  (308) 
-1.90486

>  <r_i_glide_ligand_efficiency>  (308) 
-0.057723

>  <r_i_glide_ligand_efficiency_sa>  (308) 
-0.185148

>  <r_i_glide_ligand_efficiency_ln>  (308) 
-0.423631

>  <r_i_glide_gscore>  (308) 
-1.90486

>  <r_i_glide_lipo>  (308) 
-0.563821

>  <r_i_glide_hbond>  (308) 
-0.0446197

>  <r_i_glide_metal>  (308) 
-0

>  <r_i_glide_rewards>  (308) 
-0.288353

>  <r_i_glide_evdw>  (308) 
-21.0361

>  <r_i_glide_ecoul>  (308) 
0.291796

>  <r_i_glide_erotb>  (308) 
0

>  <r_i_glide_esite>  (308) 
-2.83519e-05

>  <r_i_glide_emodel>  (308) 
-19.5116

>  <r_i_glide_energy>  (308) 
-20.7443

>  <r_i_glide_einternal>  (308) 
1.05234

>  <r_i_glide_intrahb_reward>  (308) 
-0

>  <i_i_glide_confnum>  (308) 
2

>  <i_i_glide_posenum>  (308) 
25

>  <r_i_glide_eff_state_penalty>  (308) 
0

>  <ligand_id>  (308) 
81

>  <original_smiles>  (308) 
CC1CCC2(C(=O)O)CCC3(C)C(CCC4C5(C)CCC(O)C(C)(C)C5CCC43C)C2C1C

>  <smiles>  (308) 
[H]OC1([H])C([H])([H])C([H])([H])C2(C([H])([H])[H])C([H])(C([H])([H])C([H])([H])C3(C([H])([H])[H])C2([H])C([H])([H])C([H])([H])C2([H])C4([H])C([H])(C([H])([H])[H])C([H])(C([H])([H])[H])C([H])([H])C([H])([H])C4(C(=O)[O-])C([H])([H])C([H])([H])C23C([H])([H])[H])C1(C([H])([H])[H])C([H])([H])[H]

$$$$
81:0:2
     RDKit          3D

 82 86  0  0  1  0  0  0  0  0999 V2000
   -2.2103   -8.5199    3.6762 C   0  0  0  0  0  0  0  0  0  0  0  0
   -0.7145   -8.5934    3.9339 C   0  0  2  0  0  0  0  0  0  0  0  0
   -0.4022   -8.4682    5.4209 C   0  0  0  0  0  0  0  0  0  0  0  0
    1.0990   -8.4466    5.7318 C   0  0  0  0  0  0  0  0  0  0  0  0
    1.7731   -7.2477    5.0113 C   0  0  1  0  0  0  0  0  0  0  0  0
    1.2926   -5.9343    5.7273 C   0  0  0  0  0  0  0  0  0  0  0  0
    1.8033   -5.6482    6.8110 O   0  0  0  0  0  0  0  0  0  0  0  0
    0.3436   -5.2526    5.2314 O   0  0  0  0  0  0  0  0  0  0  0  0
    3.3006   -7.4017    5.1897 C   0  0  0  0  0  0  0  0  0  0  0  0
    4.1277   -6.4809    4.2712 C   0  0  0  0  0  0  0  0  0  0  0  0
    3.8554   -6.6713    2.7436 C   0  0  1  0  0  0  0  0  0  0  0  0
    4.1975   -8.1424    2.3268 C   0  0  0  0  0  0  0  0  0  0  0  0
    2.3236   -6.4688    2.5378 C   0  0  2  0  0  0  0  0  0  0  0  0
    1.9231   -4.9946    2.6220 C   0  0  0  0  0  0  0  0  0  0  0  0
    2.6749   -4.1535    1.6109 C   0  0  0  0  0  0  0  0  0  0  0  0
    4.2087   -4.1598    1.9041 C   0  0  2  0  0  0  0  0  0  0  0  0
    4.9237   -3.0865    0.9693 C   0  0  1  0  0  0  0  0  0  0  0  0
    4.1798   -1.7326    1.1673 C   0  0  0  0  0  0  0  0  0  0  0  0
    6.4166   -2.7970    1.3407 C   0  0  0  0  0  0  0  0  0  0  0  0
    7.1638   -1.8385    0.3797 C   0  0  0  0  0  0  0  0  0  0  0  0
    7.0615   -2.3581   -1.0642 C   0  0  1  0  0  0  0  0  0  0  0  0
    8.0425   -3.3778   -1.2202 O   0  0  0  0  0  0  0  0  0  0  0  0
    5.6253   -2.6837   -1.5365 C   0  0  0  0  0  0  0  0  0  0  0  0
    4.8849   -1.3454   -1.8136 C   0  0  0  0  0  0  0  0  0  0  0  0
    5.6899   -3.3538   -2.9154 C   0  0  0  0  0  0  0  0  0  0  0  0
    4.8499   -3.5808   -0.5123 C   0  0  1  0  0  0  0  0  0  0  0  0
    5.3423   -5.0334   -0.5594 C   0  0  0  0  0  0  0  0  0  0  0  0
    4.6625   -6.0486    0.3521 C   0  0  0  0  0  0  0  0  0  0  0  0
    4.7248   -5.6599    1.8508 C   0  0  2  0  0  0  0  0  0  0  0  0
    6.2038   -5.7810    2.3448 C   0  0  0  0  0  0  0  0  0  0  0  0
    1.4483   -7.3633    3.4830 C   0  0  2  0  0  0  0  0  0  0  0  0
   -0.0642   -7.4201    3.1681 C   0  0  1  0  0  0  0  0  0  0  0  0
   -0.3157   -7.6527    1.6840 C   0  0  0  0  0  0  0  0  0  0  0  0
   -2.5579   -7.5005    3.8256 H   0  0  0  0  0  0  0  0  0  0  0  0
   -2.7271   -9.1558    4.4039 H   0  0  0  0  0  0  0  0  0  0  0  0
   -2.4685   -8.8929    2.6664 H   0  0  0  0  0  0  0  0  0  0  0  0
   -0.3291   -9.5618    3.6067 H   0  0  0  0  0  0  0  0  0  0  0  0
   -0.8274   -7.5033    5.6994 H   0  0  0  0  0  0  0  0  0  0  0  0
   -0.8867   -9.2494    6.0115 H   0  0  0  0  0  0  0  0  0  0  0  0
    1.2361   -8.3627    6.8175 H   0  0  0  0  0  0  0  0  0  0  0  0
    1.5425   -9.4030    5.4249 H   0  0  0  0  0  0  0  0  0  0  0  0
    3.5694   -7.1990    6.2314 H   0  0  0  0  0  0  0  0  0  0  0  0
    3.5637   -8.4548    5.0319 H   0  0  0  0  0  0  0  0  0  0  0  0
    3.9339   -5.4444    4.5531 H   0  0  0  0  0  0  0  0  0  0  0  0
    5.1637   -6.6622    4.5213 H   0  0  0  0  0  0  0  0  0  0  0  0
    3.8240   -8.3746    1.3231 H   0  0  0  0  0  0  0  0  0  0  0  0
    3.7587   -8.8917    2.9778 H   0  0  0  0  0  0  0  0  0  0  0  0
    5.2626   -8.3548    2.3263 H   0  0  0  0  0  0  0  0  0  0  0  0
    2.1136   -6.8057    1.5207 H   0  0  0  0  0  0  0  0  0  0  0  0
    0.8502   -4.8905    2.4704 H   0  0  0  0  0  0  0  0  0  0  0  0
    2.1453   -4.5569    3.5979 H   0  0  0  0  0  0  0  0  0  0  0  0
    2.4466   -4.4923    0.5959 H   0  0  0  0  0  0  0  0  0  0  0  0
    2.2432   -3.1628    1.6939 H   0  0  0  0  0  0  0  0  0  0  0  0
    4.3567   -3.8027    2.9236 H   0  0  0  0  0  0  0  0  0  0  0  0
    4.7866   -0.8499    0.9943 H   0  0  0  0  0  0  0  0  0  0  0  0
    3.8490   -1.6442    2.2048 H   0  0  0  0  0  0  0  0  0  0  0  0
    3.3076   -1.6613    0.5079 H   0  0  0  0  0  0  0  0  0  0  0  0
    6.4732   -2.4072    2.3600 H   0  0  0  0  0  0  0  0  0  0  0  0
    7.0320   -3.6894    1.3120 H   0  0  0  0  0  0  0  0  0  0  0  0
    6.7851   -0.8224    0.4481 H   0  0  0  0  0  0  0  0  0  0  0  0
    8.2195   -1.7540    0.6752 H   0  0  0  0  0  0  0  0  0  0  0  0
    7.3877   -1.6184   -1.7645 H   0  0  0  0  0  0  0  0  0  0  0  0
    7.8075   -4.1314   -0.6828 H   0  0  0  0  0  0  0  0  0  0  0  0
    3.8080   -1.5025   -1.8962 H   0  0  0  0  0  0  0  0  0  0  0  0
    5.2124   -0.8829   -2.7512 H   0  0  0  0  0  0  0  0  0  0  0  0
    5.0857   -0.5807   -1.0519 H   0  0  0  0  0  0  0  0  0  0  0  0
    4.7060   -3.6089   -3.3162 H   0  0  0  0  0  0  0  0  0  0  0  0
    6.3459   -4.2196   -2.9312 H   0  0  0  0  0  0  0  0  0  0  0  0
    6.1755   -2.6528   -3.5681 H   0  0  0  0  0  0  0  0  0  0  0  0
    3.8065   -3.5867   -0.8662 H   0  0  0  0  0  0  0  0  0  0  0  0
    5.1685   -5.4214   -1.5562 H   0  0  0  0  0  0  0  0  0  0  0  0
    6.4186   -5.0542   -0.3250 H   0  0  0  0  0  0  0  0  0  0  0  0
    3.6347   -6.2080   -0.0011 H   0  0  0  0  0  0  0  0  0  0  0  0
    5.1779   -6.9967    0.1884 H   0  0  0  0  0  0  0  0  0  0  0  0
    6.9459   -5.7255    1.5526 H   0  0  0  0  0  0  0  0  0  0  0  0
    6.4398   -6.7325    2.8071 H   0  0  0  0  0  0  0  0  0  0  0  0
    6.4272   -5.0177    3.0918 H   0  0  0  0  0  0  0  0  0  0  0  0
    1.7250   -8.3835    3.2377 H   0  0  0  0  0  0  0  0  0  0  0  0
   -0.5583   -6.4911    3.4749 H   0  0  0  0  0  0  0  0  0  0  0  0
    0.1812   -8.5816    1.4260 H   0  0  0  0  0  0  0  0  0  0  0  0
    0.0160   -6.8332    1.0603 H   0  0  0  0  0  0  0  0  0  0  0  0
   -1.3662   -7.7710    1.4644 H   0  0  0  0  0  0  0  0  0  0  0  0
  1  2  1  0
  1 34  1  0
  1 35  1  0
  1 36  1  0
  2 32  1  0
  2  3  1  0
  2 37  1  6
  3  4  1  0
  3 38  1  0
  3 39  1  0
  4  5  1  0
  4 40  1  0
  4 41  1  0
  5 31  1  0
  5  6  1  1
  5  9  1  0
  6  7  2  0
  6  8  1  0
  9 10  1  0
  9 42  1  0
  9 43  1  0
 10 11  1  0
 10 44  1  0
 10 45  1  0
 11 29  1  0
 11 12  1  6
 11 13  1  0
 12 46  1  0
 12 47  1  0
 12 48  1  0
 13 14  1  0
 13 31  1  0
 13 49  1  6
 14 15  1  0
 14 50  1  0
 14 51  1  0
 15 16  1  0
 15 52  1  0
 15 53  1  0
 16 29  1  0
 16 17  1  0
 16 54  1  1
 17 26  1  0
 17 18  1  6
 17 19  1  0
 18 55  1  0
 18 56  1  0
 18 57  1  0
 19 20  1  0
 19 58  1  0
 19 59  1  0
 20 21  1  0
 20 60  1  0
 20 61  1  0
 21 22  1  0
 21 23  1  0
 21 62  1  6
 22 63  1  0
 23 24  1  0
 23 25  1  0
 23 26  1  0
 24 64  1  0
 24 65  1  0
 24 66  1  0
 25 67  1  0
 25 68  1  0
 25 69  1  0
 26 27  1  0
 26 70  1  6
 27 28  1  0
 27 71  1  0
 27 72  1  0
 28 29  1  0
 28 73  1  0
 28 74  1  0
 29 30  1  1
 30 75  1  0
 30 76  1  0
 30 77  1  0
 31 32  1  0
 31 78  1  6
 32 33  1  0
 32 79  1  1
 33 80  1  0
 33 81  1  0
 33 82  1  0
M  CHG  1   8  -1
M  END
>  <i_m_ct_stereo_status>  (309) 
1

>  <s_m_source_file>  (309) 
/var/tmp/pbs.5076255.sched01/tmp0pz6dnip/90w4u7_w6b.sdf

>  <i_m_source_file_index>  (309) 
38

>  <i_lp_mmshare_version>  (309) 
48012

>  <i_f3d_flags>  (309) 
0

>  <s_epik_input>  (309) 
W0NIMl0xW0NIMl1bQ0BASF0oW0NIM10pW0NASF0oW0NIM10pW0NASF0oW0NAQF0xMkMoPU8pW09IXSlbQ0BASF0zW0NAXShbQ0gzXSkoW0NIMl1bQ0gyXTIpW0NAXTQoW0NIM10pW0NASF0oW0NIMl1bQ0gyXTMpW0NAXTUoW0NIM10pW0NASF0oW0NIMl1bQ0gyXTQpQyhbQ0gzXSkoW0NIM10pW0NASF0oW09IXSlbQ0gyXVtDSDJdNQ==

>  <s_epik_cmdline>  (309) 
J2VwaWtfcHl0aG9uJywgJy1waHQnLCAnMi4wJywgJy1waCcsICc3LjAnLCAnLXRuJywgJzgnLCAnLW1hJywgJzIwMCcsICctaW1hZScsICc8aW5maWxlLm1hZT4nLCAnLW9tYWUnLCAnPG91dGZpbGUubWFlPic=

>  <r_epik_Ionization_Penalty>  (309) 
0.0108575

>  <r_epik_Ionization_Penalty_Charging>  (309) 
0.0108543

>  <r_epik_Ionization_Penalty_Neutral>  (309) 
3.18502e-06

>  <r_epik_State_Penalty>  (309) 
0.00832294

>  <r_epik_Charging_Adjusted_Penalty>  (309) 
0.0191773

>  <i_epik_Tot_Q>  (309) 
-1

>  <i_epik_Tot_abs_Q>  (309) 
1

>  <s_lp_Force_Field>  (309) 
OPLS3e

>  <r_lp_Energy>  (309) 
105.968

>  <b_lp_Chiralities_Consistent>  (309) 
1

>  <s_lp_Variant>  (309) 
81:0-1

>  <s_i_glide_gridfile>  (309) 
pfpi4k_grid

>  <i_i_glide_lignum>  (309) 
38

>  <i_i_glide_rotatable_bonds>  (309) 
2

>  <r_i_docking_score>  (309) 
-1.42536

>  <r_i_glide_ligand_efficiency>  (309) 
-0.0431927

>  <r_i_glide_ligand_efficiency_sa>  (309) 
-0.138542

>  <r_i_glide_ligand_efficiency_ln>  (309) 
-0.316993

>  <r_i_glide_gscore>  (309) 
-1.42536

>  <r_i_glide_lipo>  (309) 
-0.575347

>  <r_i_glide_hbond>  (309) 
0

>  <r_i_glide_metal>  (309) 
-0

>  <r_i_glide_rewards>  (309) 
-0.288353

>  <r_i_glide_evdw>  (309) 
-20.9498

>  <r_i_glide_ecoul>  (309) 
3.24031

>  <r_i_glide_erotb>  (309) 
0

>  <r_i_glide_esite>  (309) 
-0.000216656

>  <r_i_glide_emodel>  (309) 
-17.2668

>  <r_i_glide_energy>  (309) 
-17.7095

>  <r_i_glide_einternal>  (309) 
0.00377036

>  <r_i_glide_intrahb_reward>  (309) 
-0

>  <i_i_glide_confnum>  (309) 
2

>  <i_i_glide_posenum>  (309) 
18

>  <r_i_glide_eff_state_penalty>  (309) 
0

>  <ligand_id>  (309) 
81

>  <original_smiles>  (309) 
CC1CCC2(C(=O)O)CCC3(C)C(CCC4C5(C)CCC(O)C(C)(C)C5CCC43C)C2C1C

>  <smiles>  (309) 
[H]OC1([H])C([H])([H])C([H])([H])C2(C([H])([H])[H])C([H])(C([H])([H])C([H])([H])C3(C([H])([H])[H])C2([H])C([H])([H])C([H])([H])C2([H])C4([H])C([H])(C([H])([H])[H])C([H])(C([H])([H])[H])C([H])([H])C([H])([H])C4(C(=O)[O-])C([H])([H])C([H])([H])C23C([H])([H])[H])C1(C([H])([H])[H])C([H])([H])[H]

$$$$
81:1:0
     RDKit          3D

 83 87  0  0  1  0  0  0  0  0999 V2000
   -2.1455   -8.4515    3.7163 C   0  0  0  0  0  0  0  0  0  0  0  0
   -0.6475   -8.5169    3.9441 C   0  0  2  0  0  0  0  0  0  0  0  0
   -0.3230   -8.4229    5.4436 C   0  0  0  0  0  0  0  0  0  0  0  0
    1.1570   -8.3002    5.7670 C   0  0  0  0  0  0  0  0  0  0  0  0
    1.8374   -7.1155    5.0367 C   0  0  1  0  0  0  0  0  0  0  0  0
    1.4400   -5.7410    5.7308 C   0  0  0  0  0  0  0  0  0  0  0  0
    2.2236   -5.0669    6.4094 O   0  0  0  0  0  0  0  0  0  0  0  0
    0.1571   -5.3748    5.5110 O   0  0  0  0  0  0  0  0  0  0  0  0
    3.3487   -7.2910    5.1833 C   0  0  0  0  0  0  0  0  0  0  0  0
    4.1957   -6.4060    4.2436 C   0  0  0  0  0  0  0  0  0  0  0  0
    3.8805   -6.5977    2.7209 C   0  0  1  0  0  0  0  0  0  0  0  0
    4.1959   -8.0690    2.3021 C   0  0  0  0  0  0  0  0  0  0  0  0
    2.3474   -6.3601    2.5535 C   0  0  2  0  0  0  0  0  0  0  0  0
    1.9738   -4.8806    2.6456 C   0  0  0  0  0  0  0  0  0  0  0  0
    2.7220   -4.0522    1.6298 C   0  0  0  0  0  0  0  0  0  0  0  0
    4.2637   -4.0855    1.8749 C   0  0  2  0  0  0  0  0  0  0  0  0
    4.9787   -3.0345    0.9069 C   0  0  1  0  0  0  0  0  0  0  0  0
    4.2615   -1.6723    1.1160 C   0  0  0  0  0  0  0  0  0  0  0  0
    6.4881   -2.7686    1.2527 C   0  0  0  0  0  0  0  0  0  0  0  0
    7.2255   -1.8763    0.2506 C   0  0  0  0  0  0  0  0  0  0  0  0
    7.0724   -2.4141   -1.1844 C   0  0  1  0  0  0  0  0  0  0  0  0
    8.0424   -3.4308   -1.4296 O   0  0  0  0  0  0  0  0  0  0  0  0
    5.6117   -2.6896   -1.6249 C   0  0  0  0  0  0  0  0  0  0  0  0
    4.9050   -1.3320   -1.8955 C   0  0  0  0  0  0  0  0  0  0  0  0
    5.6215   -3.3717   -2.9985 C   0  0  0  0  0  0  0  0  0  0  0  0
    4.8380   -3.5401   -0.5728 C   0  0  1  0  0  0  0  0  0  0  0  0
    5.3047   -4.9995   -0.6158 C   0  0  0  0  0  0  0  0  0  0  0  0
    4.6443   -5.9950    0.3133 C   0  0  0  0  0  0  0  0  0  0  0  0
    4.7556   -5.5959    1.8059 C   0  0  2  0  0  0  0  0  0  0  0  0
    6.2405   -5.7461    2.2644 C   0  0  0  0  0  0  0  0  0  0  0  0
    1.4897   -7.2532    3.5087 C   0  0  2  0  0  0  0  0  0  0  0  0
   -0.0061   -7.3187    3.1902 C   0  0  1  0  0  0  0  0  0  0  0  0
   -0.2892   -7.4829    1.7010 C   0  0  0  0  0  0  0  0  0  0  0  0
   -2.4886   -7.4386    3.8076 H   0  0  0  0  0  0  0  0  0  0  0  0
   -2.6525   -9.0422    4.4860 H   0  0  0  0  0  0  0  0  0  0  0  0
   -2.4003   -8.8430    2.7194 H   0  0  0  0  0  0  0  0  0  0  0  0
   -0.2374   -9.4639    3.5976 H   0  0  0  0  0  0  0  0  0  0  0  0
   -0.8097   -7.5275    5.7846 H   0  0  0  0  0  0  0  0  0  0  0  0
   -0.7493   -9.2687    5.9955 H   0  0  0  0  0  0  0  0  0  0  0  0
    1.2853   -8.1782    6.8407 H   0  0  0  0  0  0  0  0  0  0  0  0
    1.6552   -9.2339    5.5102 H   0  0  0  0  0  0  0  0  0  0  0  0
   -0.3035   -6.0449    5.0305 H   0  0  0  0  0  0  0  0  0  0  0  0
    3.6252   -7.0620    6.2115 H   0  0  0  0  0  0  0  0  0  0  0  0
    3.5934   -8.3409    5.0528 H   0  0  0  0  0  0  0  0  0  0  0  0
    4.0511   -5.3605    4.5125 H   0  0  0  0  0  0  0  0  0  0  0  0
    5.2346   -6.6195    4.4769 H   0  0  0  0  0  0  0  0  0  0  0  0
    3.7791   -8.3000    1.3220 H   0  0  0  0  0  0  0  0  0  0  0  0
    3.7834   -8.8089    2.9759 H   0  0  0  0  0  0  0  0  0  0  0  0
    5.2550   -8.2957    2.2589 H   0  0  0  0  0  0  0  0  0  0  0  0
    2.1305   -6.6839    1.5355 H   0  0  0  0  0  0  0  0  0  0  0  0
    0.9080   -4.7572    2.4828 H   0  0  0  0  0  0  0  0  0  0  0  0
    2.1946   -4.4454    3.6179 H   0  0  0  0  0  0  0  0  0  0  0  0
    2.4633   -4.3944    0.6293 H   0  0  0  0  0  0  0  0  0  0  0  0
    2.3105   -3.0526    1.7122 H   0  0  0  0  0  0  0  0  0  0  0  0
    4.4520   -3.7303    2.8898 H   0  0  0  0  0  0  0  0  0  0  0  0
    4.8794   -0.8090    0.9147 H   0  0  0  0  0  0  0  0  0  0  0  0
    3.9651   -1.5615    2.1560 H   0  0  0  0  0  0  0  0  0  0  0  0
    3.3775   -1.5841    0.4802 H   0  0  0  0  0  0  0  0  0  0  0  0
    6.6051   -2.3744    2.2589 H   0  0  0  0  0  0  0  0  0  0  0  0
    7.0736   -3.6751    1.2276 H   0  0  0  0  0  0  0  0  0  0  0  0
    6.8735   -0.8500    0.3091 H   0  0  0  0  0  0  0  0  0  0  0  0
    8.2771   -1.8022    0.5177 H   0  0  0  0  0  0  0  0  0  0  0  0
    7.3966   -1.6936   -1.9068 H   0  0  0  0  0  0  0  0  0  0  0  0
    8.2914   -3.3815   -2.3404 H   0  0  0  0  0  0  0  0  0  0  0  0
    3.8311   -1.4581   -1.9511 H   0  0  0  0  0  0  0  0  0  0  0  0
    5.2089   -0.8898   -2.8351 H   0  0  0  0  0  0  0  0  0  0  0  0
    5.1291   -0.5728   -1.1567 H   0  0  0  0  0  0  0  0  0  0  0  0
    4.6216   -3.6189   -3.3463 H   0  0  0  0  0  0  0  0  0  0  0  0
    6.2130   -4.2528   -3.0013 H   0  0  0  0  0  0  0  0  0  0  0  0
    6.0860   -2.7024   -3.6920 H   0  0  0  0  0  0  0  0  0  0  0  0
    3.7916   -3.5331   -0.8947 H   0  0  0  0  0  0  0  0  0  0  0  0
    5.1118   -5.3935   -1.5946 H   0  0  0  0  0  0  0  0  0  0  0  0
    6.3655   -5.0051   -0.4236 H   0  0  0  0  0  0  0  0  0  0  0  0
    3.6117   -6.1363   -0.0095 H   0  0  0  0  0  0  0  0  0  0  0  0
    5.1386   -6.9477    0.1403 H   0  0  0  0  0  0  0  0  0  0  0  0
    6.9531   -5.7095    1.4529 H   0  0  0  0  0  0  0  0  0  0  0  0
    6.4720   -6.6955    2.7245 H   0  0  0  0  0  0  0  0  0  0  0  0
    6.4947   -4.9870    2.9969 H   0  0  0  0  0  0  0  0  0  0  0  0
    1.7862   -8.2643    3.2727 H   0  0  0  0  0  0  0  0  0  0  0  0
   -0.4928   -6.3981    3.4751 H   0  0  0  0  0  0  0  0  0  0  0  0
    0.1860   -8.3843    1.3273 H   0  0  0  0  0  0  0  0  0  0  0  0
    0.0086   -6.6190    1.1143 H   0  0  0  0  0  0  0  0  0  0  0  0
   -1.3514   -7.5449    1.5379 H   0  0  0  0  0  0  0  0  0  0  0  0
  1  2  1  0
  1 34  1  0
  1 35  1  0
  1 36  1  0
  2 32  1  0
  2  3  1  0
  2 37  1  6
  3  4  1  0
  3 38  1  0
  3 39  1  0
  4  5  1  0
  4 40  1  0
  4 41  1  0
  5 31  1  0
  5  6  1  1
  5  9  1  0
  6  7  2  0
  6  8  1  0
  8 42  1  0
  9 10  1  0
  9 43  1  0
  9 44  1  0
 10 11  1  0
 10 45  1  0
 10 46  1  0
 11 29  1  0
 11 12  1  6
 11 13  1  0
 12 47  1  0
 12 48  1  0
 12 49  1  0
 13 14  1  0
 13 31  1  0
 13 50  1  6
 14 15  1  0
 14 51  1  0
 14 52  1  0
 15 16  1  0
 15 53  1  0
 15 54  1  0
 16 29  1  0
 16 17  1  0
 16 55  1  1
 17 26  1  0
 17 18  1  6
 17 19  1  0
 18 56  1  0
 18 57  1  0
 18 58  1  0
 19 20  1  0
 19 59  1  0
 19 60  1  0
 20 21  1  0
 20 61  1  0
 20 62  1  0
 21 22  1  0
 21 23  1  0
 21 63  1  6
 22 64  1  0
 23 24  1  0
 23 25  1  0
 23 26  1  0
 24 65  1  0
 24 66  1  0
 24 67  1  0
 25 68  1  0
 25 69  1  0
 25 70  1  0
 26 27  1  0
 26 71  1  6
 27 28  1  0
 27 72  1  0
 27 73  1  0
 28 29  1  0
 28 74  1  0
 28 75  1  0
 29 30  1  1
 30 76  1  0
 30 77  1  0
 30 78  1  0
 31 32  1  0
 31 79  1  6
 32 33  1  0
 32 80  1  1
 33 81  1  0
 33 82  1  0
 33 83  1  0
M  END
>  <i_m_ct_stereo_status>  (310) 
1

>  <s_m_source_file>  (310) 
/var/tmp/pbs.5076255.sched01/tmp0pz6dnip/90w4u7_w6b.sdf

>  <i_m_source_file_index>  (310) 
39

>  <i_lp_mmshare_version>  (310) 
48012

>  <i_f3d_flags>  (310) 
0

>  <s_epik_input>  (310) 
W0NIMl0xW0NIMl1bQ0BASF0oW0NIM10pW0NASF0oW0NIM10pW0NASF0oW0NAQF0xMkMoPU8pW09IXSlbQ0BASF0zW0NAXShbQ0gzXSkoW0NIMl1bQ0gyXTIpW0NAXTQoW0NIM10pW0NASF0oW0NIMl1bQ0gyXTMpW0NAXTUoW0NIM10pW0NASF0oW0NIMl1bQ0gyXTQpQyhbQ0gzXSkoW0NIM10pW0NASF0oW09IXSlbQ0gyXVtDSDJdNQ==

>  <s_epik_cmdline>  (310) 
J2VwaWtfcHl0aG9uJywgJy1waHQnLCAnMi4wJywgJy1waCcsICc3LjAnLCAnLXRuJywgJzgnLCAnLW1hJywgJzIwMCcsICctaW1hZScsICc8aW5maWxlLm1hZT4nLCAnLW9tYWUnLCAnPG91dGZpbGUubWFlPic=

>  <r_epik_Ionization_Penalty>  (310) 
2.37522

>  <r_epik_Ionization_Penalty_Charging>  (310) 
0

>  <r_epik_Ionization_Penalty_Neutral>  (310) 
2.37522

>  <r_epik_State_Penalty>  (310) 
2.53129

>  <r_epik_Charging_Adjusted_Penalty>  (310) 
2.53129

>  <i_epik_Tot_Q>  (310) 
0

>  <i_epik_Tot_abs_Q>  (310) 
0

>  <s_lp_Force_Field>  (310) 
OPLS3e

>  <r_lp_Energy>  (310) 
112.33

>  <b_lp_Chiralities_Consistent>  (310) 
1

>  <s_lp_Variant>  (310) 
81:0-2

>  <s_i_glide_gridfile>  (310) 
pfpi4k_grid

>  <i_i_glide_lignum>  (310) 
39

>  <i_i_glide_rotatable_bonds>  (310) 
3

>  <r_i_docking_score>  (310) 
-2.23185

>  <r_i_glide_ligand_efficiency>  (310) 
-0.0676319

>  <r_i_glide_ligand_efficiency_sa>  (310) 
-0.216932

>  <r_i_glide_ligand_efficiency_ln>  (310) 
-0.496353

>  <r_i_glide_gscore>  (310) 
-2.23185

>  <r_i_glide_lipo>  (310) 
-0.548955

>  <r_i_glide_hbond>  (310) 
-0.239301

>  <r_i_glide_metal>  (310) 
-0

>  <r_i_glide_rewards>  (310) 
-0.28148

>  <r_i_glide_evdw>  (310) 
-23.2112

>  <r_i_glide_ecoul>  (310) 
-0.646881

>  <r_i_glide_erotb>  (310) 
0.095594

>  <r_i_glide_esite>  (310) 
-0.000117774

>  <r_i_glide_emodel>  (310) 
-20.1428

>  <r_i_glide_energy>  (310) 
-23.8581

>  <r_i_glide_einternal>  (310) 
4.38152

>  <r_i_glide_intrahb_reward>  (310) 
-0

>  <i_i_glide_confnum>  (310) 
3

>  <i_i_glide_posenum>  (310) 
1

>  <r_i_glide_eff_state_penalty>  (310) 
0

>  <ligand_id>  (310) 
81

>  <original_smiles>  (310) 
CC1CCC2(C(=O)O)CCC3(C)C(CCC4C5(C)CCC(O)C(C)(C)C5CCC43C)C2C1C

>  <smiles>  (310) 
[H]OC(=O)C12C([H])([H])C([H])([H])C([H])(C([H])([H])[H])C([H])(C([H])([H])[H])C1([H])C1([H])C([H])([H])C([H])([H])C3([H])C4(C([H])([H])[H])C([H])([H])C([H])([H])C([H])(O[H])C(C([H])([H])[H])(C([H])([H])[H])C4([H])C([H])([H])C([H])([H])C3(C([H])([H])[H])C1(C([H])([H])[H])C([H])([H])C2([H])[H]

$$$$
81:1:1
     RDKit          3D

 83 87  0  0  1  0  0  0  0  0999 V2000
   -2.1523   -8.4811    3.6612 C   0  0  0  0  0  0  0  0  0  0  0  0
   -0.6526   -8.4890    3.9476 C   0  0  2  0  0  0  0  0  0  0  0  0
   -0.3759   -8.3289    5.4345 C   0  0  0  0  0  0  0  0  0  0  0  0
    1.1073   -8.3091    5.7882 C   0  0  0  0  0  0  0  0  0  0  0  0
    1.7905   -7.1031    5.0870 C   0  0  1  0  0  0  0  0  0  0  0  0
    1.2808   -5.7894    5.7946 C   0  0  0  0  0  0  0  0  0  0  0  0
    0.4451   -5.0296    5.3258 O   0  0  0  0  0  0  0  0  0  0  0  0
    1.7686   -5.6807    7.0687 O   0  0  0  0  0  0  0  0  0  0  0  0
    3.3100   -7.2845    5.2649 C   0  0  0  0  0  0  0  0  0  0  0  0
    4.1672   -6.4042    4.3392 C   0  0  0  0  0  0  0  0  0  0  0  0
    3.8817   -6.5885    2.8116 C   0  0  1  0  0  0  0  0  0  0  0  0
    4.1921   -8.0685    2.3931 C   0  0  0  0  0  0  0  0  0  0  0  0
    2.3587   -6.3601    2.6118 C   0  0  2  0  0  0  0  0  0  0  0  0
    1.9938   -4.8680    2.6803 C   0  0  0  0  0  0  0  0  0  0  0  0
    2.7580   -4.0432    1.6743 C   0  0  0  0  0  0  0  0  0  0  0  0
    4.2924   -4.0859    1.9545 C   0  0  2  0  0  0  0  0  0  0  0  0
    5.0142   -3.0390    0.9988 C   0  0  1  0  0  0  0  0  0  0  0  0
    4.3051   -1.6721    1.2123 C   0  0  0  0  0  0  0  0  0  0  0  0
    6.5057   -2.7675    1.3709 C   0  0  0  0  0  0  0  0  0  0  0  0
    7.2831   -1.8742    0.4011 C   0  0  0  0  0  0  0  0  0  0  0  0
    7.1740   -2.4427   -1.0237 C   0  0  1  0  0  0  0  0  0  0  0  0
    8.1640   -3.4453   -1.1967 O   0  0  0  0  0  0  0  0  0  0  0  0
    5.7158   -2.6947   -1.4923 C   0  0  0  0  0  0  0  0  0  0  0  0
    5.0117   -1.3352   -1.7840 C   0  0  0  0  0  0  0  0  0  0  0  0
    5.7414   -3.3794   -2.8563 C   0  0  0  0  0  0  0  0  0  0  0  0
    4.9015   -3.5471   -0.4660 C   0  0  1  0  0  0  0  0  0  0  0  0
    5.3544   -5.0058   -0.5004 C   0  0  0  0  0  0  0  0  0  0  0  0
    4.6731   -6.0020    0.4192 C   0  0  0  0  0  0  0  0  0  0  0  0
    4.7660   -5.6019    1.9087 C   0  0  2  0  0  0  0  0  0  0  0  0
    6.2449   -5.7581    2.3937 C   0  0  0  0  0  0  0  0  0  0  0  0
    1.4916   -7.2566    3.5512 C   0  0  2  0  0  0  0  0  0  0  0  0
   -0.0154   -7.3031    3.2160 C   0  0  1  0  0  0  0  0  0  0  0  0
   -0.2944   -7.4277    1.7261 C   0  0  0  0  0  0  0  0  0  0  0  0
   -2.5539   -7.4708    3.7823 H   0  0  0  0  0  0  0  0  0  0  0  0
   -2.6901   -9.0970    4.3539 H   0  0  0  0  0  0  0  0  0  0  0  0
   -2.3817   -8.8770    2.6709 H   0  0  0  0  0  0  0  0  0  0  0  0
   -0.2255   -9.4541    3.6417 H   0  0  0  0  0  0  0  0  0  0  0  0
   -0.7920   -7.3537    5.6686 H   0  0  0  0  0  0  0  0  0  0  0  0
   -0.8871   -9.0684    6.0374 H   0  0  0  0  0  0  0  0  0  0  0  0
    1.2016   -8.2224    6.8730 H   0  0  0  0  0  0  0  0  0  0  0  0
    1.5638   -9.2532    5.5264 H   0  0  0  0  0  0  0  0  0  0  0  0
    2.3271   -6.3937    7.2839 H   0  0  0  0  0  0  0  0  0  0  0  0
    3.6039   -7.0714    6.2925 H   0  0  0  0  0  0  0  0  0  0  0  0
    3.5520   -8.3296    5.1245 H   0  0  0  0  0  0  0  0  0  0  0  0
    4.0064   -5.3562    4.6174 H   0  0  0  0  0  0  0  0  0  0  0  0
    5.1986   -6.6123    4.5869 H   0  0  0  0  0  0  0  0  0  0  0  0
    3.7927   -8.2959    1.4097 H   0  0  0  0  0  0  0  0  0  0  0  0
    3.7634   -8.8097    3.0574 H   0  0  0  0  0  0  0  0  0  0  0  0
    5.2524   -8.3021    2.3674 H   0  0  0  0  0  0  0  0  0  0  0  0
    2.1498   -6.6911    1.5960 H   0  0  0  0  0  0  0  0  0  0  0  0
    0.9411   -4.7291    2.5122 H   0  0  0  0  0  0  0  0  0  0  0  0
    2.2460   -4.4310    3.6403 H   0  0  0  0  0  0  0  0  0  0  0  0
    2.5137   -4.3782    0.6606 H   0  0  0  0  0  0  0  0  0  0  0  0
    2.3484   -3.0506    1.7602 H   0  0  0  0  0  0  0  0  0  0  0  0
    4.4555   -3.7283    2.9757 H   0  0  0  0  0  0  0  0  0  0  0  0
    4.9332   -0.8077    1.0301 H   0  0  0  0  0  0  0  0  0  0  0  0
    3.9960   -1.5629    2.2506 H   0  0  0  0  0  0  0  0  0  0  0  0
    3.4332   -1.5686    0.5677 H   0  0  0  0  0  0  0  0  0  0  0  0
    6.5521   -2.3791    2.3805 H   0  0  0  0  0  0  0  0  0  0  0  0
    7.0930   -3.6779    1.3624 H   0  0  0  0  0  0  0  0  0  0  0  0
    6.9371   -0.8451    0.4434 H   0  0  0  0  0  0  0  0  0  0  0  0
    8.3267   -1.7995    0.6997 H   0  0  0  0  0  0  0  0  0  0  0  0
    7.5144   -1.7645   -1.7682 H   0  0  0  0  0  0  0  0  0  0  0  0
    8.9376   -3.0368   -1.5572 H   0  0  0  0  0  0  0  0  0  0  0  0
    3.9377   -1.4466   -1.8632 H   0  0  0  0  0  0  0  0  0  0  0  0
    5.3486   -0.8909   -2.7134 H   0  0  0  0  0  0  0  0  0  0  0  0
    5.2156   -0.5717   -1.0367 H   0  0  0  0  0  0  0  0  0  0  0  0
    4.7527   -3.5962   -3.2445 H   0  0  0  0  0  0  0  0  0  0  0  0
    6.3090   -4.2674   -2.8211 H   0  0  0  0  0  0  0  0  0  0  0  0
    6.2853   -2.7665   -3.5301 H   0  0  0  0  0  0  0  0  0  0  0  0
    3.8638   -3.5160   -0.8135 H   0  0  0  0  0  0  0  0  0  0  0  0
    5.1750   -5.4117   -1.4865 H   0  0  0  0  0  0  0  0  0  0  0  0
    6.4166   -5.0405   -0.3047 H   0  0  0  0  0  0  0  0  0  0  0  0
    3.6451   -6.1446    0.0821 H   0  0  0  0  0  0  0  0  0  0  0  0
    5.1703   -6.9539    0.2549 H   0  0  0  0  0  0  0  0  0  0  0  0
    6.9774   -5.7204    1.5951 H   0  0  0  0  0  0  0  0  0  0  0  0
    6.4669   -6.7095    2.8538 H   0  0  0  0  0  0  0  0  0  0  0  0
    6.4927   -5.0039    3.1320 H   0  0  0  0  0  0  0  0  0  0  0  0
    1.7649   -8.2635    3.3192 H   0  0  0  0  0  0  0  0  0  0  0  0
   -0.4881   -6.3969    3.5691 H   0  0  0  0  0  0  0  0  0  0  0  0
    0.1898   -8.3238    1.3429 H   0  0  0  0  0  0  0  0  0  0  0  0
    0.0190   -6.5630    1.1566 H   0  0  0  0  0  0  0  0  0  0  0  0
   -1.3471   -7.5094    1.5620 H   0  0  0  0  0  0  0  0  0  0  0  0
  1  2  1  0
  1 34  1  0
  1 35  1  0
  1 36  1  0
  2 32  1  0
  2  3  1  0
  2 37  1  6
  3  4  1  0
  3 38  1  0
  3 39  1  0
  4  5  1  0
  4 40  1  0
  4 41  1  0
  5 31  1  0
  5  6  1  1
  5  9  1  0
  6  7  2  0
  6  8  1  0
  8 42  1  0
  9 10  1  0
  9 43  1  0
  9 44  1  0
 10 11  1  0
 10 45  1  0
 10 46  1  0
 11 29  1  0
 11 12  1  6
 11 13  1  0
 12 47  1  0
 12 48  1  0
 12 49  1  0
 13 14  1  0
 13 31  1  0
 13 50  1  6
 14 15  1  0
 14 51  1  0
 14 52  1  0
 15 16  1  0
 15 53  1  0
 15 54  1  0
 16 29  1  0
 16 17  1  0
 16 55  1  1
 17 26  1  0
 17 18  1  6
 17 19  1  0
 18 56  1  0
 18 57  1  0
 18 58  1  0
 19 20  1  0
 19 59  1  0
 19 60  1  0
 20 21  1  0
 20 61  1  0
 20 62  1  0
 21 22  1  0
 21 23  1  0
 21 63  1  6
 22 64  1  0
 23 24  1  0
 23 25  1  0
 23 26  1  0
 24 65  1  0
 24 66  1  0
 24 67  1  0
 25 68  1  0
 25 69  1  0
 25 70  1  0
 26 27  1  0
 26 71  1  6
 27 28  1  0
 27 72  1  0
 27 73  1  0
 28 29  1  0
 28 74  1  0
 28 75  1  0
 29 30  1  1
 30 76  1  0
 30 77  1  0
 30 78  1  0
 31 32  1  0
 31 79  1  6
 32 33  1  0
 32 80  1  1
 33 81  1  0
 33 82  1  0
 33 83  1  0
M  END
>  <i_m_ct_stereo_status>  (311) 
1

>  <s_m_source_file>  (311) 
/var/tmp/pbs.5076255.sched01/tmp0pz6dnip/90w4u7_w6b.sdf

>  <i_m_source_file_index>  (311) 
39

>  <i_lp_mmshare_version>  (311) 
48012

>  <i_f3d_flags>  (311) 
0

>  <s_epik_input>  (311) 
W0NIMl0xW0NIMl1bQ0BASF0oW0NIM10pW0NASF0oW0NIM10pW0NASF0oW0NAQF0xMkMoPU8pW09IXSlbQ0BASF0zW0NAXShbQ0gzXSkoW0NIMl1bQ0gyXTIpW0NAXTQoW0NIM10pW0NASF0oW0NIMl1bQ0gyXTMpW0NAXTUoW0NIM10pW0NASF0oW0NIMl1bQ0gyXTQpQyhbQ0gzXSkoW0NIM10pW0NASF0oW09IXSlbQ0gyXVtDSDJdNQ==

>  <s_epik_cmdline>  (311) 
J2VwaWtfcHl0aG9uJywgJy1waHQnLCAnMi4wJywgJy1waCcsICc3LjAnLCAnLXRuJywgJzgnLCAnLW1hJywgJzIwMCcsICctaW1hZScsICc8aW5maWxlLm1hZT4nLCAnLW9tYWUnLCAnPG91dGZpbGUubWFlPic=

>  <r_epik_Ionization_Penalty>  (311) 
2.37522

>  <r_epik_Ionization_Penalty_Charging>  (311) 
0

>  <r_epik_Ionization_Penalty_Neutral>  (311) 
2.37522

>  <r_epik_State_Penalty>  (311) 
2.53129

>  <r_epik_Charging_Adjusted_Penalty>  (311) 
2.53129

>  <i_epik_Tot_Q>  (311) 
0

>  <i_epik_Tot_abs_Q>  (311) 
0

>  <s_lp_Force_Field>  (311) 
OPLS3e

>  <r_lp_Energy>  (311) 
112.33

>  <b_lp_Chiralities_Consistent>  (311) 
1

>  <s_lp_Variant>  (311) 
81:0-2

>  <s_i_glide_gridfile>  (311) 
pfpi4k_grid

>  <i_i_glide_lignum>  (311) 
39

>  <i_i_glide_rotatable_bonds>  (311) 
3

>  <r_i_docking_score>  (311) 
-2.16971

>  <r_i_glide_ligand_efficiency>  (311) 
-0.0657489

>  <r_i_glide_ligand_efficiency_sa>  (311) 
-0.210892

>  <r_i_glide_ligand_efficiency_ln>  (311) 
-0.482533

>  <r_i_glide_gscore>  (311) 
-2.16971

>  <r_i_glide_lipo>  (311) 
-0.573883

>  <r_i_glide_hbond>  (311) 
-0.0694973

>  <r_i_glide_metal>  (311) 
-0

>  <r_i_glide_rewards>  (311) 
-0.28148

>  <r_i_glide_evdw>  (311) 
-25.9828

>  <r_i_glide_ecoul>  (311) 
-0.274393

>  <r_i_glide_erotb>  (311) 
0.095594

>  <r_i_glide_esite>  (311) 
-0.000147752

>  <r_i_glide_emodel>  (311) 
-23.6063

>  <r_i_glide_energy>  (311) 
-26.2572

>  <r_i_glide_einternal>  (311) 
2.26728

>  <r_i_glide_intrahb_reward>  (311) 
-0

>  <i_i_glide_confnum>  (311) 
3

>  <i_i_glide_posenum>  (311) 
21

>  <r_i_glide_eff_state_penalty>  (311) 
0

>  <ligand_id>  (311) 
81

>  <original_smiles>  (311) 
CC1CCC2(C(=O)O)CCC3(C)C(CCC4C5(C)CCC(O)C(C)(C)C5CCC43C)C2C1C

>  <smiles>  (311) 
[H]OC(=O)C12C([H])([H])C([H])([H])C([H])(C([H])([H])[H])C([H])(C([H])([H])[H])C1([H])C1([H])C([H])([H])C([H])([H])C3([H])C4(C([H])([H])[H])C([H])([H])C([H])([H])C([H])(O[H])C(C([H])([H])[H])(C([H])([H])[H])C4([H])C([H])([H])C([H])([H])C3(C([H])([H])[H])C1(C([H])([H])[H])C([H])([H])C2([H])[H]

$$$$
81:1:2
     RDKit          3D

 83 87  0  0  1  0  0  0  0  0999 V2000
   -1.9440   -8.2559    4.2855 C   0  0  0  0  0  0  0  0  0  0  0  0
   -0.4654   -8.2432    4.4399 C   0  0  2  0  0  0  0  0  0  0  0  0
   -0.0677   -8.1715    5.9278 C   0  0  0  0  0  0  0  0  0  0  0  0
    1.4446   -8.1050    6.0867 C   0  0  0  0  0  0  0  0  0  0  0  0
    2.1032   -6.9585    5.2800 C   0  0  1  0  0  0  0  0  0  0  0  0
    1.8516   -5.5897    6.0183 C   0  0  0  0  0  0  0  0  0  0  0  0
    2.7333   -4.9719    6.6317 O   0  0  0  0  0  0  0  0  0  0  0  0
    0.5757   -5.1518    5.9473 O   0  0  0  0  0  0  0  0  0  0  0  0
    3.6220   -7.2228    5.2890 C   0  0  0  0  0  0  0  0  0  0  0  0
    4.4338   -6.3677    4.2889 C   0  0  0  0  0  0  0  0  0  0  0  0
    3.9812   -6.5162    2.8037 C   0  0  1  0  0  0  0  0  0  0  0  0
    4.1883   -8.0002    2.3489 C   0  0  0  0  0  0  0  0  0  0  0  0
    2.4423   -6.2167    2.7722 C   0  0  2  0  0  0  0  0  0  0  0  0
    2.1440   -4.7142    2.9043 C   0  0  0  0  0  0  0  0  0  0  0  0
    2.8591   -3.9120    1.8397 C   0  0  0  0  0  0  0  0  0  0  0  0
    4.4120   -4.0221    1.9329 C   0  0  2  0  0  0  0  0  0  0  0  0
    5.0765   -2.9977    0.9071 C   0  0  1  0  0  0  0  0  0  0  0  0
    4.4550   -1.6094    1.2068 C   0  0  0  0  0  0  0  0  0  0  0  0
    6.6093   -2.8005    1.1000 C   0  0  0  0  0  0  0  0  0  0  0  0
    7.3107   -1.8887    0.0794 C   0  0  0  0  0  0  0  0  0  0  0  0
    7.0326   -2.4091   -1.3353 C   0  0  1  0  0  0  0  0  0  0  0  0
    7.9592   -3.4517   -1.5183 O   0  0  0  0  0  0  0  0  0  0  0  0
    5.5274   -2.6346   -1.6597 C   0  0  0  0  0  0  0  0  0  0  0  0
    4.8486   -1.2500   -1.8508 C   0  0  0  0  0  0  0  0  0  0  0  0
    5.3706   -3.2834   -3.0410 C   0  0  0  0  0  0  0  0  0  0  0  0
    4.7948   -3.4782   -0.5604 C   0  0  1  0  0  0  0  0  0  0  0  0
    5.1914   -4.9559   -0.6531 C   0  0  0  0  0  0  0  0  0  0  0  0
    4.5664   -5.9306    0.3290 C   0  0  0  0  0  0  0  0  0  0  0  0
    4.8159   -5.5520    1.8138 C   0  0  2  0  0  0  0  0  0  0  0  0
    6.3240   -5.7779    2.1414 C   0  0  0  0  0  0  0  0  0  0  0  0
    1.6312   -7.0817    3.7877 C   0  0  2  0  0  0  0  0  0  0  0  0
    0.0981   -7.0807    3.5904 C   0  0  1  0  0  0  0  0  0  0  0  0
   -0.3616   -7.2161    2.1315 C   0  0  0  0  0  0  0  0  0  0  0  0
   -2.3196   -7.2406    4.4485 H   0  0  0  0  0  0  0  0  0  0  0  0
   -2.3113   -8.9902    5.0153 H   0  0  0  0  0  0  0  0  0  0  0  0
   -2.3204   -8.6082    3.3338 H   0  0  0  0  0  0  0  0  0  0  0  0
   -0.1242   -9.2111    4.0699 H   0  0  0  0  0  0  0  0  0  0  0  0
   -0.5197   -7.3156    6.4255 H   0  0  0  0  0  0  0  0  0  0  0  0
   -0.4470   -9.0465    6.4649 H   0  0  0  0  0  0  0  0  0  0  0  0
    1.6891   -8.0161    7.1379 H   0  0  0  0  0  0  0  0  0  0  0  0
    1.8422   -9.0659    5.7623 H   0  0  0  0  0  0  0  0  0  0  0  0
    0.0541   -5.8000    5.4956 H   0  0  0  0  0  0  0  0  0  0  0  0
    3.9993   -7.0131    6.2858 H   0  0  0  0  0  0  0  0  0  0  0  0
    3.8140   -8.2828    5.1410 H   0  0  0  0  0  0  0  0  0  0  0  0
    4.3690   -5.3209    4.5887 H   0  0  0  0  0  0  0  0  0  0  0  0
    5.4824   -6.6261    4.4308 H   0  0  0  0  0  0  0  0  0  0  0  0
    3.6792   -8.1980    1.4095 H   0  0  0  0  0  0  0  0  0  0  0  0
    3.8063   -8.7278    3.0528 H   0  0  0  0  0  0  0  0  0  0  0  0
    5.2296   -8.2741    2.2130 H   0  0  0  0  0  0  0  0  0  0  0  0
    2.1196   -6.5206    1.7806 H   0  0  0  0  0  0  0  0  0  0  0  0
    1.0739   -4.5377    2.8292 H   0  0  0  0  0  0  0  0  0  0  0  0
    2.4716   -4.3023    3.8515 H   0  0  0  0  0  0  0  0  0  0  0  0
    2.4986   -4.2293    0.8624 H   0  0  0  0  0  0  0  0  0  0  0  0
    2.5027   -2.8913    1.9667 H   0  0  0  0  0  0  0  0  0  0  0  0
    4.7064   -3.6876    2.9269 H   0  0  0  0  0  0  0  0  0  0  0  0
    5.0919   -0.7648    0.9655 H   0  0  0  0  0  0  0  0  0  0  0  0
    4.2627   -1.5016    2.2724 H   0  0  0  0  0  0  0  0  0  0  0  0
    3.5244   -1.4635    0.6585 H   0  0  0  0  0  0  0  0  0  0  0  0
    6.7802   -2.4149    2.0908 H   0  0  0  0  0  0  0  0  0  0  0  0
    7.1642   -3.7226    1.0135 H   0  0  0  0  0  0  0  0  0  0  0  0
    7.0107   -0.8529    0.1944 H   0  0  0  0  0  0  0  0  0  0  0  0
    8.3856   -1.8660    0.2758 H   0  0  0  0  0  0  0  0  0  0  0  0
    7.3281   -1.7807   -2.1517 H   0  0  0  0  0  0  0  0  0  0  0  0
    8.7943   -3.0777   -1.8396 H   0  0  0  0  0  0  0  0  0  0  0  0
    3.7632   -1.3335   -1.8063 H   0  0  0  0  0  0  0  0  0  0  0  0
    5.0758   -0.7948   -2.8123 H   0  0  0  0  0  0  0  0  0  0  0  0
    5.1687   -0.5069   -1.1214 H   0  0  0  0  0  0  0  0  0  0  0  0
    4.3276   -3.5355   -3.2584 H   0  0  0  0  0  0  0  0  0  0  0  0
    5.9904   -4.1712   -3.1172 H   0  0  0  0  0  0  0  0  0  0  0  0
    5.7057   -2.6077   -3.8077 H   0  0  0  0  0  0  0  0  0  0  0  0
    3.7270   -3.4043   -0.7962 H   0  0  0  0  0  0  0  0  0  0  0  0
    4.9930   -5.3505   -1.6447 H   0  0  0  0  0  0  0  0  0  0  0  0
    6.2562   -4.9945   -0.5231 H   0  0  0  0  0  0  0  0  0  0  0  0
    3.5036   -6.0291    0.1082 H   0  0  0  0  0  0  0  0  0  0  0  0
    5.0072   -6.9040    0.1150 H   0  0  0  0  0  0  0  0  0  0  0  0
    6.9654   -5.7597    1.2703 H   0  0  0  0  0  0  0  0  0  0  0  0
    6.5565   -6.7474    2.5733 H   0  0  0  0  0  0  0  0  0  0  0  0
    6.6829   -5.0439    2.8598 H   0  0  0  0  0  0  0  0  0  0  0  0
    1.8589   -8.1097    3.5203 H   0  0  0  0  0  0  0  0  0  0  0  0
   -0.3400   -6.1397    3.9038 H   0  0  0  0  0  0  0  0  0  0  0  0
   -0.0156   -8.1501    1.6787 H   0  0  0  0  0  0  0  0  0  0  0  0
   -0.0332   -6.3689    1.5415 H   0  0  0  0  0  0  0  0  0  0  0  0
   -1.4490   -7.1931    2.0574 H   0  0  0  0  0  0  0  0  0  0  0  0
  1  2  1  0
  1 34  1  0
  1 35  1  0
  1 36  1  0
  2 32  1  0
  2  3  1  0
  2 37  1  6
  3  4  1  0
  3 38  1  0
  3 39  1  0
  4  5  1  0
  4 40  1  0
  4 41  1  0
  5 31  1  0
  5  6  1  1
  5  9  1  0
  6  7  2  0
  6  8  1  0
  8 42  1  0
  9 10  1  0
  9 43  1  0
  9 44  1  0
 10 11  1  0
 10 45  1  0
 10 46  1  0
 11 29  1  0
 11 12  1  6
 11 13  1  0
 12 47  1  0
 12 48  1  0
 12 49  1  0
 13 14  1  0
 13 31  1  0
 13 50  1  6
 14 15  1  0
 14 51  1  0
 14 52  1  0
 15 16  1  0
 15 53  1  0
 15 54  1  0
 16 29  1  0
 16 17  1  0
 16 55  1  1
 17 26  1  0
 17 18  1  6
 17 19  1  0
 18 56  1  0
 18 57  1  0
 18 58  1  0
 19 20  1  0
 19 59  1  0
 19 60  1  0
 20 21  1  0
 20 61  1  0
 20 62  1  0
 21 22  1  0
 21 23  1  0
 21 63  1  6
 22 64  1  0
 23 24  1  0
 23 25  1  0
 23 26  1  0
 24 65  1  0
 24 66  1  0
 24 67  1  0
 25 68  1  0
 25 69  1  0
 25 70  1  0
 26 27  1  0
 26 71  1  6
 27 28  1  0
 27 72  1  0
 27 73  1  0
 28 29  1  0
 28 74  1  0
 28 75  1  0
 29 30  1  1
 30 76  1  0
 30 77  1  0
 30 78  1  0
 31 32  1  0
 31 79  1  6
 32 33  1  0
 32 80  1  1
 33 81  1  0
 33 82  1  0
 33 83  1  0
M  END
>  <i_m_ct_stereo_status>  (312) 
1

>  <s_m_source_file>  (312) 
/var/tmp/pbs.5076255.sched01/tmp0pz6dnip/90w4u7_w6b.sdf

>  <i_m_source_file_index>  (312) 
39

>  <i_lp_mmshare_version>  (312) 
48012

>  <i_f3d_flags>  (312) 
0

>  <s_epik_input>  (312) 
W0NIMl0xW0NIMl1bQ0BASF0oW0NIM10pW0NASF0oW0NIM10pW0NASF0oW0NAQF0xMkMoPU8pW09IXSlbQ0BASF0zW0NAXShbQ0gzXSkoW0NIMl1bQ0gyXTIpW0NAXTQoW0NIM10pW0NASF0oW0NIMl1bQ0gyXTMpW0NAXTUoW0NIM10pW0NASF0oW0NIMl1bQ0gyXTQpQyhbQ0gzXSkoW0NIM10pW0NASF0oW09IXSlbQ0gyXVtDSDJdNQ==

>  <s_epik_cmdline>  (312) 
J2VwaWtfcHl0aG9uJywgJy1waHQnLCAnMi4wJywgJy1waCcsICc3LjAnLCAnLXRuJywgJzgnLCAnLW1hJywgJzIwMCcsICctaW1hZScsICc8aW5maWxlLm1hZT4nLCAnLW9tYWUnLCAnPG91dGZpbGUubWFlPic=

>  <r_epik_Ionization_Penalty>  (312) 
2.37522

>  <r_epik_Ionization_Penalty_Charging>  (312) 
0

>  <r_epik_Ionization_Penalty_Neutral>  (312) 
2.37522

>  <r_epik_State_Penalty>  (312) 
2.53129

>  <r_epik_Charging_Adjusted_Penalty>  (312) 
2.53129

>  <i_epik_Tot_Q>  (312) 
0

>  <i_epik_Tot_abs_Q>  (312) 
0

>  <s_lp_Force_Field>  (312) 
OPLS3e

>  <r_lp_Energy>  (312) 
112.33

>  <b_lp_Chiralities_Consistent>  (312) 
1

>  <s_lp_Variant>  (312) 
81:0-2

>  <s_i_glide_gridfile>  (312) 
pfpi4k_grid

>  <i_i_glide_lignum>  (312) 
39

>  <i_i_glide_rotatable_bonds>  (312) 
3

>  <r_i_docking_score>  (312) 
-2.01567

>  <r_i_glide_ligand_efficiency>  (312) 
-0.0610809

>  <r_i_glide_ligand_efficiency_sa>  (312) 
-0.195919

>  <r_i_glide_ligand_efficiency_ln>  (312) 
-0.448274

>  <r_i_glide_gscore>  (312) 
-2.01567

>  <r_i_glide_lipo>  (312) 
-0.56533

>  <r_i_glide_hbond>  (312) 
-0.0326905

>  <r_i_glide_metal>  (312) 
-0

>  <r_i_glide_rewards>  (312) 
-0.28148

>  <r_i_glide_evdw>  (312) 
-22.5429

>  <r_i_glide_ecoul>  (312) 
-0.69733

>  <r_i_glide_erotb>  (312) 
0.095594

>  <r_i_glide_esite>  (312) 
-1.55273e-05

>  <r_i_glide_emodel>  (312) 
-19.477

>  <r_i_glide_energy>  (312) 
-23.2403

>  <r_i_glide_einternal>  (312) 
4.38608

>  <r_i_glide_intrahb_reward>  (312) 
-0

>  <i_i_glide_confnum>  (312) 
6

>  <i_i_glide_posenum>  (312) 
9

>  <r_i_glide_eff_state_penalty>  (312) 
0

>  <ligand_id>  (312) 
81

>  <original_smiles>  (312) 
CC1CCC2(C(=O)O)CCC3(C)C(CCC4C5(C)CCC(O)C(C)(C)C5CCC43C)C2C1C

>  <smiles>  (312) 
[H]OC(=O)C12C([H])([H])C([H])([H])C([H])(C([H])([H])[H])C([H])(C([H])([H])[H])C1([H])C1([H])C([H])([H])C([H])([H])C3([H])C4(C([H])([H])[H])C([H])([H])C([H])([H])C([H])(O[H])C(C([H])([H])[H])(C([H])([H])[H])C4([H])C([H])([H])C([H])([H])C3(C([H])([H])[H])C1(C([H])([H])[H])C([H])([H])C2([H])[H]

$$$$
82:0:0
     RDKit          3D

 92 99  0  0  1  0  0  0  0  0999 V2000
    2.8334   -2.9169    1.2919 C   0  0  0  0  0  0  0  0  0  0  0  0
    3.9171   -2.6902    2.3430 C   0  0  0  0  0  0  0  0  0  0  0  0
    5.1998   -3.3537    1.8101 C   0  0  0  0  0  0  0  0  0  0  0  0
    4.0751   -1.2337    2.8059 C   0  0  0  0  0  0  0  0  0  0  0  0
    4.2898   -1.7063    4.2487 C   0  0  2  0  0  0  0  0  0  0  0  0
    3.5729   -2.9814    3.8240 C   0  0  1  0  0  0  0  0  0  0  0  0
    2.1305   -3.0749    4.2936 C   0  0  1  0  0  0  0  0  0  0  0  0
    1.3663   -4.3461    3.8930 C   0  0  1  0  0  0  0  0  0  0  0  0
    2.0460   -5.7078    3.6869 C   0  0  0  0  0  0  0  0  0  0  0  0
    1.5792   -6.1559    5.0810 C   0  0  2  0  0  0  0  0  0  0  0  0
    0.7595   -4.9021    5.1651 C   0  0  1  0  0  0  0  0  0  0  0  0
    1.5450   -4.3408    6.3561 C   0  0  1  0  0  0  0  0  0  0  0  0
    2.2679   -5.7596    6.3966 C   0  0  0  0  0  0  0  0  0  0  0  0
    1.8034   -6.6150    7.5813 C   0  0  0  0  0  0  0  0  0  0  0  0
    3.7748   -5.9933    6.3140 C   0  0  0  0  0  0  0  0  0  0  0  0
    1.9538   -2.8750    5.8393 C   0  0  2  0  0  0  0  0  0  0  0  0
    0.6072   -2.0900    5.9249 C   0  0  0  0  0  0  0  0  0  0  0  0
   -0.2077   -2.2317    6.8458 O   0  0  0  0  0  0  0  0  0  0  0  0
    3.1291   -1.9978    6.5558 C   0  0  2  0  0  0  0  0  0  0  0  0
    4.1801   -2.9973    7.1571 C   0  0  0  0  0  0  0  0  0  0  0  0
    3.8596   -3.5595    8.2440 O   0  0  0  0  0  0  0  0  0  0  0  0
    5.2686   -3.1882    6.6000 O   0  0  0  0  0  0  0  0  0  0  0  0
    2.6550   -1.2072    7.8318 C   0  0  0  0  0  0  0  0  0  0  0  0
    1.8812    0.1138    7.6464 C   0  0  0  0  0  0  0  0  0  0  0  0
    2.3061    1.0560    6.4938 C   0  0  1  0  0  0  0  0  0  0  0  0
    2.8803    0.3097    5.2469 C   0  0  1  0  0  0  0  0  0  0  0  0
    3.5050    1.4508    4.3952 C   0  0  0  0  0  0  0  0  0  0  0  0
    2.4629    2.4618    3.9379 C   0  0  0  0  0  0  0  0  0  0  0  0
    1.7640    3.2023    5.1083 C   0  0  1  0  0  0  0  0  0  0  0  0
    0.7258    4.2849    4.5826 C   0  0  0  0  0  0  0  0  0  0  0  0
    0.4330    5.3768    5.6507 C   0  0  0  0  0  0  0  0  0  0  0  0
    1.3095    5.1019    3.3978 C   0  0  0  0  0  0  0  0  0  0  0  0
   -0.6189    3.6245    4.1445 C   0  0  1  0  0  0  0  0  0  0  0  0
   -0.5407    2.9544    2.9012 O   0  0  0  0  0  0  0  0  0  0  0  0
   -1.1539    2.6101    5.1699 C   0  0  0  0  0  0  0  0  0  0  0  0
   -0.1016    1.5538    5.5642 C   0  0  0  0  0  0  0  0  0  0  0  0
    1.2078    2.1582    6.1570 C   0  0  1  0  0  0  0  0  0  0  0  0
    0.8714    2.8466    7.5111 C   0  0  0  0  0  0  0  0  0  0  0  0
    3.8399   -0.9298    5.5550 C   0  0  2  0  0  0  0  0  0  0  0  0
    5.1217   -0.3083    6.1854 C   0  0  0  0  0  0  0  0  0  0  0  0
    6.0327    0.1434    5.4900 O   0  0  0  0  0  0  0  0  0  0  0  0
    3.1354   -2.5440    0.3118 H   0  0  0  0  0  0  0  0  0  0  0  0
    1.9196   -2.3856    1.5477 H   0  0  0  0  0  0  0  0  0  0  0  0
    2.5856   -3.9738    1.1896 H   0  0  0  0  0  0  0  0  0  0  0  0
    6.0374   -3.2300    2.4922 H   0  0  0  0  0  0  0  0  0  0  0  0
    5.5044   -2.9224    0.8553 H   0  0  0  0  0  0  0  0  0  0  0  0
    5.0619   -4.4246    1.6616 H   0  0  0  0  0  0  0  0  0  0  0  0
    4.9356   -0.7222    2.3773 H   0  0  0  0  0  0  0  0  0  0  0  0
    3.1419   -0.6831    2.6624 H   0  0  0  0  0  0  0  0  0  0  0  0
    5.3406   -1.9916    4.3196 H   0  0  0  0  0  0  0  0  0  0  0  0
    4.1718   -3.8157    4.1540 H   0  0  0  0  0  0  0  0  0  0  0  0
    1.6286   -2.2586    3.7773 H   0  0  0  0  0  0  0  0  0  0  0  0
    0.6099   -4.1909    3.1282 H   0  0  0  0  0  0  0  0  0  0  0  0
    1.5726   -6.3043    2.8980 H   0  0  0  0  0  0  0  0  0  0  0  0
    3.1285   -5.7092    3.5774 H   0  0  0  0  0  0  0  0  0  0  0  0
    0.9649   -7.0492    5.1029 H   0  0  0  0  0  0  0  0  0  0  0  0
   -0.3208   -5.0229    5.2352 H   0  0  0  0  0  0  0  0  0  0  0  0
    0.9392   -4.3164    7.2628 H   0  0  0  0  0  0  0  0  0  0  0  0
    2.2054   -6.2312    8.5145 H   0  0  0  0  0  0  0  0  0  0  0  0
    2.1019   -7.6538    7.4800 H   0  0  0  0  0  0  0  0  0  0  0  0
    0.7230   -6.6020    7.6695 H   0  0  0  0  0  0  0  0  0  0  0  0
    4.2768   -5.8600    7.2720 H   0  0  0  0  0  0  0  0  0  0  0  0
    4.2562   -5.3516    5.5834 H   0  0  0  0  0  0  0  0  0  0  0  0
    3.9848   -7.0194    5.9983 H   0  0  0  0  0  0  0  0  0  0  0  0
    0.3896   -1.3894    5.1201 H   0  0  0  0  0  0  0  0  0  0  0  0
    2.0341   -1.8570    8.4525 H   0  0  0  0  0  0  0  0  0  0  0  0
    3.5078   -0.9868    8.4809 H   0  0  0  0  0  0  0  0  0  0  0  0
    0.8038   -0.0633    7.6441 H   0  0  0  0  0  0  0  0  0  0  0  0
    2.0332    0.6520    8.5809 H   0  0  0  0  0  0  0  0  0  0  0  0
    3.1510    1.6054    6.9209 H   0  0  0  0  0  0  0  0  0  0  0  0
    2.0570   -0.0902    4.6652 H   0  0  0  0  0  0  0  0  0  0  0  0
    4.2472    2.0011    4.9672 H   0  0  0  0  0  0  0  0  0  0  0  0
    4.0404    1.1019    3.5192 H   0  0  0  0  0  0  0  0  0  0  0  0
    3.0038    3.1649    3.3075 H   0  0  0  0  0  0  0  0  0  0  0  0
    1.7431    1.9569    3.2927 H   0  0  0  0  0  0  0  0  0  0  0  0
    2.5625    3.7550    5.6047 H   0  0  0  0  0  0  0  0  0  0  0  0
    0.2839    6.3700    5.2150 H   0  0  0  0  0  0  0  0  0  0  0  0
    1.2469    5.4792    6.3710 H   0  0  0  0  0  0  0  0  0  0  0  0
   -0.4849    5.1871    6.2052 H   0  0  0  0  0  0  0  0  0  0  0  0
    0.6344    5.8973    3.0691 H   0  0  0  0  0  0  0  0  0  0  0  0
    1.4753    4.4825    2.5233 H   0  0  0  0  0  0  0  0  0  0  0  0
    2.2651    5.5641    3.6515 H   0  0  0  0  0  0  0  0  0  0  0  0
   -1.3621    4.4114    4.0240 H   0  0  0  0  0  0  0  0  0  0  0  0
   -0.2417    3.5638    2.2097 H   0  0  0  0  0  0  0  0  0  0  0  0
   -1.5156    3.1215    6.0573 H   0  0  0  0  0  0  0  0  0  0  0  0
   -2.0316    2.1157    4.7554 H   0  0  0  0  0  0  0  0  0  0  0  0
   -0.5618    0.8476    6.2561 H   0  0  0  0  0  0  0  0  0  0  0  0
    0.1247    0.9776    4.6690 H   0  0  0  0  0  0  0  0  0  0  0  0
    0.1151    3.6173    7.4438 H   0  0  0  0  0  0  0  0  0  0  0  0
    1.7562    3.3016    7.9618 H   0  0  0  0  0  0  0  0  0  0  0  0
    0.4476    2.1559    8.2390 H   0  0  0  0  0  0  0  0  0  0  0  0
    5.1607   -0.2586    7.2697 H   0  0  0  0  0  0  0  0  0  0  0  0
  1  2  1  0
  1 42  1  0
  1 43  1  0
  1 44  1  0
  2  6  1  0
  2  3  1  0
  2  4  1  0
  3 45  1  0
  3 46  1  0
  3 47  1  0
  4  5  1  0
  4 48  1  0
  4 49  1  0
  5 39  1  0
  5  6  1  0
  5 50  1  1
  6  7  1  0
  6 51  1  1
  7 16  1  0
  7  8  1  0
  7 52  1  6
  8 11  1  0
  8  9  1  0
  8 53  1  6
  9 10  1  0
  9 54  1  0
  9 55  1  0
 10 13  1  0
 10 11  1  0
 10 56  1  6
 11 12  1  0
 11 57  1  1
 12 13  1  0
 12 16  1  0
 12 58  1  1
 13 14  1  0
 13 15  1  0
 14 59  1  0
 14 60  1  0
 14 61  1  0
 15 62  1  0
 15 63  1  0
 15 64  1  0
 16 17  1  6
 16 19  1  0
 17 18  2  0
 17 65  1  0
 19 39  1  0
 19 20  1  1
 19 23  1  0
 20 21  2  0
 20 22  1  0
 23 24  1  0
 23 66  1  0
 23 67  1  0
 24 25  1  0
 24 68  1  0
 24 69  1  0
 25 37  1  0
 25 26  1  0
 25 70  1  1
 26 27  1  0
 26 39  1  0
 26 71  1  6
 27 28  1  0
 27 72  1  0
 27 73  1  0
 28 29  1  0
 28 74  1  0
 28 75  1  0
 29 37  1  0
 29 30  1  0
 29 76  1  1
 30 31  1  0
 30 32  1  0
 30 33  1  0
 31 77  1  0
 31 78  1  0
 31 79  1  0
 32 80  1  0
 32 81  1  0
 32 82  1  0
 33 34  1  0
 33 35  1  0
 33 83  1  6
 34 84  1  0
 35 36  1  0
 35 85  1  0
 35 86  1  0
 36 37  1  0
 36 87  1  0
 36 88  1  0
 37 38  1  1
 38 89  1  0
 38 90  1  0
 38 91  1  0
 39 40  1  1
 40 41  2  0
 40 92  1  0
M  CHG  1  22  -1
M  END
>  <i_m_ct_stereo_status>  (313) 
1

>  <s_m_source_file>  (313) 
/var/tmp/pbs.5076255.sched01/tmp0pz6dnip/90w4u7_w6b.sdf

>  <i_m_source_file_index>  (313) 
40

>  <i_lp_mmshare_version>  (313) 
48012

>  <i_f3d_flags>  (313) 
0

>  <s_epik_input>  (313) 
W0NASF0xMkMoW0NIM10pKFtDSDNdKVtDQEhdKFtDSDJdMylbQ0BASF0xW0NASF0zW0NAQEhdKFtDQEBdMjRbQ0hdPU8pW0NAQEhdNVtDQEBIXShbQ0gyXUM1KFtDSDNdKVtDSDNdKVtDQF02KFtDSF09TylbQ0BAXTQoQyg9TylbT0hdKVtDSDJdW0NIMl1bQ0BIXTdbQ0BIXTZbQ0gyXVtDSDJdW0NAQEhdOFtDQEBdNyhbQ0gzXSlbQ0gyXVtDSDJdW0NASF0oW09IXSlDOChbQ0gzXSlbQ0gzXQ==

>  <s_epik_cmdline>  (313) 
J2VwaWtfcHl0aG9uJywgJy1waHQnLCAnMi4wJywgJy1waCcsICc3LjAnLCAnLXRuJywgJzgnLCAnLW1hJywgJzIwMCcsICctaW1hZScsICc8aW5maWxlLm1hZT4nLCAnLW9tYWUnLCAnPG91dGZpbGUubWFlPic=

>  <r_epik_Ionization_Penalty>  (313) 
0.00179308

>  <r_epik_Ionization_Penalty_Charging>  (313) 
0.00179028

>  <r_epik_Ionization_Penalty_Neutral>  (313) 
2.80606e-06

>  <r_epik_State_Penalty>  (313) 
0.00121381

>  <r_epik_Charging_Adjusted_Penalty>  (313) 
0.00300409

>  <i_epik_Tot_Q>  (313) 
-1

>  <i_epik_Tot_abs_Q>  (313) 
1

>  <s_lp_Force_Field>  (313) 
OPLS3e

>  <r_lp_Energy>  (313) 
159.771

>  <b_lp_Chiralities_Consistent>  (313) 
1

>  <s_lp_Variant>  (313) 
82:0-1

>  <s_i_glide_gridfile>  (313) 
pfpi4k_grid

>  <i_i_glide_lignum>  (313) 
40

>  <i_i_glide_rotatable_bonds>  (313) 
4

>  <r_i_docking_score>  (313) 
-1.88795

>  <r_i_glide_ligand_efficiency>  (313) 
-0.0460476

>  <r_i_glide_ligand_efficiency_sa>  (313) 
-0.158782

>  <r_i_glide_ligand_efficiency_ln>  (313) 
-0.400536

>  <r_i_glide_gscore>  (313) 
-1.88795

>  <r_i_glide_lipo>  (313) 
-0.0596163

>  <r_i_glide_hbond>  (313) 
-0.16

>  <r_i_glide_metal>  (313) 
-0

>  <r_i_glide_rewards>  (313) 
-0.00990904

>  <r_i_glide_evdw>  (313) 
-17.7534

>  <r_i_glide_ecoul>  (313) 
-5.07688

>  <r_i_glide_erotb>  (313) 
0

>  <r_i_glide_esite>  (313) 
-0.00922415

>  <r_i_glide_emodel>  (313) 
-25.3167

>  <r_i_glide_energy>  (313) 
-22.8303

>  <r_i_glide_einternal>  (313) 
0.86478

>  <r_i_glide_intrahb_reward>  (313) 
-0

>  <i_i_glide_confnum>  (313) 
2

>  <i_i_glide_posenum>  (313) 
15

>  <r_i_glide_eff_state_penalty>  (313) 
0

>  <ligand_id>  (313) 
82

>  <original_smiles>  (313) 
CC1(C)CC2C1C1C3CC4C3C(C4(C)C)C1(C=O)C1(C(=O)O)CCC3C(CCC4C(C)(C)C(O)CCC34C)C21C=O

>  <smiles>  (313) 
[H]OC1([H])C([H])([H])C([H])([H])C2(C([H])([H])[H])C3([H])C([H])([H])C([H])([H])C4(C(=O)[O-])C(C([H])=O)(C5([H])C([H])([H])C(C([H])([H])[H])(C([H])([H])[H])C5([H])C5([H])C6([H])C([H])([H])C7([H])C6([H])C([H])(C54C([H])=O)C7(C([H])([H])[H])C([H])([H])[H])C3([H])C([H])([H])C([H])([H])C2([H])C1(C([H])([H])[H])C([H])([H])[H]

$$$$
82:0:1
     RDKit          3D

 92 99  0  0  1  0  0  0  0  0999 V2000
    5.1876  -10.0188    1.5726 C   0  0  0  0  0  0  0  0  0  0  0  0
    5.4273   -9.1894    2.7834 C   0  0  0  0  0  0  0  0  0  0  0  0
    6.2027  -10.0911    3.7637 C   0  0  0  0  0  0  0  0  0  0  0  0
    6.0123   -7.8044    2.5182 C   0  0  0  0  0  0  0  0  0  0  0  0
    5.1016   -7.2284    3.6109 C   0  0  2  0  0  0  0  0  0  0  0  0
    4.2222   -8.4429    3.3835 C   0  0  1  0  0  0  0  0  0  0  0  0
    2.9702   -8.1713    2.5544 C   0  0  1  0  0  0  0  0  0  0  0  0
    2.0371   -9.3771    2.3172 C   0  0  1  0  0  0  0  0  0  0  0  0
    1.9053  -10.5397    3.3047 C   0  0  0  0  0  0  0  0  0  0  0  0
    0.5968   -9.9522    3.8419 C   0  0  2  0  0  0  0  0  0  0  0  0
    0.6616   -8.9235    2.7476 C   0  0  1  0  0  0  0  0  0  0  0  0
    0.8005   -7.7341    3.6953 C   0  0  1  0  0  0  0  0  0  0  0  0
    0.5455   -8.7947    4.8387 C   0  0  0  0  0  0  0  0  0  0  0  0
   -0.8181   -8.6061    5.4203 C   0  0  0  0  0  0  0  0  0  0  0  0
    1.4116   -9.0450    6.0610 C   0  0  0  0  0  0  0  0  0  0  0  0
    2.1145   -6.9986    3.1399 C   0  0  2  0  0  0  0  0  0  0  0  0
    1.4419   -6.2750    1.9293 C   0  0  0  0  0  0  0  0  0  0  0  0
    1.6507   -6.5367    0.7480 O   0  0  0  0  0  0  0  0  0  0  0  0
    2.9221   -5.8915    4.0194 C   0  0  2  0  0  0  0  0  0  0  0  0
    2.7525   -6.2550    5.5346 C   0  0  0  0  0  0  0  0  0  0  0  0
    1.6787   -5.8981    6.0932 O   0  0  0  0  0  0  0  0  0  0  0  0
    3.6602   -6.8508    6.1412 O   0  0  0  0  0  0  0  0  0  0  0  0
    2.3147   -4.4356    3.9642 C   0  0  0  0  0  0  0  0  0  0  0  0
    2.5735   -3.5669    2.7234 C   0  0  0  0  0  0  0  0  0  0  0  0
    3.9695   -3.6257    2.0857 C   0  0  1  0  0  0  0  0  0  0  0  0
    4.6473   -5.0301    2.2143 C   0  0  1  0  0  0  0  0  0  0  0  0
    6.1115   -4.7703    1.7737 C   0  0  0  0  0  0  0  0  0  0  0  0
    6.1920   -4.2936    0.3339 C   0  0  0  0  0  0  0  0  0  0  0  0
    5.4640   -2.9408    0.0928 C   0  0  1  0  0  0  0  0  0  0  0  0
    5.6275   -2.4396   -1.3843 C   0  0  0  0  0  0  0  0  0  0  0  0
    5.3894   -0.9217   -1.5149 C   0  0  0  0  0  0  0  0  0  0  0  0
    7.0985   -2.6730   -1.8355 C   0  0  0  0  0  0  0  0  0  0  0  0
    4.6085   -3.0633   -2.3808 C   0  0  1  0  0  0  0  0  0  0  0  0
    4.9980   -4.3228   -2.7932 O   0  0  0  0  0  0  0  0  0  0  0  0
    3.1898   -3.1952   -1.8404 C   0  0  0  0  0  0  0  0  0  0  0  0
    3.1405   -3.8000   -0.4168 C   0  0  0  0  0  0  0  0  0  0  0  0
    3.9924   -3.0039    0.6293 C   0  0  1  0  0  0  0  0  0  0  0  0
    3.3889   -1.5804    0.7698 C   0  0  0  0  0  0  0  0  0  0  0  0
    4.4888   -5.7620    3.6119 C   0  0  2  0  0  0  0  0  0  0  0  0
    5.2622   -4.8551    4.6157 C   0  0  0  0  0  0  0  0  0  0  0  0
    6.2477   -5.2276    5.2455 O   0  0  0  0  0  0  0  0  0  0  0  0
    6.1010  -10.4532    1.1549 H   0  0  0  0  0  0  0  0  0  0  0  0
    4.6898   -9.4530    0.7774 H   0  0  0  0  0  0  0  0  0  0  0  0
    4.5147  -10.7953    1.9241 H   0  0  0  0  0  0  0  0  0  0  0  0
    6.4308   -9.5904    4.6971 H   0  0  0  0  0  0  0  0  0  0  0  0
    7.1450  -10.4316    3.3287 H   0  0  0  0  0  0  0  0  0  0  0  0
    5.6212  -10.9847    4.0152 H   0  0  0  0  0  0  0  0  0  0  0  0
    7.0699   -7.7370    2.7584 H   0  0  0  0  0  0  0  0  0  0  0  0
    5.7483   -7.4790    1.4974 H   0  0  0  0  0  0  0  0  0  0  0  0
    5.5670   -7.4665    4.5727 H   0  0  0  0  0  0  0  0  0  0  0  0
    3.9906   -8.8725    4.3408 H   0  0  0  0  0  0  0  0  0  0  0  0
    3.3461   -7.8819    1.5836 H   0  0  0  0  0  0  0  0  0  0  0  0
    2.0006   -9.7565    1.2925 H   0  0  0  0  0  0  0  0  0  0  0  0
    1.6800  -11.4978    2.8140 H   0  0  0  0  0  0  0  0  0  0  0  0
    2.6663  -10.6544    4.0766 H   0  0  0  0  0  0  0  0  0  0  0  0
   -0.2923  -10.5343    3.7016 H   0  0  0  0  0  0  0  0  0  0  0  0
   -0.1843   -8.9898    2.0687 H   0  0  0  0  0  0  0  0  0  0  0  0
   -0.0925   -7.1070    3.6357 H   0  0  0  0  0  0  0  0  0  0  0  0
   -0.6969   -7.6304    5.8659 H   0  0  0  0  0  0  0  0  0  0  0  0
   -1.0691   -9.3843    6.1432 H   0  0  0  0  0  0  0  0  0  0  0  0
   -1.6023   -8.5598    4.6778 H   0  0  0  0  0  0  0  0  0  0  0  0
    1.2628   -8.2980    6.8496 H   0  0  0  0  0  0  0  0  0  0  0  0
    2.4676   -9.0763    5.7941 H   0  0  0  0  0  0  0  0  0  0  0  0
    1.1655  -10.0134    6.5043 H   0  0  0  0  0  0  0  0  0  0  0  0
    0.7258   -5.5026    2.1995 H   0  0  0  0  0  0  0  0  0  0  0  0
    1.2344   -4.4774    4.1067 H   0  0  0  0  0  0  0  0  0  0  0  0
    2.6645   -3.8591    4.8248 H   0  0  0  0  0  0  0  0  0  0  0  0
    1.7927   -3.6524    1.9702 H   0  0  0  0  0  0  0  0  0  0  0  0
    2.4393   -2.5503    3.0851 H   0  0  0  0  0  0  0  0  0  0  0  0
    4.5607   -2.9307    2.6917 H   0  0  0  0  0  0  0  0  0  0  0  0
    4.1945   -5.6874    1.4788 H   0  0  0  0  0  0  0  0  0  0  0  0
    6.5552   -3.9905    2.3895 H   0  0  0  0  0  0  0  0  0  0  0  0
    6.7796   -5.6192    1.8845 H   0  0  0  0  0  0  0  0  0  0  0  0
    7.2588   -4.1923    0.1371 H   0  0  0  0  0  0  0  0  0  0  0  0
    5.8154   -5.0740   -0.3308 H   0  0  0  0  0  0  0  0  0  0  0  0
    6.0113   -2.2164    0.7069 H   0  0  0  0  0  0  0  0  0  0  0  0
    5.9660   -0.5182   -2.3188 H   0  0  0  0  0  0  0  0  0  0  0  0
    5.6154   -0.3740   -0.5932 H   0  0  0  0  0  0  0  0  0  0  0  0
    4.3739   -0.6847   -1.8467 H   0  0  0  0  0  0  0  0  0  0  0  0
    7.2647   -2.2953   -2.8032 H   0  0  0  0  0  0  0  0  0  0  0  0
    7.3465   -3.7263   -1.9804 H   0  0  0  0  0  0  0  0  0  0  0  0
    7.8418   -2.2252   -1.1553 H   0  0  0  0  0  0  0  0  0  0  0  0
    4.6015   -2.5090   -3.3154 H   0  0  0  0  0  0  0  0  0  0  0  0
    4.8474   -4.9149   -2.0551 H   0  0  0  0  0  0  0  0  0  0  0  0
    2.7098   -2.2264   -1.8482 H   0  0  0  0  0  0  0  0  0  0  0  0
    2.5901   -3.8055   -2.5167 H   0  0  0  0  0  0  0  0  0  0  0  0
    2.0983   -3.8575   -0.1068 H   0  0  0  0  0  0  0  0  0  0  0  0
    3.4863   -4.8338   -0.4554 H   0  0  0  0  0  0  0  0  0  0  0  0
    3.3124   -1.0396   -0.1602 H   0  0  0  0  0  0  0  0  0  0  0  0
    3.9610   -0.9575    1.4637 H   0  0  0  0  0  0  0  0  0  0  0  0
    2.3504   -1.5996    1.0988 H   0  0  0  0  0  0  0  0  0  0  0  0
    4.9007   -3.8269    4.6918 H   0  0  0  0  0  0  0  0  0  0  0  0
  1  2  1  0
  1 42  1  0
  1 43  1  0
  1 44  1  0
  2  6  1  0
  2  3  1  0
  2  4  1  0
  3 45  1  0
  3 46  1  0
  3 47  1  0
  4  5  1  0
  4 48  1  0
  4 49  1  0
  5 39  1  0
  5  6  1  0
  5 50  1  1
  6  7  1  0
  6 51  1  1
  7 16  1  0
  7  8  1  0
  7 52  1  6
  8 11  1  0
  8  9  1  0
  8 53  1  6
  9 10  1  0
  9 54  1  0
  9 55  1  0
 10 13  1  0
 10 11  1  0
 10 56  1  6
 11 12  1  0
 11 57  1  6
 12 13  1  0
 12 16  1  0
 12 58  1  6
 13 14  1  0
 13 15  1  0
 14 59  1  0
 14 60  1  0
 14 61  1  0
 15 62  1  0
 15 63  1  0
 15 64  1  0
 16 17  1  6
 16 19  1  0
 17 18  2  0
 17 65  1  0
 19 39  1  0
 19 20  1  1
 19 23  1  0
 20 21  2  0
 20 22  1  0
 23 24  1  0
 23 66  1  0
 23 67  1  0
 24 25  1  0
 24 68  1  0
 24 69  1  0
 25 37  1  0
 25 26  1  0
 25 70  1  1
 26 27  1  0
 26 39  1  0
 26 71  1  6
 27 28  1  0
 27 72  1  0
 27 73  1  0
 28 29  1  0
 28 74  1  0
 28 75  1  0
 29 37  1  0
 29 30  1  0
 29 76  1  1
 30 31  1  0
 30 32  1  0
 30 33  1  0
 31 77  1  0
 31 78  1  0
 31 79  1  0
 32 80  1  0
 32 81  1  0
 32 82  1  0
 33 34  1  0
 33 35  1  0
 33 83  1  6
 34 84  1  0
 35 36  1  0
 35 85  1  0
 35 86  1  0
 36 37  1  0
 36 87  1  0
 36 88  1  0
 37 38  1  1
 38 89  1  0
 38 90  1  0
 38 91  1  0
 39 40  1  1
 40 41  2  0
 40 92  1  0
M  CHG  1  22  -1
M  END
>  <i_m_ct_stereo_status>  (314) 
1

>  <s_m_source_file>  (314) 
/var/tmp/pbs.5076255.sched01/tmp0pz6dnip/90w4u7_w6b.sdf

>  <i_m_source_file_index>  (314) 
40

>  <i_lp_mmshare_version>  (314) 
48012

>  <i_f3d_flags>  (314) 
0

>  <s_epik_input>  (314) 
W0NASF0xMkMoW0NIM10pKFtDSDNdKVtDQEhdKFtDSDJdMylbQ0BASF0xW0NASF0zW0NAQEhdKFtDQEBdMjRbQ0hdPU8pW0NAQEhdNVtDQEBIXShbQ0gyXUM1KFtDSDNdKVtDSDNdKVtDQF02KFtDSF09TylbQ0BAXTQoQyg9TylbT0hdKVtDSDJdW0NIMl1bQ0BIXTdbQ0BIXTZbQ0gyXVtDSDJdW0NAQEhdOFtDQEBdNyhbQ0gzXSlbQ0gyXVtDSDJdW0NASF0oW09IXSlDOChbQ0gzXSlbQ0gzXQ==

>  <s_epik_cmdline>  (314) 
J2VwaWtfcHl0aG9uJywgJy1waHQnLCAnMi4wJywgJy1waCcsICc3LjAnLCAnLXRuJywgJzgnLCAnLW1hJywgJzIwMCcsICctaW1hZScsICc8aW5maWxlLm1hZT4nLCAnLW9tYWUnLCAnPG91dGZpbGUubWFlPic=

>  <r_epik_Ionization_Penalty>  (314) 
0.00179308

>  <r_epik_Ionization_Penalty_Charging>  (314) 
0.00179028

>  <r_epik_Ionization_Penalty_Neutral>  (314) 
2.80606e-06

>  <r_epik_State_Penalty>  (314) 
0.00121381

>  <r_epik_Charging_Adjusted_Penalty>  (314) 
0.00300409

>  <i_epik_Tot_Q>  (314) 
-1

>  <i_epik_Tot_abs_Q>  (314) 
1

>  <s_lp_Force_Field>  (314) 
OPLS3e

>  <r_lp_Energy>  (314) 
159.771

>  <b_lp_Chiralities_Consistent>  (314) 
1

>  <s_lp_Variant>  (314) 
82:0-1

>  <s_i_glide_gridfile>  (314) 
pfpi4k_grid

>  <i_i_glide_lignum>  (314) 
40

>  <i_i_glide_rotatable_bonds>  (314) 
4

>  <r_i_docking_score>  (314) 
-1.80432

>  <r_i_glide_ligand_efficiency>  (314) 
-0.0440077

>  <r_i_glide_ligand_efficiency_sa>  (314) 
-0.151748

>  <r_i_glide_ligand_efficiency_ln>  (314) 
-0.382792

>  <r_i_glide_gscore>  (314) 
-1.80432

>  <r_i_glide_lipo>  (314) 
-0.449523

>  <r_i_glide_hbond>  (314) 
-0.0123768

>  <r_i_glide_metal>  (314) 
-0

>  <r_i_glide_rewards>  (314) 
-0.000599978

>  <r_i_glide_evdw>  (314) 
-21.8378

>  <r_i_glide_ecoul>  (314) 
-1.33029

>  <r_i_glide_erotb>  (314) 
0

>  <r_i_glide_esite>  (314) 
-0.0503842

>  <r_i_glide_emodel>  (314) 
-23.8732

>  <r_i_glide_energy>  (314) 
-23.1681

>  <r_i_glide_einternal>  (314) 
2.03942

>  <r_i_glide_intrahb_reward>  (314) 
-0

>  <i_i_glide_confnum>  (314) 
2

>  <i_i_glide_posenum>  (314) 
11

>  <r_i_glide_eff_state_penalty>  (314) 
0

>  <ligand_id>  (314) 
82

>  <original_smiles>  (314) 
CC1(C)CC2C1C1C3CC4C3C(C4(C)C)C1(C=O)C1(C(=O)O)CCC3C(CCC4C(C)(C)C(O)CCC34C)C21C=O

>  <smiles>  (314) 
[H]OC1([H])C([H])([H])C([H])([H])C2(C([H])([H])[H])C3([H])C([H])([H])C([H])([H])C4(C(=O)[O-])C(C([H])=O)(C5([H])C([H])([H])C(C([H])([H])[H])(C([H])([H])[H])C5([H])C5([H])C6([H])C([H])([H])C7([H])C6([H])C([H])(C54C([H])=O)C7(C([H])([H])[H])C([H])([H])[H])C3([H])C([H])([H])C([H])([H])C2([H])C1(C([H])([H])[H])C([H])([H])[H]

$$$$
82:0:2
     RDKit          3D

 92 99  0  0  1  0  0  0  0  0999 V2000
   -1.0551   -2.3161    6.4438 C   0  0  0  0  0  0  0  0  0  0  0  0
    0.2885   -1.8238    6.9340 C   0  0  0  0  0  0  0  0  0  0  0  0
    0.2335   -1.6527    8.4677 C   0  0  0  0  0  0  0  0  0  0  0  0
    1.4685   -2.6599    6.4219 C   0  0  0  0  0  0  0  0  0  0  0  0
    2.2807   -1.3873    6.1862 C   0  0  2  0  0  0  0  0  0  0  0  0
    0.9464   -0.6624    6.1620 C   0  0  1  0  0  0  0  0  0  0  0  0
    0.4595   -0.2746    4.7822 C   0  0  1  0  0  0  0  0  0  0  0  0
   -0.8853    0.4689    4.7056 C   0  0  1  0  0  0  0  0  0  0  0  0
   -1.4040    1.3843    5.8141 C   0  0  0  0  0  0  0  0  0  0  0  0
   -0.9502    2.6227    5.0228 C   0  0  2  0  0  0  0  0  0  0  0  0
   -0.6405    1.7066    3.8704 C   0  0  1  0  0  0  0  0  0  0  0  0
    0.8613    2.0110    3.8828 C   0  0  1  0  0  0  0  0  0  0  0  0
    0.5011    3.1343    4.9453 C   0  0  0  0  0  0  0  0  0  0  0  0
    0.5951    4.5502    4.3574 C   0  0  0  0  0  0  0  0  0  0  0  0
    1.0945    3.2588    6.3426 C   0  0  0  0  0  0  0  0  0  0  0  0
    1.5048    0.5493    3.9657 C   0  0  2  0  0  0  0  0  0  0  0  0
    1.2662    0.1549    2.4793 C   0  0  0  0  0  0  0  0  0  0  0  0
    0.9224   -0.9614    2.1362 O   0  0  0  0  0  0  0  0  0  0  0  0
    3.0567    0.2902    4.3963 C   0  0  2  0  0  0  0  0  0  0  0  0
    3.4632    1.4436    5.3887 C   0  0  0  0  0  0  0  0  0  0  0  0
    3.7652    2.5551    4.8862 O   0  0  0  0  0  0  0  0  0  0  0  0
    3.5278    1.2285    6.6106 O   0  0  0  0  0  0  0  0  0  0  0  0
    4.0569    0.4883    3.2136 C   0  0  0  0  0  0  0  0  0  0  0  0
    4.2495   -0.6411    2.1842 C   0  0  0  0  0  0  0  0  0  0  0  0
    4.2489   -2.1019    2.6969 C   0  0  1  0  0  0  0  0  0  0  0  0
    3.3229   -2.3196    3.9399 C   0  0  1  0  0  0  0  0  0  0  0  0
    3.6867   -3.7426    4.4307 C   0  0  0  0  0  0  0  0  0  0  0  0
    3.3788   -4.7984    3.3781 C   0  0  0  0  0  0  0  0  0  0  0  0
    4.2000   -4.6309    2.0782 C   0  0  1  0  0  0  0  0  0  0  0  0
    3.8724   -5.7858    1.0453 C   0  0  0  0  0  0  0  0  0  0  0  0
    5.0103   -5.9518    0.0198 C   0  0  0  0  0  0  0  0  0  0  0  0
    3.8201   -7.1769    1.7321 C   0  0  0  0  0  0  0  0  0  0  0  0
    2.5437   -5.5352    0.2811 C   0  0  1  0  0  0  0  0  0  0  0  0
    1.3925   -5.8512    1.0200 O   0  0  0  0  0  0  0  0  0  0  0  0
    2.4350   -4.1238   -0.2841 C   0  0  0  0  0  0  0  0  0  0  0  0
    2.6851   -3.0737    0.8096 C   0  0  0  0  0  0  0  0  0  0  0  0
    4.0672   -3.1639    1.5241 C   0  0  1  0  0  0  0  0  0  0  0  0
    5.1645   -2.8364    0.4764 C   0  0  0  0  0  0  0  0  0  0  0  0
    3.3418   -1.1644    5.0328 C   0  0  2  0  0  0  0  0  0  0  0  0
    4.7550   -1.2420    5.6825 C   0  0  0  0  0  0  0  0  0  0  0  0
    5.0020   -2.0239    6.5809 O   0  0  0  0  0  0  0  0  0  0  0  0
   -1.4205   -3.1707    7.0109 H   0  0  0  0  0  0  0  0  0  0  0  0
   -1.0105   -2.6360    5.4084 H   0  0  0  0  0  0  0  0  0  0  0  0
   -1.7861   -1.5119    6.4456 H   0  0  0  0  0  0  0  0  0  0  0  0
    1.1873   -1.3305    8.8765 H   0  0  0  0  0  0  0  0  0  0  0  0
   -0.0192   -2.5869    8.9779 H   0  0  0  0  0  0  0  0  0  0  0  0
   -0.4839   -0.8868    8.7657 H   0  0  0  0  0  0  0  0  0  0  0  0
    1.8992   -3.3302    7.1635 H   0  0  0  0  0  0  0  0  0  0  0  0
    1.1930   -3.1692    5.4958 H   0  0  0  0  0  0  0  0  0  0  0  0
    2.7054   -1.1323    7.1572 H   0  0  0  0  0  0  0  0  0  0  0  0
    1.0273    0.1746    6.8316 H   0  0  0  0  0  0  0  0  0  0  0  0
    0.2922   -1.2272    4.3066 H   0  0  0  0  0  0  0  0  0  0  0  0
   -1.7091   -0.1125    4.2899 H   0  0  0  0  0  0  0  0  0  0  0  0
   -2.5008    1.3641    5.9098 H   0  0  0  0  0  0  0  0  0  0  0  0
   -0.9155    1.3115    6.7797 H   0  0  0  0  0  0  0  0  0  0  0  0
   -1.7255    3.3103    4.7295 H   0  0  0  0  0  0  0  0  0  0  0  0
   -1.2203    1.8640    2.9623 H   0  0  0  0  0  0  0  0  0  0  0  0
    1.1511    2.5758    2.9898 H   0  0  0  0  0  0  0  0  0  0  0  0
    1.6344    4.8332    4.2059 H   0  0  0  0  0  0  0  0  0  0  0  0
    0.1232    5.2918    4.9962 H   0  0  0  0  0  0  0  0  0  0  0  0
    0.1132    4.5982    3.3874 H   0  0  0  0  0  0  0  0  0  0  0  0
    2.0683    3.7480    6.3470 H   0  0  0  0  0  0  0  0  0  0  0  0
    1.1949    2.2946    6.8284 H   0  0  0  0  0  0  0  0  0  0  0  0
    0.4407    3.8536    6.9877 H   0  0  0  0  0  0  0  0  0  0  0  0
    1.4247    0.9194    1.7171 H   0  0  0  0  0  0  0  0  0  0  0  0
    3.6979    1.3509    2.6584 H   0  0  0  0  0  0  0  0  0  0  0  0
    5.0469    0.7592    3.5991 H   0  0  0  0  0  0  0  0  0  0  0  0
    3.5947   -0.4889    1.3201 H   0  0  0  0  0  0  0  0  0  0  0  0
    5.2422   -0.4550    1.7776 H   0  0  0  0  0  0  0  0  0  0  0  0
    5.2746   -2.2515    3.0598 H   0  0  0  0  0  0  0  0  0  0  0  0
    2.2916   -2.4051    3.6178 H   0  0  0  0  0  0  0  0  0  0  0  0
    4.7495   -3.8211    4.6488 H   0  0  0  0  0  0  0  0  0  0  0  0
    3.1849   -4.0294    5.3488 H   0  0  0  0  0  0  0  0  0  0  0  0
    3.6098   -5.7521    3.8512 H   0  0  0  0  0  0  0  0  0  0  0  0
    2.3078   -4.8019    3.1768 H   0  0  0  0  0  0  0  0  0  0  0  0
    5.2414   -4.7646    2.3806 H   0  0  0  0  0  0  0  0  0  0  0  0
    5.1115   -6.9991   -0.2626 H   0  0  0  0  0  0  0  0  0  0  0  0
    5.9828   -5.6125    0.3876 H   0  0  0  0  0  0  0  0  0  0  0  0
    4.8219   -5.4568   -0.9289 H   0  0  0  0  0  0  0  0  0  0  0  0
    3.7027   -7.9922    1.0089 H   0  0  0  0  0  0  0  0  0  0  0  0
    2.9872   -7.2835    2.4182 H   0  0  0  0  0  0  0  0  0  0  0  0
    4.7338   -7.3830    2.2980 H   0  0  0  0  0  0  0  0  0  0  0  0
    2.4935   -6.2341   -0.5328 H   0  0  0  0  0  0  0  0  0  0  0  0
    1.4956   -6.7539    1.3282 H   0  0  0  0  0  0  0  0  0  0  0  0
    3.1241   -3.9699   -1.1074 H   0  0  0  0  0  0  0  0  0  0  0  0
    1.4511   -3.9812   -0.7324 H   0  0  0  0  0  0  0  0  0  0  0  0
    2.5408   -2.0882    0.3692 H   0  0  0  0  0  0  0  0  0  0  0  0
    1.9081   -3.2378    1.5461 H   0  0  0  0  0  0  0  0  0  0  0  0
    5.1410   -3.4643   -0.4038 H   0  0  0  0  0  0  0  0  0  0  0  0
    6.1660   -2.9076    0.9048 H   0  0  0  0  0  0  0  0  0  0  0  0
    5.0513   -1.8361    0.0562 H   0  0  0  0  0  0  0  0  0  0  0  0
    5.5282   -0.5924    5.2626 H   0  0  0  0  0  0  0  0  0  0  0  0
  1  2  1  0
  1 42  1  0
  1 43  1  0
  1 44  1  0
  2  6  1  0
  2  3  1  0
  2  4  1  0
  3 45  1  0
  3 46  1  0
  3 47  1  0
  4  5  1  0
  4 48  1  0
  4 49  1  0
  5 39  1  0
  5  6  1  0
  5 50  1  1
  6  7  1  0
  6 51  1  1
  7 16  1  0
  7  8  1  0
  7 52  1  6
  8 11  1  0
  8  9  1  0
  8 53  1  6
  9 10  1  0
  9 54  1  0
  9 55  1  0
 10 13  1  0
 10 11  1  0
 10 56  1  6
 11 12  1  0
 11 57  1  6
 12 13  1  0
 12 16  1  0
 12 58  1  6
 13 14  1  0
 13 15  1  0
 14 59  1  0
 14 60  1  0
 14 61  1  0
 15 62  1  0
 15 63  1  0
 15 64  1  0
 16 17  1  6
 16 19  1  0
 17 18  2  0
 17 65  1  0
 19 39  1  0
 19 20  1  1
 19 23  1  0
 20 21  2  0
 20 22  1  0
 23 24  1  0
 23 66  1  0
 23 67  1  0
 24 25  1  0
 24 68  1  0
 24 69  1  0
 25 37  1  0
 25 26  1  0
 25 70  1  1
 26 27  1  0
 26 39  1  0
 26 71  1  6
 27 28  1  0
 27 72  1  0
 27 73  1  0
 28 29  1  0
 28 74  1  0
 28 75  1  0
 29 37  1  0
 29 30  1  0
 29 76  1  1
 30 31  1  0
 30 32  1  0
 30 33  1  0
 31 77  1  0
 31 78  1  0
 31 79  1  0
 32 80  1  0
 32 81  1  0
 32 82  1  0
 33 34  1  0
 33 35  1  0
 33 83  1  6
 34 84  1  0
 35 36  1  0
 35 85  1  0
 35 86  1  0
 36 37  1  0
 36 87  1  0
 36 88  1  0
 37 38  1  6
 38 89  1  0
 38 90  1  0
 38 91  1  0
 39 40  1  1
 40 41  2  0
 40 92  1  0
M  CHG  1  22  -1
M  END
>  <i_m_ct_stereo_status>  (315) 
1

>  <s_m_source_file>  (315) 
/var/tmp/pbs.5076255.sched01/tmp0pz6dnip/90w4u7_w6b.sdf

>  <i_m_source_file_index>  (315) 
40

>  <i_lp_mmshare_version>  (315) 
48012

>  <i_f3d_flags>  (315) 
0

>  <s_epik_input>  (315) 
W0NASF0xMkMoW0NIM10pKFtDSDNdKVtDQEhdKFtDSDJdMylbQ0BASF0xW0NASF0zW0NAQEhdKFtDQEBdMjRbQ0hdPU8pW0NAQEhdNVtDQEBIXShbQ0gyXUM1KFtDSDNdKVtDSDNdKVtDQF02KFtDSF09TylbQ0BAXTQoQyg9TylbT0hdKVtDSDJdW0NIMl1bQ0BIXTdbQ0BIXTZbQ0gyXVtDSDJdW0NAQEhdOFtDQEBdNyhbQ0gzXSlbQ0gyXVtDSDJdW0NASF0oW09IXSlDOChbQ0gzXSlbQ0gzXQ==

>  <s_epik_cmdline>  (315) 
J2VwaWtfcHl0aG9uJywgJy1waHQnLCAnMi4wJywgJy1waCcsICc3LjAnLCAnLXRuJywgJzgnLCAnLW1hJywgJzIwMCcsICctaW1hZScsICc8aW5maWxlLm1hZT4nLCAnLW9tYWUnLCAnPG91dGZpbGUubWFlPic=

>  <r_epik_Ionization_Penalty>  (315) 
0.00179308

>  <r_epik_Ionization_Penalty_Charging>  (315) 
0.00179028

>  <r_epik_Ionization_Penalty_Neutral>  (315) 
2.80606e-06

>  <r_epik_State_Penalty>  (315) 
0.00121381

>  <r_epik_Charging_Adjusted_Penalty>  (315) 
0.00300409

>  <i_epik_Tot_Q>  (315) 
-1

>  <i_epik_Tot_abs_Q>  (315) 
1

>  <s_lp_Force_Field>  (315) 
OPLS3e

>  <r_lp_Energy>  (315) 
159.771

>  <b_lp_Chiralities_Consistent>  (315) 
1

>  <s_lp_Variant>  (315) 
82:0-1

>  <s_i_glide_gridfile>  (315) 
pfpi4k_grid

>  <i_i_glide_lignum>  (315) 
40

>  <i_i_glide_rotatable_bonds>  (315) 
4

>  <r_i_docking_score>  (315) 
-1.67776

>  <r_i_glide_ligand_efficiency>  (315) 
-0.0409209

>  <r_i_glide_ligand_efficiency_sa>  (315) 
-0.141104

>  <r_i_glide_ligand_efficiency_ln>  (315) 
-0.355941

>  <r_i_glide_gscore>  (315) 
-1.67776

>  <r_i_glide_lipo>  (315) 
-0.275348

>  <r_i_glide_hbond>  (315) 
-0.152108

>  <r_i_glide_metal>  (315) 
-0

>  <r_i_glide_rewards>  (315) 
-0.0195364

>  <r_i_glide_evdw>  (315) 
-20.3726

>  <r_i_glide_ecoul>  (315) 
-1.18205

>  <r_i_glide_erotb>  (315) 
0

>  <r_i_glide_esite>  (315) 
-0.0348261

>  <r_i_glide_emodel>  (315) 
-23.1433

>  <r_i_glide_energy>  (315) 
-21.5546

>  <r_i_glide_einternal>  (315) 
0.569092

>  <r_i_glide_intrahb_reward>  (315) 
-0

>  <i_i_glide_confnum>  (315) 
2

>  <i_i_glide_posenum>  (315) 
34

>  <r_i_glide_eff_state_penalty>  (315) 
0

>  <ligand_id>  (315) 
82

>  <original_smiles>  (315) 
CC1(C)CC2C1C1C3CC4C3C(C4(C)C)C1(C=O)C1(C(=O)O)CCC3C(CCC4C(C)(C)C(O)CCC34C)C21C=O

>  <smiles>  (315) 
[H]OC1([H])C([H])([H])C([H])([H])C2(C([H])([H])[H])C3([H])C([H])([H])C([H])([H])C4(C(=O)[O-])C(C([H])=O)(C5([H])C([H])([H])C(C([H])([H])[H])(C([H])([H])[H])C5([H])C5([H])C6([H])C([H])([H])C7([H])C6([H])C([H])(C54C([H])=O)C7(C([H])([H])[H])C([H])([H])[H])C3([H])C([H])([H])C([H])([H])C2([H])C1(C([H])([H])[H])C([H])([H])[H]

$$$$
83:0:0
     RDKit          3D

 32 34  0  0  1  0  0  0  0  0999 V2000
    3.1895   -8.3631    1.2961 C   0  0  0  0  0  0  0  0  0  0  0  0
    3.1742   -6.8707    1.4175 N   0  0  2  0  0  0  0  0  0  0  0  0
    4.4547   -6.2570    1.8126 C   0  0  0  0  0  0  0  0  0  0  0  0
    4.1038   -4.8053    2.1898 C   0  0  1  0  0  0  0  0  0  0  0  0
    4.3779   -3.9111    1.0776 N   0  0  0  0  0  0  0  0  0  0  0  0
    3.8689   -3.9377   -0.1988 C   0  0  0  0  0  0  0  0  0  0  0  0
    4.4419   -2.8742   -0.8139 C   0  0  0  0  0  0  0  0  0  0  0  0
    4.2498   -2.3772   -2.1563 C   0  0  0  0  0  0  0  0  0  0  0  0
    3.8350   -2.9752   -3.3127 C   0  0  0  0  0  0  0  0  0  0  0  0
    3.8118   -2.0400   -4.3183 N   0  0  0  0  0  0  0  0  0  0  0  0
    4.1177   -0.9019   -3.7069 C   0  0  0  0  0  0  0  0  0  0  0  0
    4.4564   -1.0470   -2.4042 O   0  0  0  0  0  0  0  0  0  0  0  0
    5.2841   -2.2454    0.0950 N   0  0  0  0  0  0  0  0  0  0  0  0
    5.2485   -2.8815    1.2282 N   0  0  0  0  0  0  0  0  0  0  0  0
    2.5951   -4.8301    2.5342 C   0  0  0  0  0  0  0  0  0  0  0  0
    2.1678   -6.3047    2.3340 C   0  0  1  0  0  0  0  0  0  0  0  0
    0.7610   -6.4292    1.7211 C   0  0  0  0  0  0  0  0  0  0  0  0
    0.6385   -6.2639    0.4856 O   0  0  0  0  0  0  0  0  0  0  0  0
   -0.1873   -6.6499    2.4967 O   0  0  0  0  0  0  0  0  0  0  0  0
    3.4286   -8.8595    2.2360 H   0  0  0  0  0  0  0  0  0  0  0  0
    3.9126   -8.6978    0.5528 H   0  0  0  0  0  0  0  0  0  0  0  0
    2.2297   -8.7666    0.9711 H   0  0  0  0  0  0  0  0  0  0  0  0
    4.8104   -6.7575    2.7110 H   0  0  0  0  0  0  0  0  0  0  0  0
    5.2403   -6.3511    1.0588 H   0  0  0  0  0  0  0  0  0  0  0  0
    4.6985   -4.4955    3.0548 H   0  0  0  0  0  0  0  0  0  0  0  0
    3.1502   -4.6564   -0.5701 H   0  0  0  0  0  0  0  0  0  0  0  0
    3.5699   -4.0105   -3.4887 H   0  0  0  0  0  0  0  0  0  0  0  0
    4.1898    0.0479   -4.2127 H   0  0  0  0  0  0  0  0  0  0  0  0
    2.4188   -4.4974    3.5588 H   0  0  0  0  0  0  0  0  0  0  0  0
    2.0235   -4.1418    1.9059 H   0  0  0  0  0  0  0  0  0  0  0  0
    2.2305   -6.8263    3.2859 H   0  0  0  0  0  0  0  0  0  0  0  0
    2.9035   -6.4483    0.5431 H   0  0  0  0  0  0  0  0  0  0  0  0
  1  2  1  0
  1 20  1  0
  1 21  1  0
  1 22  1  0
  2 16  1  0
  2  3  1  0
  2 32  1  6
  3  4  1  0
  3 23  1  0
  3 24  1  0
  4  5  1  0
  4 15  1  0
  4 25  1  1
  5 14  1  0
  5  6  1  0
  6  7  2  0
  6 26  1  0
  7  8  1  0
  7 13  1  0
  8 12  1  0
  8  9  2  0
  9 10  1  0
  9 27  1  0
 10 11  2  0
 11 12  1  0
 11 28  1  0
 13 14  2  0
 15 16  1  0
 15 29  1  0
 15 30  1  0
 16 17  1  0
 16 31  1  1
 17 18  2  0
 17 19  1  0
M  CHG  2   2   1  19  -1
M  END
>  <i_m_ct_stereo_status>  (316) 
1

>  <s_m_source_file>  (316) 
/var/tmp/pbs.5076255.sched01/tmp0pz6dnip/90w4u7_w6b.sdf

>  <i_m_source_file_index>  (316) 
41

>  <i_lp_mmshare_version>  (316) 
48012

>  <i_f3d_flags>  (316) 
0

>  <s_epik_input>  (316) 
Tz1DKFtPSF0pW0NAQEhdMVtDSDJdW0NAQEhdKFtDSDJdTjFbQ0gzXSluMltjSF1jKG5uMiktYzNbY0hdbltjSF1vMw==

>  <s_epik_cmdline>  (316) 
J2VwaWtfcHl0aG9uJywgJy1waHQnLCAnMi4wJywgJy1waCcsICc3LjAnLCAnLXRuJywgJzgnLCAnLW1hJywgJzIwMCcsICctaW1hZScsICc8aW5maWxlLm1hZT4nLCAnLW9tYWUnLCAnPG91dGZpbGUubWFlPic=

>  <r_lp_tautomer_probability>  (316) 
1

>  <r_epik_Ionization_Penalty>  (316) 
0.0954909

>  <r_epik_Ionization_Penalty_Charging>  (316) 
0.0954908

>  <r_epik_Ionization_Penalty_Neutral>  (316) 
1.02905e-07

>  <r_epik_State_Penalty>  (316) 
0.0853324

>  <r_epik_Charging_Adjusted_Penalty>  (316) 
0.180823

>  <i_epik_Tot_Q>  (316) 
0

>  <i_epik_Tot_abs_Q>  (316) 
2

>  <s_lp_Force_Field>  (316) 
OPLS3e

>  <r_lp_Energy>  (316) 
10.1146

>  <b_lp_Chiralities_Consistent>  (316) 
1

>  <s_lp_Variant>  (316) 
83:0-1

>  <s_i_glide_gridfile>  (316) 
pfpi4k_grid

>  <i_i_glide_lignum>  (316) 
41

>  <i_i_glide_rotatable_bonds>  (316) 
3

>  <r_i_docking_score>  (316) 
-4.83531

>  <r_i_glide_ligand_efficiency>  (316) 
-0.25449

>  <r_i_glide_ligand_efficiency_sa>  (316) 
-0.679082

>  <r_i_glide_ligand_efficiency_ln>  (316) 
-1.22586

>  <r_i_glide_gscore>  (316) 
-4.83531

>  <r_i_glide_lipo>  (316) 
-0.431079

>  <r_i_glide_hbond>  (316) 
-0.756512

>  <r_i_glide_metal>  (316) 
-0

>  <r_i_glide_rewards>  (316) 
-1.64454

>  <r_i_glide_evdw>  (316) 
-20.332

>  <r_i_glide_ecoul>  (316) 
-9.3753

>  <r_i_glide_erotb>  (316) 
0.512406

>  <r_i_glide_esite>  (316) 
-0.0926855

>  <r_i_glide_emodel>  (316) 
-41.6854

>  <r_i_glide_energy>  (316) 
-29.7073

>  <r_i_glide_einternal>  (316) 
1.70772

>  <r_i_glide_intrahb_reward>  (316) 
-0

>  <i_i_glide_confnum>  (316) 
4

>  <i_i_glide_posenum>  (316) 
26

>  <r_i_glide_eff_state_penalty>  (316) 
0

>  <ligand_id>  (316) 
83

>  <original_smiles>  (316) 
CN1CC(n2cc(-c3cnco3)nn2)CC1C(=O)O

>  <smiles>  (316) 
[H]c1nc([H])c(-c2nnn(C3([H])C([H])([H])C([H])(C(=O)[O-])[N+]([H])(C([H])([H])[H])C3([H])[H])c2[H])o1

$$$$
83:0:1
     RDKit          3D

 32 34  0  0  1  0  0  0  0  0999 V2000
    2.5575   -2.8475   -2.6636 C   0  0  0  0  0  0  0  0  0  0  0  0
    3.2961   -3.4368   -1.5233 N   0  0  2  0  0  0  0  0  0  0  0  0
    2.4516   -3.6071   -0.3320 C   0  0  0  0  0  0  0  0  0  0  0  0
    3.4339   -3.8914    0.8176 C   0  0  1  0  0  0  0  0  0  0  0  0
    3.5927   -5.3238    1.0596 N   0  0  0  0  0  0  0  0  0  0  0  0
    4.7172   -6.0416    1.3937 C   0  0  0  0  0  0  0  0  0  0  0  0
    4.2943   -7.3243    1.5140 C   0  0  0  0  0  0  0  0  0  0  0  0
    5.0514   -8.5157    1.8382 C   0  0  0  0  0  0  0  0  0  0  0  0
    6.3991   -8.7464    1.8922 C   0  0  0  0  0  0  0  0  0  0  0  0
    6.6155  -10.0522    2.2904 N   0  0  0  0  0  0  0  0  0  0  0  0
    5.3867  -10.5332    2.4651 C   0  0  0  0  0  0  0  0  0  0  0  0
    4.3929   -9.6495    2.2011 O   0  0  0  0  0  0  0  0  0  0  0  0
    2.9207   -7.3502    1.3133 N   0  0  0  0  0  0  0  0  0  0  0  0
    2.5126   -6.1467    1.0728 N   0  0  0  0  0  0  0  0  0  0  0  0
    4.7494   -3.2226    0.3530 C   0  0  0  0  0  0  0  0  0  0  0  0
    4.4522   -2.6430   -1.0371 C   0  0  1  0  0  0  0  0  0  0  0  0
    5.6875   -2.7297   -1.9515 C   0  0  0  0  0  0  0  0  0  0  0  0
    6.7591   -2.2603   -1.5136 O   0  0  0  0  0  0  0  0  0  0  0  0
    5.5490   -3.2500   -3.0821 O   0  0  0  0  0  0  0  0  0  0  0  0
    2.1429   -1.8821   -2.3739 H   0  0  0  0  0  0  0  0  0  0  0  0
    1.7450   -3.5194   -2.9431 H   0  0  0  0  0  0  0  0  0  0  0  0
    3.2055   -2.7204   -3.5339 H   0  0  0  0  0  0  0  0  0  0  0  0
    1.9429   -2.6708   -0.0998 H   0  0  0  0  0  0  0  0  0  0  0  0
    1.6797   -4.3619   -0.4922 H   0  0  0  0  0  0  0  0  0  0  0  0
    3.0700   -3.4601    1.7541 H   0  0  0  0  0  0  0  0  0  0  0  0
    5.6948   -5.6088    1.5118 H   0  0  0  0  0  0  0  0  0  0  0  0
    7.2220   -8.0896    1.6908 H   0  0  0  0  0  0  0  0  0  0  0  0
    5.1341  -11.5346    2.7592 H   0  0  0  0  0  0  0  0  0  0  0  0
    5.0734   -2.4527    1.0498 H   0  0  0  0  0  0  0  0  0  0  0  0
    5.5674   -3.9390    0.2718 H   0  0  0  0  0  0  0  0  0  0  0  0
    4.1413   -1.6034   -0.9369 H   0  0  0  0  0  0  0  0  0  0  0  0
    3.6385   -4.3538   -1.7932 H   0  0  0  0  0  0  0  0  0  0  0  0
  1  2  1  0
  1 20  1  0
  1 21  1  0
  1 22  1  0
  2 16  1  0
  2  3  1  0
  2 32  1  6
  3  4  1  0
  3 23  1  0
  3 24  1  0
  4  5  1  0
  4 15  1  0
  4 25  1  1
  5 14  1  0
  5  6  1  0
  6  7  2  0
  6 26  1  0
  7  8  1  0
  7 13  1  0
  8 12  1  0
  8  9  2  0
  9 10  1  0
  9 27  1  0
 10 11  2  0
 11 12  1  0
 11 28  1  0
 13 14  2  0
 15 16  1  0
 15 29  1  0
 15 30  1  0
 16 17  1  0
 16 31  1  1
 17 18  2  0
 17 19  1  0
M  CHG  2   2   1  19  -1
M  END
>  <i_m_ct_stereo_status>  (317) 
1

>  <s_m_source_file>  (317) 
/var/tmp/pbs.5076255.sched01/tmp0pz6dnip/90w4u7_w6b.sdf

>  <i_m_source_file_index>  (317) 
41

>  <i_lp_mmshare_version>  (317) 
48012

>  <i_f3d_flags>  (317) 
0

>  <s_epik_input>  (317) 
Tz1DKFtPSF0pW0NAQEhdMVtDSDJdW0NAQEhdKFtDSDJdTjFbQ0gzXSluMltjSF1jKG5uMiktYzNbY0hdbltjSF1vMw==

>  <s_epik_cmdline>  (317) 
J2VwaWtfcHl0aG9uJywgJy1waHQnLCAnMi4wJywgJy1waCcsICc3LjAnLCAnLXRuJywgJzgnLCAnLW1hJywgJzIwMCcsICctaW1hZScsICc8aW5maWxlLm1hZT4nLCAnLW9tYWUnLCAnPG91dGZpbGUubWFlPic=

>  <r_lp_tautomer_probability>  (317) 
1

>  <r_epik_Ionization_Penalty>  (317) 
0.0954909

>  <r_epik_Ionization_Penalty_Charging>  (317) 
0.0954908

>  <r_epik_Ionization_Penalty_Neutral>  (317) 
1.02905e-07

>  <r_epik_State_Penalty>  (317) 
0.0853324

>  <r_epik_Charging_Adjusted_Penalty>  (317) 
0.180823

>  <i_epik_Tot_Q>  (317) 
0

>  <i_epik_Tot_abs_Q>  (317) 
2

>  <s_lp_Force_Field>  (317) 
OPLS3e

>  <r_lp_Energy>  (317) 
10.1146

>  <b_lp_Chiralities_Consistent>  (317) 
1

>  <s_lp_Variant>  (317) 
83:0-1

>  <s_i_glide_gridfile>  (317) 
pfpi4k_grid

>  <i_i_glide_lignum>  (317) 
41

>  <i_i_glide_rotatable_bonds>  (317) 
3

>  <r_i_docking_score>  (317) 
-3.7135

>  <r_i_glide_ligand_efficiency>  (317) 
-0.195447

>  <r_i_glide_ligand_efficiency_sa>  (317) 
-0.521532

>  <r_i_glide_ligand_efficiency_ln>  (317) 
-0.941453

>  <r_i_glide_gscore>  (317) 
-3.7135

>  <r_i_glide_lipo>  (317) 
-0.246773

>  <r_i_glide_hbond>  (317) 
-0.2

>  <r_i_glide_metal>  (317) 
-0

>  <r_i_glide_rewards>  (317) 
-1.65363

>  <r_i_glide_evdw>  (317) 
-18.9297

>  <r_i_glide_ecoul>  (317) 
-7.74253

>  <r_i_glide_erotb>  (317) 
0.512406

>  <r_i_glide_esite>  (317) 
-0.0176408

>  <r_i_glide_emodel>  (317) 
-34.4213

>  <r_i_glide_energy>  (317) 
-26.6723

>  <r_i_glide_einternal>  (317) 
3.70586

>  <r_i_glide_intrahb_reward>  (317) 
-0

>  <i_i_glide_confnum>  (317) 
5

>  <i_i_glide_posenum>  (317) 
2

>  <r_i_glide_eff_state_penalty>  (317) 
0

>  <ligand_id>  (317) 
83

>  <original_smiles>  (317) 
CN1CC(n2cc(-c3cnco3)nn2)CC1C(=O)O

>  <smiles>  (317) 
[H]c1nc([H])c(-c2nnn(C3([H])C([H])([H])C([H])(C(=O)[O-])[N+]([H])(C([H])([H])[H])C3([H])[H])c2[H])o1

$$$$
83:0:2
     RDKit          3D

 32 34  0  0  1  0  0  0  0  0999 V2000
    3.8567   -0.8380   -0.4851 C   0  0  0  0  0  0  0  0  0  0  0  0
    3.9623   -2.3120   -0.4801 N   0  0  2  0  0  0  0  0  0  0  0  0
    4.1599   -2.8383    0.8858 C   0  0  0  0  0  0  0  0  0  0  0  0
    4.5644   -4.3023    0.6903 C   0  0  1  0  0  0  0  0  0  0  0  0
    3.4077   -5.1892    0.8163 N   0  0  0  0  0  0  0  0  0  0  0  0
    3.2502   -6.2889    1.6207 C   0  0  0  0  0  0  0  0  0  0  0  0
    1.9792   -6.7047    1.3493 C   0  0  0  0  0  0  0  0  0  0  0  0
    1.2198   -7.8064    1.9097 C   0  0  0  0  0  0  0  0  0  0  0  0
    1.6195   -8.9606    2.5301 C   0  0  0  0  0  0  0  0  0  0  0  0
    0.4902   -9.6631    2.8951 N   0  0  0  0  0  0  0  0  0  0  0  0
   -0.5246   -8.9118    2.4820 C   0  0  0  0  0  0  0  0  0  0  0  0
   -0.1466   -7.7520    1.8772 O   0  0  0  0  0  0  0  0  0  0  0  0
    1.4223   -5.8569    0.4075 N   0  0  0  0  0  0  0  0  0  0  0  0
    2.2968   -4.9605    0.0784 N   0  0  0  0  0  0  0  0  0  0  0  0
    5.1828   -4.3447   -0.7184 C   0  0  0  0  0  0  0  0  0  0  0  0
    5.0578   -2.9096   -1.2820 C   0  0  1  0  0  0  0  0  0  0  0  0
    4.8400   -2.8380   -2.8144 C   0  0  0  0  0  0  0  0  0  0  0  0
    4.5897   -1.7252   -3.3107 O   0  0  0  0  0  0  0  0  0  0  0  0
    4.9768   -3.8666   -3.5096 O   0  0  0  0  0  0  0  0  0  0  0  0
    4.7619   -0.3846   -0.0852 H   0  0  0  0  0  0  0  0  0  0  0  0
    3.0128   -0.5315    0.1343 H   0  0  0  0  0  0  0  0  0  0  0  0
    3.7075   -0.4802   -1.5006 H   0  0  0  0  0  0  0  0  0  0  0  0
    4.9850   -2.3070    1.3673 H   0  0  0  0  0  0  0  0  0  0  0  0
    3.2878   -2.7156    1.5323 H   0  0  0  0  0  0  0  0  0  0  0  0
    5.2948   -4.6011    1.4527 H   0  0  0  0  0  0  0  0  0  0  0  0
    4.0133   -6.6564    2.2897 H   0  0  0  0  0  0  0  0  0  0  0  0
    2.6167   -9.3175    2.7292 H   0  0  0  0  0  0  0  0  0  0  0  0
   -1.5655   -9.1681    2.6001 H   0  0  0  0  0  0  0  0  0  0  0  0
    6.2224   -4.6569   -0.6876 H   0  0  0  0  0  0  0  0  0  0  0  0
    4.6490   -5.0820   -1.3176 H   0  0  0  0  0  0  0  0  0  0  0  0
    5.9719   -2.3677   -1.0428 H   0  0  0  0  0  0  0  0  0  0  0  0
    3.1032   -2.7053   -0.8379 H   0  0  0  0  0  0  0  0  0  0  0  0
  1  2  1  0
  1 20  1  0
  1 21  1  0
  1 22  1  0
  2 16  1  0
  2  3  1  0
  2 32  1  6
  3  4  1  0
  3 23  1  0
  3 24  1  0
  4  5  1  0
  4 15  1  0
  4 25  1  1
  5 14  1  0
  5  6  1  0
  6  7  2  0
  6 26  1  0
  7  8  1  0
  7 13  1  0
  8 12  1  0
  8  9  2  0
  9 10  1  0
  9 27  1  0
 10 11  2  0
 11 12  1  0
 11 28  1  0
 13 14  2  0
 15 16  1  0
 15 29  1  0
 15 30  1  0
 16 17  1  0
 16 31  1  6
 17 18  2  0
 17 19  1  0
M  CHG  2   2   1  19  -1
M  END
>  <i_m_ct_stereo_status>  (318) 
1

>  <s_m_source_file>  (318) 
/var/tmp/pbs.5076255.sched01/tmp0pz6dnip/90w4u7_w6b.sdf

>  <i_m_source_file_index>  (318) 
41

>  <i_lp_mmshare_version>  (318) 
48012

>  <i_f3d_flags>  (318) 
0

>  <s_epik_input>  (318) 
Tz1DKFtPSF0pW0NAQEhdMVtDSDJdW0NAQEhdKFtDSDJdTjFbQ0gzXSluMltjSF1jKG5uMiktYzNbY0hdbltjSF1vMw==

>  <s_epik_cmdline>  (318) 
J2VwaWtfcHl0aG9uJywgJy1waHQnLCAnMi4wJywgJy1waCcsICc3LjAnLCAnLXRuJywgJzgnLCAnLW1hJywgJzIwMCcsICctaW1hZScsICc8aW5maWxlLm1hZT4nLCAnLW9tYWUnLCAnPG91dGZpbGUubWFlPic=

>  <r_lp_tautomer_probability>  (318) 
1

>  <r_epik_Ionization_Penalty>  (318) 
0.0954909

>  <r_epik_Ionization_Penalty_Charging>  (318) 
0.0954908

>  <r_epik_Ionization_Penalty_Neutral>  (318) 
1.02905e-07

>  <r_epik_State_Penalty>  (318) 
0.0853324

>  <r_epik_Charging_Adjusted_Penalty>  (318) 
0.180823

>  <i_epik_Tot_Q>  (318) 
0

>  <i_epik_Tot_abs_Q>  (318) 
2

>  <s_lp_Force_Field>  (318) 
OPLS3e

>  <r_lp_Energy>  (318) 
10.1146

>  <b_lp_Chiralities_Consistent>  (318) 
1

>  <s_lp_Variant>  (318) 
83:0-1

>  <s_i_glide_gridfile>  (318) 
pfpi4k_grid

>  <i_i_glide_lignum>  (318) 
41

>  <i_i_glide_rotatable_bonds>  (318) 
3

>  <r_i_docking_score>  (318) 
-3.48636

>  <r_i_glide_ligand_efficiency>  (318) 
-0.183492

>  <r_i_glide_ligand_efficiency_sa>  (318) 
-0.489631

>  <r_i_glide_ligand_efficiency_ln>  (318) 
-0.883866

>  <r_i_glide_gscore>  (318) 
-3.48636

>  <r_i_glide_lipo>  (318) 
-0.152604

>  <r_i_glide_hbond>  (318) 
0

>  <r_i_glide_metal>  (318) 
-0

>  <r_i_glide_rewards>  (318) 
-1.80375

>  <r_i_glide_evdw>  (318) 
-20.8869

>  <r_i_glide_ecoul>  (318) 
-5.3029

>  <r_i_glide_erotb>  (318) 
0.512406

>  <r_i_glide_esite>  (318) 
-0.202628

>  <r_i_glide_emodel>  (318) 
-34.2247

>  <r_i_glide_energy>  (318) 
-26.1898

>  <r_i_glide_einternal>  (318) 
2.12244

>  <r_i_glide_intrahb_reward>  (318) 
-0

>  <i_i_glide_confnum>  (318) 
6

>  <i_i_glide_posenum>  (318) 
25

>  <r_i_glide_eff_state_penalty>  (318) 
0

>  <ligand_id>  (318) 
83

>  <original_smiles>  (318) 
CN1CC(n2cc(-c3cnco3)nn2)CC1C(=O)O

>  <smiles>  (318) 
[H]c1nc([H])c(-c2nnn(C3([H])C([H])([H])C([H])(C(=O)[O-])[N+]([H])(C([H])([H])[H])C3([H])[H])c2[H])o1

$$$$
83:1:0
     RDKit          3D

 31 33  0  0  1  0  0  0  0  0999 V2000
   -0.9639   -5.0503    6.7511 C   0  0  0  0  0  0  0  0  0  0  0  0
   -0.4855   -3.6739    6.7179 N   0  0  0  0  0  0  0  0  0  0  0  0
    0.0187   -3.2744    5.4110 C   0  0  0  0  0  0  0  0  0  0  0  0
    0.7828   -1.9718    5.7040 C   0  0  1  0  0  0  0  0  0  0  0  0
   -0.0399   -0.7865    5.4883 N   0  0  0  0  0  0  0  0  0  0  0  0
    0.3083    0.3908    4.8676 C   0  0  0  0  0  0  0  0  0  0  0  0
   -0.8152    1.1596    4.9808 C   0  0  0  0  0  0  0  0  0  0  0  0
   -1.0425    2.5096    4.5086 C   0  0  0  0  0  0  0  0  0  0  0  0
   -2.1596    3.2953    4.3803 C   0  0  0  0  0  0  0  0  0  0  0  0
   -1.7564    4.5200    3.8491 N   0  0  0  0  0  0  0  0  0  0  0  0
   -0.4370    4.4073    3.6849 C   0  0  0  0  0  0  0  0  0  0  0  0
    0.0524    3.1968    4.0588 O   0  0  0  0  0  0  0  0  0  0  0  0
   -1.7839    0.4336    5.6742 N   0  0  0  0  0  0  0  0  0  0  0  0
   -1.3047   -0.7280    5.9714 N   0  0  0  0  0  0  0  0  0  0  0  0
    1.2445   -2.0899    7.1622 C   0  0  0  0  0  0  0  0  0  0  0  0
    0.6645   -3.4322    7.6107 C   0  0  1  0  0  0  0  0  0  0  0  0
    0.3078   -3.4501    9.1011 C   0  0  0  0  0  0  0  0  0  0  0  0
    0.9146   -4.2533    9.8377 O   0  0  0  0  0  0  0  0  0  0  0  0
   -0.5854   -2.6548    9.4662 O   0  0  0  0  0  0  0  0  0  0  0  0
   -1.8140   -5.1800    6.0835 H   0  0  0  0  0  0  0  0  0  0  0  0
   -1.2992   -5.3203    7.7547 H   0  0  0  0  0  0  0  0  0  0  0  0
   -0.1838   -5.7501    6.4439 H   0  0  0  0  0  0  0  0  0  0  0  0
    0.7023   -4.0243    5.0119 H   0  0  0  0  0  0  0  0  0  0  0  0
   -0.7711   -3.1158    4.6795 H   0  0  0  0  0  0  0  0  0  0  0  0
    1.6418   -1.8978    5.0368 H   0  0  0  0  0  0  0  0  0  0  0  0
    1.2689    0.5773    4.4212 H   0  0  0  0  0  0  0  0  0  0  0  0
   -3.1954    3.0859    4.6162 H   0  0  0  0  0  0  0  0  0  0  0  0
    0.1986    5.1750    3.2647 H   0  0  0  0  0  0  0  0  0  0  0  0
    2.3286   -2.0823    7.2522 H   0  0  0  0  0  0  0  0  0  0  0  0
    0.8668   -1.2613    7.7625 H   0  0  0  0  0  0  0  0  0  0  0  0
    1.4041   -4.2128    7.4270 H   0  0  0  0  0  0  0  0  0  0  0  0
  1  2  1  0
  1 20  1  0
  1 21  1  0
  1 22  1  0
  2 16  1  0
  2  3  1  0
  3  4  1  0
  3 23  1  0
  3 24  1  0
  4  5  1  0
  4 15  1  0
  4 25  1  6
  5 14  1  0
  5  6  1  0
  6  7  2  0
  6 26  1  0
  7  8  1  0
  7 13  1  0
  8 12  1  0
  8  9  2  0
  9 10  1  0
  9 27  1  0
 10 11  2  0
 11 12  1  0
 11 28  1  0
 13 14  2  0
 15 16  1  0
 15 29  1  0
 15 30  1  0
 16 17  1  0
 16 31  1  1
 17 18  2  0
 17 19  1  0
M  CHG  1  19  -1
M  END
>  <i_m_ct_stereo_status>  (319) 
1

>  <s_m_source_file>  (319) 
/var/tmp/pbs.5076255.sched01/tmp0pz6dnip/90w4u7_w6b.sdf

>  <i_m_source_file_index>  (319) 
42

>  <i_lp_mmshare_version>  (319) 
48012

>  <i_f3d_flags>  (319) 
0

>  <s_epik_input>  (319) 
Tz1DKFtPSF0pW0NAQEhdMVtDSDJdW0NAQEhdKFtDSDJdTjFbQ0gzXSluMltjSF1jKG5uMiktYzNbY0hdbltjSF1vMw==

>  <s_epik_cmdline>  (319) 
J2VwaWtfcHl0aG9uJywgJy1waHQnLCAnMi4wJywgJy1waCcsICc3LjAnLCAnLXRuJywgJzgnLCAnLW1hJywgJzIwMCcsICctaW1hZScsICc8aW5maWxlLm1hZT4nLCAnLW9tYWUnLCAnPG91dGZpbGUubWFlPic=

>  <r_lp_tautomer_probability>  (319) 
1

>  <r_epik_Ionization_Penalty>  (319) 
1.13096

>  <r_epik_Ionization_Penalty_Charging>  (319) 
0.00035499

>  <r_epik_Ionization_Penalty_Neutral>  (319) 
1.1306

>  <r_epik_State_Penalty>  (319) 
1.19026

>  <r_epik_Charging_Adjusted_Penalty>  (319) 
1.19061

>  <i_epik_Tot_Q>  (319) 
-1

>  <i_epik_Tot_abs_Q>  (319) 
1

>  <s_lp_Force_Field>  (319) 
OPLS3e

>  <r_lp_Energy>  (319) 
18.8298

>  <b_lp_Chiralities_Consistent>  (319) 
1

>  <s_lp_Variant>  (319) 
83:0-2

>  <s_i_glide_gridfile>  (319) 
pfpi4k_grid

>  <i_i_glide_lignum>  (319) 
42

>  <i_i_glide_rotatable_bonds>  (319) 
3

>  <r_i_docking_score>  (319) 
-3.79339

>  <r_i_glide_ligand_efficiency>  (319) 
-0.199652

>  <r_i_glide_ligand_efficiency_sa>  (319) 
-0.532751

>  <r_i_glide_ligand_efficiency_ln>  (319) 
-0.961705

>  <r_i_glide_gscore>  (319) 
-3.79339

>  <r_i_glide_lipo>  (319) 
-0.0603575

>  <r_i_glide_hbond>  (319) 
-0.355538

>  <r_i_glide_metal>  (319) 
-0

>  <r_i_glide_rewards>  (319) 
-1.62106

>  <r_i_glide_evdw>  (319) 
-13.6254

>  <r_i_glide_ecoul>  (319) 
-9.42319

>  <r_i_glide_erotb>  (319) 
0.515807

>  <r_i_glide_esite>  (319) 
-0.17749

>  <r_i_glide_emodel>  (319) 
-30.8668

>  <r_i_glide_energy>  (319) 
-23.0486

>  <r_i_glide_einternal>  (319) 
0.644441

>  <r_i_glide_intrahb_reward>  (319) 
-0

>  <i_i_glide_confnum>  (319) 
2

>  <i_i_glide_posenum>  (319) 
2

>  <r_i_glide_eff_state_penalty>  (319) 
0

>  <ligand_id>  (319) 
83

>  <original_smiles>  (319) 
CN1CC(n2cc(-c3cnco3)nn2)CC1C(=O)O

>  <smiles>  (319) 
[H]c1nc([H])c(-c2nnn(C3([H])C([H])([H])N(C([H])([H])[H])C([H])(C(=O)[O-])C3([H])[H])c2[H])o1

$$$$
83:1:1
     RDKit          3D

 31 33  0  0  1  0  0  0  0  0999 V2000
    5.4902   -1.5632    1.8038 C   0  0  0  0  0  0  0  0  0  0  0  0
    5.1159   -2.8816    1.3101 N   0  0  0  0  0  0  0  0  0  0  0  0
    5.1942   -3.9276    2.3227 C   0  0  0  0  0  0  0  0  0  0  0  0
    5.0996   -5.2256    1.5007 C   0  0  1  0  0  0  0  0  0  0  0  0
    3.7392   -5.7553    1.4440 N   0  0  0  0  0  0  0  0  0  0  0  0
    3.2284   -6.8281    2.1360 C   0  0  0  0  0  0  0  0  0  0  0  0
    1.9295   -6.8892    1.7201 C   0  0  0  0  0  0  0  0  0  0  0  0
    0.8710   -7.7981    2.0877 C   0  0  0  0  0  0  0  0  0  0  0  0
    0.9006   -8.9716    2.7907 C   0  0  0  0  0  0  0  0  0  0  0  0
   -0.4046   -9.4388    2.8837 N   0  0  0  0  0  0  0  0  0  0  0  0
   -1.1412   -8.5479    2.2231 C   0  0  0  0  0  0  0  0  0  0  0  0
   -0.4232   -7.5016    1.7282 O   0  0  0  0  0  0  0  0  0  0  0  0
    1.7039   -5.8533    0.8212 N   0  0  0  0  0  0  0  0  0  0  0  0
    2.7832   -5.1565    0.6894 N   0  0  0  0  0  0  0  0  0  0  0  0
    5.6744   -4.8787    0.1115 C   0  0  0  0  0  0  0  0  0  0  0  0
    5.9566   -3.3738    0.2033 C   0  0  1  0  0  0  0  0  0  0  0  0
    5.7255   -2.6215   -1.1208 C   0  0  0  0  0  0  0  0  0  0  0  0
    4.6475   -2.7975   -1.7271 O   0  0  0  0  0  0  0  0  0  0  0  0
    6.6313   -1.8579   -1.4948 O   0  0  0  0  0  0  0  0  0  0  0  0
    4.8083   -1.2494    2.5939 H   0  0  0  0  0  0  0  0  0  0  0  0
    5.4273   -0.8243    1.0044 H   0  0  0  0  0  0  0  0  0  0  0  0
    6.5101   -1.5556    2.1906 H   0  0  0  0  0  0  0  0  0  0  0  0
    6.1585   -3.8851    2.8322 H   0  0  0  0  0  0  0  0  0  0  0  0
    4.4128   -3.8350    3.0783 H   0  0  0  0  0  0  0  0  0  0  0  0
    5.7256   -5.9846    1.9723 H   0  0  0  0  0  0  0  0  0  0  0  0
    3.7919   -7.4281    2.8310 H   0  0  0  0  0  0  0  0  0  0  0  0
    1.7387   -9.4987    3.2283 H   0  0  0  0  0  0  0  0  0  0  0  0
   -2.2109   -8.6284    2.0994 H   0  0  0  0  0  0  0  0  0  0  0  0
    6.5773   -5.4557   -0.0954 H   0  0  0  0  0  0  0  0  0  0  0  0
    4.9789   -5.1160   -0.6928 H   0  0  0  0  0  0  0  0  0  0  0  0
    7.0012   -3.2534    0.5027 H   0  0  0  0  0  0  0  0  0  0  0  0
  1  2  1  0
  1 20  1  0
  1 21  1  0
  1 22  1  0
  2 16  1  0
  2  3  1  0
  3  4  1  0
  3 23  1  0
  3 24  1  0
  4  5  1  0
  4 15  1  0
  4 25  1  1
  5 14  1  0
  5  6  1  0
  6  7  2  0
  6 26  1  0
  7  8  1  0
  7 13  1  0
  8 12  1  0
  8  9  2  0
  9 10  1  0
  9 27  1  0
 10 11  2  0
 11 12  1  0
 11 28  1  0
 13 14  2  0
 15 16  1  0
 15 29  1  0
 15 30  1  0
 16 17  1  0
 16 31  1  1
 17 18  2  0
 17 19  1  0
M  CHG  1  19  -1
M  END
>  <i_m_ct_stereo_status>  (320) 
1

>  <s_m_source_file>  (320) 
/var/tmp/pbs.5076255.sched01/tmp0pz6dnip/90w4u7_w6b.sdf

>  <i_m_source_file_index>  (320) 
42

>  <i_lp_mmshare_version>  (320) 
48012

>  <i_f3d_flags>  (320) 
0

>  <s_epik_input>  (320) 
Tz1DKFtPSF0pW0NAQEhdMVtDSDJdW0NAQEhdKFtDSDJdTjFbQ0gzXSluMltjSF1jKG5uMiktYzNbY0hdbltjSF1vMw==

>  <s_epik_cmdline>  (320) 
J2VwaWtfcHl0aG9uJywgJy1waHQnLCAnMi4wJywgJy1waCcsICc3LjAnLCAnLXRuJywgJzgnLCAnLW1hJywgJzIwMCcsICctaW1hZScsICc8aW5maWxlLm1hZT4nLCAnLW9tYWUnLCAnPG91dGZpbGUubWFlPic=

>  <r_lp_tautomer_probability>  (320) 
1

>  <r_epik_Ionization_Penalty>  (320) 
1.13096

>  <r_epik_Ionization_Penalty_Charging>  (320) 
0.00035499

>  <r_epik_Ionization_Penalty_Neutral>  (320) 
1.1306

>  <r_epik_State_Penalty>  (320) 
1.19026

>  <r_epik_Charging_Adjusted_Penalty>  (320) 
1.19061

>  <i_epik_Tot_Q>  (320) 
-1

>  <i_epik_Tot_abs_Q>  (320) 
1

>  <s_lp_Force_Field>  (320) 
OPLS3e

>  <r_lp_Energy>  (320) 
18.8298

>  <b_lp_Chiralities_Consistent>  (320) 
1

>  <s_lp_Variant>  (320) 
83:0-2

>  <s_i_glide_gridfile>  (320) 
pfpi4k_grid

>  <i_i_glide_lignum>  (320) 
42

>  <i_i_glide_rotatable_bonds>  (320) 
3

>  <r_i_docking_score>  (320) 
-3.23011

>  <r_i_glide_ligand_efficiency>  (320) 
-0.170006

>  <r_i_glide_ligand_efficiency_sa>  (320) 
-0.453643

>  <r_i_glide_ligand_efficiency_ln>  (320) 
-0.818901

>  <r_i_glide_gscore>  (320) 
-3.23011

>  <r_i_glide_lipo>  (320) 
-0.347674

>  <r_i_glide_hbond>  (320) 
-0.2

>  <r_i_glide_metal>  (320) 
-0

>  <r_i_glide_rewards>  (320) 
-1.66536

>  <r_i_glide_evdw>  (320) 
-20.7169

>  <r_i_glide_ecoul>  (320) 
-2.51054

>  <r_i_glide_erotb>  (320) 
0.515807

>  <r_i_glide_esite>  (320) 
-0.12045

>  <r_i_glide_emodel>  (320) 
-29.0983

>  <r_i_glide_energy>  (320) 
-23.2274

>  <r_i_glide_einternal>  (320) 
2.04796

>  <r_i_glide_intrahb_reward>  (320) 
-0

>  <i_i_glide_confnum>  (320) 
5

>  <i_i_glide_posenum>  (320) 
6

>  <r_i_glide_eff_state_penalty>  (320) 
0

>  <ligand_id>  (320) 
83

>  <original_smiles>  (320) 
CN1CC(n2cc(-c3cnco3)nn2)CC1C(=O)O

>  <smiles>  (320) 
[H]c1nc([H])c(-c2nnn(C3([H])C([H])([H])N(C([H])([H])[H])C([H])(C(=O)[O-])C3([H])[H])c2[H])o1

$$$$
83:1:2
     RDKit          3D

 31 33  0  0  1  0  0  0  0  0999 V2000
    4.0136   -0.8242   -0.4424 C   0  0  0  0  0  0  0  0  0  0  0  0
    4.0418   -2.2779   -0.4331 N   0  0  0  0  0  0  0  0  0  0  0  0
    4.2594   -2.8045    0.9138 C   0  0  0  0  0  0  0  0  0  0  0  0
    4.5746   -4.2934    0.6914 C   0  0  1  0  0  0  0  0  0  0  0  0
    3.4083   -5.1604    0.8373 N   0  0  0  0  0  0  0  0  0  0  0  0
    3.2657   -6.2597    1.6456 C   0  0  0  0  0  0  0  0  0  0  0  0
    1.9969   -6.7082    1.3743 C   0  0  0  0  0  0  0  0  0  0  0  0
    1.2567   -7.8165    1.9235 C   0  0  0  0  0  0  0  0  0  0  0  0
    1.6835   -8.9595    2.5276 C   0  0  0  0  0  0  0  0  0  0  0  0
    0.5555   -9.6902    2.9007 N   0  0  0  0  0  0  0  0  0  0  0  0
   -0.4746   -8.9469    2.4905 C   0  0  0  0  0  0  0  0  0  0  0  0
   -0.1142   -7.7813    1.8942 O   0  0  0  0  0  0  0  0  0  0  0  0
    1.4380   -5.8603    0.4159 N   0  0  0  0  0  0  0  0  0  0  0  0
    2.2887   -4.9538    0.0986 N   0  0  0  0  0  0  0  0  0  0  0  0
    5.1782   -4.3599   -0.7201 C   0  0  0  0  0  0  0  0  0  0  0  0
    5.0882   -2.9174   -1.2649 C   0  0  1  0  0  0  0  0  0  0  0  0
    4.8805   -2.8352   -2.8132 C   0  0  0  0  0  0  0  0  0  0  0  0
    4.6154   -1.7272   -3.3291 O   0  0  0  0  0  0  0  0  0  0  0  0
    5.0328   -3.8704   -3.4850 O   0  0  0  0  0  0  0  0  0  0  0  0
    3.1964   -0.4671    0.1889 H   0  0  0  0  0  0  0  0  0  0  0  0
    3.8270   -0.4441   -1.4414 H   0  0  0  0  0  0  0  0  0  0  0  0
    4.9534   -0.4004   -0.0837 H   0  0  0  0  0  0  0  0  0  0  0  0
    5.1204   -2.3168    1.3866 H   0  0  0  0  0  0  0  0  0  0  0  0
    3.4012   -2.6448    1.5712 H   0  0  0  0  0  0  0  0  0  0  0  0
    5.3111   -4.6175    1.4319 H   0  0  0  0  0  0  0  0  0  0  0  0
    4.0287   -6.6221    2.3198 H   0  0  0  0  0  0  0  0  0  0  0  0
    2.6859   -9.3096    2.7200 H   0  0  0  0  0  0  0  0  0  0  0  0
   -1.5079   -9.2413    2.6145 H   0  0  0  0  0  0  0  0  0  0  0  0
    6.2111   -4.7067   -0.6815 H   0  0  0  0  0  0  0  0  0  0  0  0
    4.6355   -5.0824   -1.3315 H   0  0  0  0  0  0  0  0  0  0  0  0
    6.0368   -2.4371   -1.0149 H   0  0  0  0  0  0  0  0  0  0  0  0
  1  2  1  0
  1 20  1  0
  1 21  1  0
  1 22  1  0
  2 16  1  0
  2  3  1  0
  3  4  1  0
  3 23  1  0
  3 24  1  0
  4  5  1  0
  4 15  1  0
  4 25  1  1
  5 14  1  0
  5  6  1  0
  6  7  2  0
  6 26  1  0
  7  8  1  0
  7 13  1  0
  8 12  1  0
  8  9  2  0
  9 10  1  0
  9 27  1  0
 10 11  2  0
 11 12  1  0
 11 28  1  0
 13 14  2  0
 15 16  1  0
 15 29  1  0
 15 30  1  0
 16 17  1  0
 16 31  1  6
 17 18  2  0
 17 19  1  0
M  CHG  1  19  -1
M  END
>  <i_m_ct_stereo_status>  (321) 
1

>  <s_m_source_file>  (321) 
/var/tmp/pbs.5076255.sched01/tmp0pz6dnip/90w4u7_w6b.sdf

>  <i_m_source_file_index>  (321) 
42

>  <i_lp_mmshare_version>  (321) 
48012

>  <i_f3d_flags>  (321) 
0

>  <s_epik_input>  (321) 
Tz1DKFtPSF0pW0NAQEhdMVtDSDJdW0NAQEhdKFtDSDJdTjFbQ0gzXSluMltjSF1jKG5uMiktYzNbY0hdbltjSF1vMw==

>  <s_epik_cmdline>  (321) 
J2VwaWtfcHl0aG9uJywgJy1waHQnLCAnMi4wJywgJy1waCcsICc3LjAnLCAnLXRuJywgJzgnLCAnLW1hJywgJzIwMCcsICctaW1hZScsICc8aW5maWxlLm1hZT4nLCAnLW9tYWUnLCAnPG91dGZpbGUubWFlPic=

>  <r_lp_tautomer_probability>  (321) 
1

>  <r_epik_Ionization_Penalty>  (321) 
1.13096

>  <r_epik_Ionization_Penalty_Charging>  (321) 
0.00035499

>  <r_epik_Ionization_Penalty_Neutral>  (321) 
1.1306

>  <r_epik_State_Penalty>  (321) 
1.19026

>  <r_epik_Charging_Adjusted_Penalty>  (321) 
1.19061

>  <i_epik_Tot_Q>  (321) 
-1

>  <i_epik_Tot_abs_Q>  (321) 
1

>  <s_lp_Force_Field>  (321) 
OPLS3e

>  <r_lp_Energy>  (321) 
18.8298

>  <b_lp_Chiralities_Consistent>  (321) 
1

>  <s_lp_Variant>  (321) 
83:0-2

>  <s_i_glide_gridfile>  (321) 
pfpi4k_grid

>  <i_i_glide_lignum>  (321) 
42

>  <i_i_glide_rotatable_bonds>  (321) 
3

>  <r_i_docking_score>  (321) 
-3.00324

>  <r_i_glide_ligand_efficiency>  (321) 
-0.158065

>  <r_i_glide_ligand_efficiency_sa>  (321) 
-0.421782

>  <r_i_glide_ligand_efficiency_ln>  (321) 
-0.761387

>  <r_i_glide_gscore>  (321) 
-3.00324

>  <r_i_glide_lipo>  (321) 
-0.156072

>  <r_i_glide_hbond>  (321) 
0

>  <r_i_glide_metal>  (321) 
-0

>  <r_i_glide_rewards>  (321) 
-1.81824

>  <r_i_glide_evdw>  (321) 
-21.9405

>  <r_i_glide_ecoul>  (321) 
-1.8404

>  <r_i_glide_erotb>  (321) 
0.515807

>  <r_i_glide_esite>  (321) 
-0.171651

>  <r_i_glide_emodel>  (321) 
-28.8755

>  <r_i_glide_energy>  (321) 
-23.7809

>  <r_i_glide_einternal>  (321) 
2.641

>  <r_i_glide_intrahb_reward>  (321) 
-0

>  <i_i_glide_confnum>  (321) 
4

>  <i_i_glide_posenum>  (321) 
39

>  <r_i_glide_eff_state_penalty>  (321) 
0

>  <ligand_id>  (321) 
83

>  <original_smiles>  (321) 
CN1CC(n2cc(-c3cnco3)nn2)CC1C(=O)O

>  <smiles>  (321) 
[H]c1nc([H])c(-c2nnn(C3([H])C([H])([H])N(C([H])([H])[H])C([H])(C(=O)[O-])C3([H])[H])c2[H])o1

$$$$
84:0:0
     RDKit          3D

 40 43  0  0  1  0  0  0  0  0999 V2000
    4.8796  -11.0455    3.3932 C   0  0  0  0  0  0  0  0  0  0  0  0
    3.4587  -10.4970    3.2343 C   0  0  2  0  0  0  0  0  0  0  0  0
    3.3374   -9.4728    2.1009 C   0  0  0  0  0  0  0  0  0  0  0  0
    1.9636   -8.9074    2.4209 C   0  0  2  0  0  0  0  0  0  0  0  0
    1.5313   -7.7613    1.7355 O   0  0  0  0  0  0  0  0  0  0  0  0
    0.2682   -7.3412    1.9628 C   0  0  0  0  0  0  0  0  0  0  0  0
   -0.2280   -6.3878    1.3557 O   0  0  0  0  0  0  0  0  0  0  0  0
   -0.5396   -8.1277    3.0283 C   0  0  1  0  0  0  0  0  0  0  0  0
   -1.5212   -9.1086    2.3588 C   0  0  0  0  0  0  0  0  0  0  0  0
    0.3176   -8.7895    4.1795 C   0  0  2  0  0  0  0  0  0  0  0  0
    0.0033   -8.0059    5.2900 O   0  0  0  0  0  0  0  0  0  0  0  0
    0.5050   -8.6705    6.4992 O   0  0  0  0  0  0  0  0  0  0  0  0
    1.8044   -8.2498    6.7725 C   0  0  1  0  0  0  0  0  0  0  0  0
    1.8034   -7.5344    8.1393 C   0  0  0  0  0  0  0  0  0  0  0  0
    2.6805   -9.4998    6.9079 C   0  0  0  0  0  0  0  0  0  0  0  0
    2.6046  -10.4599    5.7109 C   0  0  0  0  0  0  0  0  0  0  0  0
    2.9455   -9.6873    4.4488 C   0  0  2  0  0  0  0  0  0  0  0  0
    1.8604   -8.6984    3.9397 C   0  0  1  0  0  0  0  0  0  0  0  0
    2.2214   -7.3919    4.3651 O   0  0  0  0  0  0  0  0  0  0  0  0
    2.3795   -7.2355    5.9035 O   0  0  0  0  0  0  0  0  0  0  0  0
    5.5963  -10.2538    3.5957 H   0  0  0  0  0  0  0  0  0  0  0  0
    5.1895  -11.5506    2.4832 H   0  0  0  0  0  0  0  0  0  0  0  0
    4.9372  -11.7713    4.2049 H   0  0  0  0  0  0  0  0  0  0  0  0
    2.7715  -11.3220    3.0510 H   0  0  0  0  0  0  0  0  0  0  0  0
    4.1077   -8.7067    2.1660 H   0  0  0  0  0  0  0  0  0  0  0  0
    3.3550   -9.9281    1.1160 H   0  0  0  0  0  0  0  0  0  0  0  0
    1.2848   -9.7185    2.1498 H   0  0  0  0  0  0  0  0  0  0  0  0
   -1.1611   -7.3669    3.5149 H   0  0  0  0  0  0  0  0  0  0  0  0
   -2.1868   -8.5674    1.7025 H   0  0  0  0  0  0  0  0  0  0  0  0
   -2.1192   -9.6128    3.1058 H   0  0  0  0  0  0  0  0  0  0  0  0
   -0.9968   -9.8589    1.7645 H   0  0  0  0  0  0  0  0  0  0  0  0
   -0.0142   -9.8070    4.3494 H   0  0  0  0  0  0  0  0  0  0  0  0
    1.1990   -6.6308    8.1261 H   0  0  0  0  0  0  0  0  0  0  0  0
    2.8269   -7.2340    8.3826 H   0  0  0  0  0  0  0  0  0  0  0  0
    1.4572   -8.1785    8.9596 H   0  0  0  0  0  0  0  0  0  0  0  0
    3.7229   -9.2095    7.0913 H   0  0  0  0  0  0  0  0  0  0  0  0
    2.3675  -10.0809    7.7947 H   0  0  0  0  0  0  0  0  0  0  0  0
    3.3030  -11.2709    5.8681 H   0  0  0  0  0  0  0  0  0  0  0  0
    1.6178  -10.9124    5.6453 H   0  0  0  0  0  0  0  0  0  0  0  0
    3.7958   -9.0544    4.7094 H   0  0  0  0  0  0  0  0  0  0  0  0
  1  2  1  0
  1 21  1  0
  1 22  1  0
  1 23  1  0
  2 17  1  0
  2  3  1  0
  2 24  1  6
  3  4  1  0
  3 25  1  0
  3 26  1  0
  4 18  1  0
  4  5  1  0
  4 27  1  6
  5  6  1  0
  6  7  2  0
  6  8  1  0
  8  9  1  0
  8 10  1  0
  8 28  1  1
  9 29  1  0
  9 30  1  0
  9 31  1  0
 10 18  1  0
 10 11  1  0
 10 32  1  1
 11 12  1  0
 12 13  1  0
 13 20  1  0
 13 14  1  1
 13 15  1  0
 14 33  1  0
 14 34  1  0
 14 35  1  0
 15 16  1  0
 15 36  1  0
 15 37  1  0
 16 17  1  0
 16 38  1  0
 16 39  1  0
 17 18  1  0
 17 40  1  1
 18 19  1  6
 19 20  1  0
M  END
>  <i_m_ct_stereo_status>  (322) 
1

>  <s_m_source_file>  (322) 
/var/tmp/pbs.5076255.sched01/tmp0pz6dnip/90w4u7_w6b.sdf

>  <i_m_source_file_index>  (322) 
43

>  <i_lp_mmshare_version>  (322) 
48012

>  <i_f3d_flags>  (322) 
0

>  <s_epik_input>  (322) 
W0NAXTEyM1tDQEBIXTRbQ0gyXVtDQEBIXShbQ0gzXSlbQ0BASF0yW0NIMl1bQ0gyXVtDQEBdKFtDSDNdKShPTzMpT09bQ0BIXTFbQ0BASF0oQyhPNCk9TylbQ0gzXQ==

>  <s_epik_cmdline>  (322) 
J2VwaWtfcHl0aG9uJywgJy1waHQnLCAnMi4wJywgJy1waCcsICc3LjAnLCAnLXRuJywgJzgnLCAnLW1hJywgJzIwMCcsICctaW1hZScsICc8aW5maWxlLm1hZT4nLCAnLW9tYWUnLCAnPG91dGZpbGUubWFlPic=

>  <r_lp_tautomer_probability>  (322) 
1

>  <r_epik_Ionization_Penalty>  (322) 
8.3996e-12

>  <r_epik_Ionization_Penalty_Charging>  (322) 
0

>  <r_epik_Ionization_Penalty_Neutral>  (322) 
8.3996e-12

>  <r_epik_State_Penalty>  (322) 
-0

>  <r_epik_Charging_Adjusted_Penalty>  (322) 
0

>  <i_epik_Tot_Q>  (322) 
0

>  <i_epik_Tot_abs_Q>  (322) 
0

>  <s_epik_Chemistry_Notes>  (322) 
This compound has an ester and may undergo hydrolysis at high or low pH.

>  <s_lp_Force_Field>  (322) 
OPLS3e

>  <r_lp_Energy>  (322) 
35.9083

>  <b_lp_Chiralities_Consistent>  (322) 
1

>  <s_lp_Variant>  (322) 
84:0-1

>  <s_i_glide_gridfile>  (322) 
pfpi4k_grid

>  <i_i_glide_lignum>  (322) 
43

>  <i_i_glide_rotatable_bonds>  (322) 
0

>  <r_i_docking_score>  (322) 
-3.94373

>  <r_i_glide_ligand_efficiency>  (322) 
-0.197186

>  <r_i_glide_ligand_efficiency_sa>  (322) 
-0.535246

>  <r_i_glide_ligand_efficiency_ln>  (322) 
-0.986985

>  <r_i_glide_gscore>  (322) 
-3.94373

>  <r_i_glide_lipo>  (322) 
-0.277723

>  <r_i_glide_hbond>  (322) 
-0.303948

>  <r_i_glide_metal>  (322) 
-0

>  <r_i_glide_rewards>  (322) 
-1.47065

>  <r_i_glide_evdw>  (322) 
-20.1461

>  <r_i_glide_ecoul>  (322) 
-5.31042

>  <r_i_glide_erotb>  (322) 
0

>  <r_i_glide_esite>  (322) 
-0.0875394

>  <r_i_glide_emodel>  (322) 
-32.5785

>  <r_i_glide_energy>  (322) 
-25.4565

>  <r_i_glide_einternal>  (322) 
0

>  <r_i_glide_intrahb_reward>  (322) 
-0

>  <i_i_glide_confnum>  (322) 
2

>  <i_i_glide_posenum>  (322) 
8

>  <r_i_glide_eff_state_penalty>  (322) 
0

>  <ligand_id>  (322) 
84

>  <original_smiles>  (322) 
CC1CC2OC(=O)C(C)C3OOC4(C)CCC1C23OO4

>  <smiles>  (322) 
[H]C([H])([H])C12OOC3([H])C([H])(C([H])([H])[H])C(=O)OC4([H])C([H])([H])C([H])(C([H])([H])[H])C([H])(C([H])([H])C1([H])[H])C43OO2

$$$$
84:0:1
     RDKit          3D

 40 43  0  0  1  0  0  0  0  0999 V2000
    4.8834   -9.6196    1.6859 C   0  0  0  0  0  0  0  0  0  0  0  0
    3.8177   -8.8365    2.4552 C   0  0  2  0  0  0  0  0  0  0  0  0
    2.4440   -9.5197    2.4517 C   0  0  0  0  0  0  0  0  0  0  0  0
    1.5894   -8.3752    2.9665 C   0  0  2  0  0  0  0  0  0  0  0  0
    0.1761   -8.4922    2.9412 O   0  0  0  0  0  0  0  0  0  0  0  0
   -0.5401   -7.4801    3.5167 C   0  0  0  0  0  0  0  0  0  0  0  0
   -1.7748   -7.4692    3.5996 O   0  0  0  0  0  0  0  0  0  0  0  0
    0.2882   -6.3060    4.0822 C   0  0  1  0  0  0  0  0  0  0  0  0
    0.4249   -6.4212    5.6084 C   0  0  0  0  0  0  0  0  0  0  0  0
    1.6467   -6.0048    3.3449 C   0  0  2  0  0  0  0  0  0  0  0  0
    1.3845   -4.8019    2.6610 O   0  0  0  0  0  0  0  0  0  0  0  0
    2.6416   -4.2627    2.1662 O   0  0  0  0  0  0  0  0  0  0  0  0
    2.8878   -4.7394    0.8693 C   0  0  1  0  0  0  0  0  0  0  0  0
    2.8958   -3.5499   -0.1212 C   0  0  0  0  0  0  0  0  0  0  0  0
    4.3123   -5.3304    0.8756 C   0  0  0  0  0  0  0  0  0  0  0  0
    4.5379   -6.3635    1.9859 C   0  0  0  0  0  0  0  0  0  0  0  0
    3.4886   -7.4567    1.8491 C   0  0  2  0  0  0  0  0  0  0  0  0
    2.0389   -7.0822    2.2800 C   0  0  1  0  0  0  0  0  0  0  0  0
    1.2725   -6.7511    1.1230 O   0  0  0  0  0  0  0  0  0  0  0  0
    1.8839   -5.6227    0.2671 O   0  0  0  0  0  0  0  0  0  0  0  0
    4.5917   -9.7715    0.6470 H   0  0  0  0  0  0  0  0  0  0  0  0
    5.0118  -10.6079    2.1230 H   0  0  0  0  0  0  0  0  0  0  0  0
    5.8541   -9.1270    1.6970 H   0  0  0  0  0  0  0  0  0  0  0  0
    4.1499   -8.6942    3.4849 H   0  0  0  0  0  0  0  0  0  0  0  0
    2.1470   -9.8171    1.4464 H   0  0  0  0  0  0  0  0  0  0  0  0
    2.4099  -10.3892    3.1106 H   0  0  0  0  0  0  0  0  0  0  0  0
    1.8770   -8.3120    4.0198 H   0  0  0  0  0  0  0  0  0  0  0  0
   -0.3429   -5.4360    3.9180 H   0  0  0  0  0  0  0  0  0  0  0  0
   -0.5645   -6.4518    6.0606 H   0  0  0  0  0  0  0  0  0  0  0  0
    0.9356   -5.5463    6.0070 H   0  0  0  0  0  0  0  0  0  0  0  0
    0.9647   -7.3143    5.9146 H   0  0  0  0  0  0  0  0  0  0  0  0
    2.4425   -5.8484    4.0752 H   0  0  0  0  0  0  0  0  0  0  0  0
    1.9209   -3.0743   -0.1847 H   0  0  0  0  0  0  0  0  0  0  0  0
    3.1414   -3.9173   -1.1116 H   0  0  0  0  0  0  0  0  0  0  0  0
    3.6348   -2.7892    0.1393 H   0  0  0  0  0  0  0  0  0  0  0  0
    4.5334   -5.7599   -0.1045 H   0  0  0  0  0  0  0  0  0  0  0  0
    5.0322   -4.5218    1.0339 H   0  0  0  0  0  0  0  0  0  0  0  0
    5.5320   -6.7755    1.8659 H   0  0  0  0  0  0  0  0  0  0  0  0
    4.5094   -5.9000    2.9655 H   0  0  0  0  0  0  0  0  0  0  0  0
    3.4043   -7.6579    0.7813 H   0  0  0  0  0  0  0  0  0  0  0  0
  1  2  1  0
  1 21  1  0
  1 22  1  0
  1 23  1  0
  2 17  1  0
  2  3  1  0
  2 24  1  1
  3  4  1  0
  3 25  1  0
  3 26  1  0
  4 18  1  0
  4  5  1  0
  4 27  1  1
  5  6  1  0
  6  7  2  0
  6  8  1  0
  8  9  1  0
  8 10  1  0
  8 28  1  1
  9 29  1  0
  9 30  1  0
  9 31  1  0
 10 18  1  0
 10 11  1  0
 10 32  1  1
 11 12  1  0
 12 13  1  0
 13 20  1  0
 13 14  1  6
 13 15  1  0
 14 33  1  0
 14 34  1  0
 14 35  1  0
 15 16  1  0
 15 36  1  0
 15 37  1  0
 16 17  1  0
 16 38  1  0
 16 39  1  0
 17 18  1  0
 17 40  1  6
 18 19  1  6
 19 20  1  0
M  END
>  <i_m_ct_stereo_status>  (323) 
1

>  <s_m_source_file>  (323) 
/var/tmp/pbs.5076255.sched01/tmp0pz6dnip/90w4u7_w6b.sdf

>  <i_m_source_file_index>  (323) 
43

>  <i_lp_mmshare_version>  (323) 
48012

>  <i_f3d_flags>  (323) 
0

>  <s_epik_input>  (323) 
W0NAXTEyM1tDQEBIXTRbQ0gyXVtDQEBIXShbQ0gzXSlbQ0BASF0yW0NIMl1bQ0gyXVtDQEBdKFtDSDNdKShPTzMpT09bQ0BIXTFbQ0BASF0oQyhPNCk9TylbQ0gzXQ==

>  <s_epik_cmdline>  (323) 
J2VwaWtfcHl0aG9uJywgJy1waHQnLCAnMi4wJywgJy1waCcsICc3LjAnLCAnLXRuJywgJzgnLCAnLW1hJywgJzIwMCcsICctaW1hZScsICc8aW5maWxlLm1hZT4nLCAnLW9tYWUnLCAnPG91dGZpbGUubWFlPic=

>  <r_lp_tautomer_probability>  (323) 
1

>  <r_epik_Ionization_Penalty>  (323) 
8.3996e-12

>  <r_epik_Ionization_Penalty_Charging>  (323) 
0

>  <r_epik_Ionization_Penalty_Neutral>  (323) 
8.3996e-12

>  <r_epik_State_Penalty>  (323) 
-0

>  <r_epik_Charging_Adjusted_Penalty>  (323) 
0

>  <i_epik_Tot_Q>  (323) 
0

>  <i_epik_Tot_abs_Q>  (323) 
0

>  <s_epik_Chemistry_Notes>  (323) 
This compound has an ester and may undergo hydrolysis at high or low pH.

>  <s_lp_Force_Field>  (323) 
OPLS3e

>  <r_lp_Energy>  (323) 
35.9083

>  <b_lp_Chiralities_Consistent>  (323) 
1

>  <s_lp_Variant>  (323) 
84:0-1

>  <s_i_glide_gridfile>  (323) 
pfpi4k_grid

>  <i_i_glide_lignum>  (323) 
43

>  <i_i_glide_rotatable_bonds>  (323) 
0

>  <r_i_docking_score>  (323) 
-3.0294

>  <r_i_glide_ligand_efficiency>  (323) 
-0.15147

>  <r_i_glide_ligand_efficiency_sa>  (323) 
-0.411153

>  <r_i_glide_ligand_efficiency_ln>  (323) 
-0.75816

>  <r_i_glide_gscore>  (323) 
-3.0294

>  <r_i_glide_lipo>  (323) 
-0.113709

>  <r_i_glide_hbond>  (323) 
-0.0616213

>  <r_i_glide_metal>  (323) 
-0

>  <r_i_glide_rewards>  (323) 
-1.47065

>  <r_i_glide_evdw>  (323) 
-22.4848

>  <r_i_glide_ecoul>  (323) 
-1.22906

>  <r_i_glide_erotb>  (323) 
0

>  <r_i_glide_esite>  (323) 
-0.074825

>  <r_i_glide_emodel>  (323) 
-29.0835

>  <r_i_glide_energy>  (323) 
-23.7139

>  <r_i_glide_einternal>  (323) 
0

>  <r_i_glide_intrahb_reward>  (323) 
-0

>  <i_i_glide_confnum>  (323) 
2

>  <i_i_glide_posenum>  (323) 
16

>  <r_i_glide_eff_state_penalty>  (323) 
0

>  <ligand_id>  (323) 
84

>  <original_smiles>  (323) 
CC1CC2OC(=O)C(C)C3OOC4(C)CCC1C23OO4

>  <smiles>  (323) 
[H]C([H])([H])C12OOC3([H])C([H])(C([H])([H])[H])C(=O)OC4([H])C([H])([H])C([H])(C([H])([H])[H])C([H])(C([H])([H])C1([H])[H])C43OO2

$$$$
84:0:2
     RDKit          3D

 40 43  0  0  1  0  0  0  0  0999 V2000
    3.7544  -11.3687    4.1380 C   0  0  0  0  0  0  0  0  0  0  0  0
    3.7206  -10.0151    3.4198 C   0  0  2  0  0  0  0  0  0  0  0  0
    4.5824   -8.9487    4.0979 C   0  0  0  0  0  0  0  0  0  0  0  0
    4.0772   -7.7146    3.3720 C   0  0  2  0  0  0  0  0  0  0  0  0
    4.4645   -6.4291    3.8389 O   0  0  0  0  0  0  0  0  0  0  0  0
    4.0862   -5.3635    3.0957 C   0  0  0  0  0  0  0  0  0  0  0  0
    4.4351   -4.2018    3.3611 O   0  0  0  0  0  0  0  0  0  0  0  0
    3.2142   -5.6592    1.8598 C   0  0  1  0  0  0  0  0  0  0  0  0
    4.0724   -5.6353    0.5757 C   0  0  0  0  0  0  0  0  0  0  0  0
    2.2840   -6.9359    1.9742 C   0  0  2  0  0  0  0  0  0  0  0  0
    1.0005   -6.3711    2.0739 O   0  0  0  0  0  0  0  0  0  0  0  0
    0.0020   -7.4332    1.8935 O   0  0  0  0  0  0  0  0  0  0  0  0
   -0.2976   -8.0175    3.1368 C   0  0  1  0  0  0  0  0  0  0  0  0
   -1.7862   -7.7776    3.4186 C   0  0  0  0  0  0  0  0  0  0  0  0
   -0.1121   -9.5389    3.0006 C   0  0  0  0  0  0  0  0  0  0  0  0
    1.2795   -9.9440    2.5040 C   0  0  0  0  0  0  0  0  0  0  0  0
    2.3329   -9.3401    3.3992 C   0  0  2  0  0  0  0  0  0  0  0  0
    2.5554   -7.8002    3.2474 C   0  0  1  0  0  0  0  0  0  0  0  0
    1.8473   -7.1491    4.2919 O   0  0  0  0  0  0  0  0  0  0  0  0
    0.3215   -7.4451    4.3151 O   0  0  0  0  0  0  0  0  0  0  0  0
    3.3957  -11.2835    5.1663 H   0  0  0  0  0  0  0  0  0  0  0  0
    4.7705  -11.7550    4.1775 H   0  0  0  0  0  0  0  0  0  0  0  0
    3.1420  -12.1105    3.6316 H   0  0  0  0  0  0  0  0  0  0  0  0
    4.0568  -10.1552    2.3860 H   0  0  0  0  0  0  0  0  0  0  0  0
    4.3728   -8.8954    5.1681 H   0  0  0  0  0  0  0  0  0  0  0  0
    5.6484   -9.1102    3.9413 H   0  0  0  0  0  0  0  0  0  0  0  0
    4.5025   -7.8213    2.3742 H   0  0  0  0  0  0  0  0  0  0  0  0
    2.5433   -4.7958    1.7969 H   0  0  0  0  0  0  0  0  0  0  0  0
    4.5490   -4.6623    0.4863 H   0  0  0  0  0  0  0  0  0  0  0  0
    3.4476   -5.7777   -0.3016 H   0  0  0  0  0  0  0  0  0  0  0  0
    4.8497   -6.3947    0.5845 H   0  0  0  0  0  0  0  0  0  0  0  0
    2.3442   -7.5148    1.0659 H   0  0  0  0  0  0  0  0  0  0  0  0
   -2.0085   -6.7146    3.5429 H   0  0  0  0  0  0  0  0  0  0  0  0
   -2.0437   -8.2705    4.3594 H   0  0  0  0  0  0  0  0  0  0  0  0
   -2.4461   -8.1901    2.6474 H   0  0  0  0  0  0  0  0  0  0  0  0
   -0.3138  -10.0147    3.9646 H   0  0  0  0  0  0  0  0  0  0  0  0
   -0.8422   -9.9428    2.2917 H   0  0  0  0  0  0  0  0  0  0  0  0
    1.3408  -11.0350    2.5185 H   0  0  0  0  0  0  0  0  0  0  0  0
    1.4204   -9.6398    1.4703 H   0  0  0  0  0  0  0  0  0  0  0  0
    1.9704   -9.4633    4.4199 H   0  0  0  0  0  0  0  0  0  0  0  0
  1  2  1  0
  1 21  1  0
  1 22  1  0
  1 23  1  0
  2 17  1  0
  2  3  1  0
  2 24  1  6
  3  4  1  0
  3 25  1  0
  3 26  1  0
  4 18  1  0
  4  5  1  0
  4 27  1  6
  5  6  1  0
  6  7  2  0
  6  8  1  0
  8  9  1  0
  8 10  1  0
  8 28  1  6
  9 29  1  0
  9 30  1  0
  9 31  1  0
 10 18  1  0
 10 11  1  0
 10 32  1  6
 11 12  1  0
 12 13  1  0
 13 20  1  0
 13 14  1  1
 13 15  1  0
 14 33  1  0
 14 34  1  0
 14 35  1  0
 15 16  1  0
 15 36  1  0
 15 37  1  0
 16 17  1  0
 16 38  1  0
 16 39  1  0
 17 18  1  0
 17 40  1  1
 18 19  1  1
 19 20  1  0
M  END
>  <i_m_ct_stereo_status>  (324) 
1

>  <s_m_source_file>  (324) 
/var/tmp/pbs.5076255.sched01/tmp0pz6dnip/90w4u7_w6b.sdf

>  <i_m_source_file_index>  (324) 
43

>  <i_lp_mmshare_version>  (324) 
48012

>  <i_f3d_flags>  (324) 
0

>  <s_epik_input>  (324) 
W0NAXTEyM1tDQEBIXTRbQ0gyXVtDQEBIXShbQ0gzXSlbQ0BASF0yW0NIMl1bQ0gyXVtDQEBdKFtDSDNdKShPTzMpT09bQ0BIXTFbQ0BASF0oQyhPNCk9TylbQ0gzXQ==

>  <s_epik_cmdline>  (324) 
J2VwaWtfcHl0aG9uJywgJy1waHQnLCAnMi4wJywgJy1waCcsICc3LjAnLCAnLXRuJywgJzgnLCAnLW1hJywgJzIwMCcsICctaW1hZScsICc8aW5maWxlLm1hZT4nLCAnLW9tYWUnLCAnPG91dGZpbGUubWFlPic=

>  <r_lp_tautomer_probability>  (324) 
1

>  <r_epik_Ionization_Penalty>  (324) 
8.3996e-12

>  <r_epik_Ionization_Penalty_Charging>  (324) 
0

>  <r_epik_Ionization_Penalty_Neutral>  (324) 
8.3996e-12

>  <r_epik_State_Penalty>  (324) 
-0

>  <r_epik_Charging_Adjusted_Penalty>  (324) 
0

>  <i_epik_Tot_Q>  (324) 
0

>  <i_epik_Tot_abs_Q>  (324) 
0

>  <s_epik_Chemistry_Notes>  (324) 
This compound has an ester and may undergo hydrolysis at high or low pH.

>  <s_lp_Force_Field>  (324) 
OPLS3e

>  <r_lp_Energy>  (324) 
35.9083

>  <b_lp_Chiralities_Consistent>  (324) 
1

>  <s_lp_Variant>  (324) 
84:0-1

>  <s_i_glide_gridfile>  (324) 
pfpi4k_grid

>  <i_i_glide_lignum>  (324) 
43

>  <i_i_glide_rotatable_bonds>  (324) 
0

>  <r_i_docking_score>  (324) 
-3.00663

>  <r_i_glide_ligand_efficiency>  (324) 
-0.150332

>  <r_i_glide_ligand_efficiency_sa>  (324) 
-0.408063

>  <r_i_glide_ligand_efficiency_ln>  (324) 
-0.752461

>  <r_i_glide_gscore>  (324) 
-3.00663

>  <r_i_glide_lipo>  (324) 
-0.206001

>  <r_i_glide_hbond>  (324) 
-0.000149791

>  <r_i_glide_metal>  (324) 
-0

>  <r_i_glide_rewards>  (324) 
-1.47065

>  <r_i_glide_evdw>  (324) 
-20.8937

>  <r_i_glide_ecoul>  (324) 
-1.58116

>  <r_i_glide_erotb>  (324) 
0

>  <r_i_glide_esite>  (324) 
-0.0479767

>  <r_i_glide_emodel>  (324) 
-27.839

>  <r_i_glide_energy>  (324) 
-22.4748

>  <r_i_glide_einternal>  (324) 
0

>  <r_i_glide_intrahb_reward>  (324) 
-0

>  <i_i_glide_confnum>  (324) 
2

>  <i_i_glide_posenum>  (324) 
17

>  <r_i_glide_eff_state_penalty>  (324) 
0

>  <ligand_id>  (324) 
84

>  <original_smiles>  (324) 
CC1CC2OC(=O)C(C)C3OOC4(C)CCC1C23OO4

>  <smiles>  (324) 
[H]C([H])([H])C12OOC3([H])C([H])(C([H])([H])[H])C(=O)OC4([H])C([H])([H])C([H])(C([H])([H])[H])C([H])(C([H])([H])C1([H])[H])C43OO2

$$$$
85:0:0
     RDKit          3D

 40 41  0  0  1  0  0  0  0  0999 V2000
    0.7768   -4.6769   -1.4213 C   0  0  0  0  0  0  0  0  0  0  0  0
    1.9159   -4.3367   -0.6540 O   0  0  0  0  0  0  0  0  0  0  0  0
    2.4552   -5.1853    0.2423 C   0  0  0  0  0  0  0  0  0  0  0  0
    1.7714   -5.9779    0.8930 O   0  0  0  0  0  0  0  0  0  0  0  0
    3.9133   -4.9837    0.3647 C   0  0  0  0  0  0  0  0  0  0  0  0
    4.8067   -6.0099    0.4797 C   0  0  0  0  0  0  0  0  0  0  0  0
    4.4006   -7.4736    0.4248 C   0  0  0  0  0  0  0  0  0  0  0  0
    6.1852   -5.7720    0.5172 N   0  0  0  0  0  0  0  0  0  0  0  0
    6.7019   -4.6062    0.6413 C   0  0  0  0  0  0  0  0  0  0  0  0
    8.2183   -4.4310    0.7103 C   0  0  0  0  0  0  0  0  0  0  0  0
    5.8439   -3.3454    0.8411 C   0  0  1  0  0  0  0  0  0  0  0  0
    6.4931   -2.0137    0.3568 C   0  0  0  0  0  0  0  0  0  0  0  0
    7.1741   -1.9692   -0.6718 O   0  0  0  0  0  0  0  0  0  0  0  0
    6.2005   -0.9015    1.0590 O   0  0  0  0  0  0  0  0  0  0  0  0
    5.3798   -0.9089    2.2103 C   0  0  0  0  0  0  0  0  0  0  0  0
    4.4050   -3.5349    0.2856 C   0  0  1  0  0  0  0  0  0  0  0  0
    4.2955   -2.9927   -1.1311 C   0  0  0  0  0  0  0  0  0  0  0  0
    3.6165   -1.7828   -1.4113 C   0  0  0  0  0  0  0  0  0  0  0  0
    3.5591   -1.3240   -2.7494 C   0  0  0  0  0  0  0  0  0  0  0  0
    4.1789   -2.1022   -3.7389 C   0  0  0  0  0  0  0  0  0  0  0  0
    4.8167   -3.2558   -3.4828 N   0  0  0  0  0  0  0  0  0  0  0  0
    4.8723   -3.6844   -2.2122 C   0  0  0  0  0  0  0  0  0  0  0  0
    0.3737   -3.8096   -1.9650 H   0  0  0  0  0  0  0  0  0  0  0  0
   -0.0226   -5.0662   -0.7993 H   0  0  0  0  0  0  0  0  0  0  0  0
    1.0135   -5.4918   -2.0976 H   0  0  0  0  0  0  0  0  0  0  0  0
    3.3489   -7.6557    0.5798 H   0  0  0  0  0  0  0  0  0  0  0  0
    4.9835   -8.0546    1.1390 H   0  0  0  0  0  0  0  0  0  0  0  0
    4.6528   -7.8804   -0.5523 H   0  0  0  0  0  0  0  0  0  0  0  0
    8.5125   -3.9976    1.6633 H   0  0  0  0  0  0  0  0  0  0  0  0
    8.5907   -3.7697   -0.0787 H   0  0  0  0  0  0  0  0  0  0  0  0
    8.7414   -5.3916    0.6707 H   0  0  0  0  0  0  0  0  0  0  0  0
    5.7436   -3.2900    1.9224 H   0  0  0  0  0  0  0  0  0  0  0  0
    5.2877    0.1155    2.5865 H   0  0  0  0  0  0  0  0  0  0  0  0
    5.8373   -1.5534    2.9684 H   0  0  0  0  0  0  0  0  0  0  0  0
    4.3862   -1.2765    1.9423 H   0  0  0  0  0  0  0  0  0  0  0  0
    3.7307   -2.9521    0.9143 H   0  0  0  0  0  0  0  0  0  0  0  0
    3.1561   -1.2104   -0.6348 H   0  0  0  0  0  0  0  0  0  0  0  0
    3.0610   -0.4094   -2.9969 H   0  0  0  0  0  0  0  0  0  0  0  0
    4.1652   -1.7933   -4.7775 H   0  0  0  0  0  0  0  0  0  0  0  0
    5.4057   -4.6093   -2.0381 H   0  0  0  0  0  0  0  0  0  0  0  0
  1  2  1  0
  1 23  1  0
  1 24  1  0
  1 25  1  0
  2  3  1  0
  3  4  2  0
  3  5  1  0
  5 16  1  0
  5  6  2  0
  6  7  1  0
  6  8  1  0
  7 26  1  0
  7 27  1  0
  7 28  1  0
  8  9  2  0
  9 10  1  0
  9 11  1  0
 10 29  1  0
 10 30  1  0
 10 31  1  0
 11 12  1  0
 11 16  1  0
 11 32  1  1
 12 13  2  0
 12 14  1  0
 14 15  1  0
 15 33  1  0
 15 34  1  0
 15 35  1  0
 16 17  1  0
 16 36  1  1
 17 22  1  0
 17 18  2  0
 18 19  1  0
 18 37  1  0
 19 20  2  0
 19 38  1  0
 20 21  1  0
 20 39  1  0
 21 22  2  0
 22 40  1  0
M  END
>  <i_m_ct_stereo_status>  (325) 
1

>  <s_m_source_file>  (325) 
/var/tmp/pbs.5076255.sched01/tmp0pz6dnip/90w4u7_w6b.sdf

>  <i_m_source_file_index>  (325) 
44

>  <i_lp_mmshare_version>  (325) 
48012

>  <i_f3d_flags>  (325) 
0

>  <s_epik_input>  (325) 
W0NIM11PQyg9TylDMT1DKFtDSDNdKU49QyhbQ0gzXSlbQ0BASF0oQyg9TylPW0NIM10pW0NASF0xYzJbY0hdW2NIXVtjSF1uW2NIXTI=

>  <s_epik_cmdline>  (325) 
J2VwaWtfcHl0aG9uJywgJy1waHQnLCAnMi4wJywgJy1waCcsICc3LjAnLCAnLXRuJywgJzgnLCAnLW1hJywgJzIwMCcsICctaW1hZScsICc8aW5maWxlLm1hZT4nLCAnLW9tYWUnLCAnPG91dGZpbGUubWFlPic=

>  <r_lp_tautomer_probability>  (325) 
0.499993

>  <r_epik_Ionization_Penalty>  (325) 
0.00145527

>  <r_epik_Ionization_Penalty_Charging>  (325) 
0

>  <r_epik_Ionization_Penalty_Neutral>  (325) 
0.00145527

>  <r_epik_State_Penalty>  (325) 
0.412147

>  <r_epik_Charging_Adjusted_Penalty>  (325) 
0.412147

>  <i_epik_Tot_Q>  (325) 
0

>  <i_epik_Tot_abs_Q>  (325) 
0

>  <s_epik_Chemistry_Notes>  (325) 
This compound has an ester and may undergo hydrolysis at high or low pH. This compound has an imine and may undergo hydrolysis.

>  <s_lp_Force_Field>  (325) 
OPLS3e

>  <r_lp_Energy>  (325) 
34.3198

>  <b_lp_Chiralities_Consistent>  (325) 
1

>  <s_lp_Variant>  (325) 
85:0-1

>  <s_i_glide_gridfile>  (325) 
pfpi4k_grid

>  <i_i_glide_lignum>  (325) 
44

>  <i_i_glide_rotatable_bonds>  (325) 
5

>  <r_i_docking_score>  (325) 
-3.69443

>  <r_i_glide_ligand_efficiency>  (325) 
-0.167929

>  <r_i_glide_ligand_efficiency_sa>  (325) 
-0.470543

>  <r_i_glide_ligand_efficiency_ln>  (325) 
-0.903053

>  <r_i_glide_gscore>  (325) 
-3.69443

>  <r_i_glide_lipo>  (325) 
-0.73914

>  <r_i_glide_hbond>  (325) 
-0.216298

>  <r_i_glide_metal>  (325) 
-0

>  <r_i_glide_rewards>  (325) 
-1.57956

>  <r_i_glide_evdw>  (325) 
-22.3073

>  <r_i_glide_ecoul>  (325) 
-3.94026

>  <r_i_glide_erotb>  (325) 
0.604277

>  <r_i_glide_esite>  (325) 
-0.0573055

>  <r_i_glide_emodel>  (325) 
-26.839

>  <r_i_glide_energy>  (325) 
-26.2475

>  <r_i_glide_einternal>  (325) 
9.18299

>  <r_i_glide_intrahb_reward>  (325) 
-0

>  <i_i_glide_confnum>  (325) 
3

>  <i_i_glide_posenum>  (325) 
2

>  <r_i_glide_eff_state_penalty>  (325) 
0

>  <ligand_id>  (325) 
85

>  <original_smiles>  (325) 
COC(=O)C1=C(C)N=C(C)C(C(=O)OC)C1c1cccnc1

>  <smiles>  (325) 
[H]c1nc([H])c(C2([H])C(C(=O)OC([H])([H])[H])=C(C([H])([H])[H])N=C(C([H])([H])[H])C2([H])C(=O)OC([H])([H])[H])c([H])c1[H]

$$$$
85:0:1
     RDKit          3D

 40 41  0  0  1  0  0  0  0  0999 V2000
    3.5244   -4.4113   -0.2921 C   0  0  0  0  0  0  0  0  0  0  0  0
    3.6612   -5.5163    0.5210 O   0  0  0  0  0  0  0  0  0  0  0  0
    2.6057   -6.0427    1.1542 C   0  0  0  0  0  0  0  0  0  0  0  0
    1.4476   -5.8667    0.7752 O   0  0  0  0  0  0  0  0  0  0  0  0
    2.9794   -6.8199    2.3639 C   0  0  0  0  0  0  0  0  0  0  0  0
    3.9723   -6.4370    3.1978 C   0  0  0  0  0  0  0  0  0  0  0  0
    4.7708   -5.1311    3.0636 C   0  0  0  0  0  0  0  0  0  0  0  0
    4.2777   -7.1873    4.3681 N   0  0  0  0  0  0  0  0  0  0  0  0
    3.7721   -8.3343    4.5984 C   0  0  0  0  0  0  0  0  0  0  0  0
    4.1616   -9.1305    5.8481 C   0  0  0  0  0  0  0  0  0  0  0  0
    2.8344   -9.0504    3.6139 C   0  0  1  0  0  0  0  0  0  0  0  0
    1.8469  -10.0522    4.2953 C   0  0  0  0  0  0  0  0  0  0  0  0
    1.1352   -9.7149    5.2589 O   0  0  0  0  0  0  0  0  0  0  0  0
    1.7597  -11.2740    3.7563 O   0  0  0  0  0  0  0  0  0  0  0  0
    2.7148  -11.7269    2.8336 C   0  0  0  0  0  0  0  0  0  0  0  0
    2.1356   -8.0494    2.6483 C   0  0  1  0  0  0  0  0  0  0  0  0
    0.7647   -7.6444    3.1532 C   0  0  0  0  0  0  0  0  0  0  0  0
    0.6535   -6.8981    4.3543 C   0  0  0  0  0  0  0  0  0  0  0  0
   -0.6161   -6.6025    4.8531 C   0  0  0  0  0  0  0  0  0  0  0  0
   -1.7369   -7.0588    4.1159 C   0  0  0  0  0  0  0  0  0  0  0  0
   -1.6600   -7.7234    2.9642 N   0  0  0  0  0  0  0  0  0  0  0  0
   -0.4209   -8.0317    2.5040 C   0  0  0  0  0  0  0  0  0  0  0  0
    4.4979   -4.0740   -0.6358 H   0  0  0  0  0  0  0  0  0  0  0  0
    3.0635   -3.5892    0.2569 H   0  0  0  0  0  0  0  0  0  0  0  0
    2.8817   -4.5909   -1.1906 H   0  0  0  0  0  0  0  0  0  0  0  0
    4.6354   -4.6054    2.1869 H   0  0  0  0  0  0  0  0  0  0  0  0
    5.8502   -5.3445    3.2191 H   0  0  0  0  0  0  0  0  0  0  0  0
    4.4954   -4.4694    3.9185 H   0  0  0  0  0  0  0  0  0  0  0  0
    4.6259  -10.0816    5.5722 H   0  0  0  0  0  0  0  0  0  0  0  0
    3.2954   -9.3622    6.4713 H   0  0  0  0  0  0  0  0  0  0  0  0
    4.8682   -8.5834    6.4865 H   0  0  0  0  0  0  0  0  0  0  0  0
    3.5275   -9.6030    2.9830 H   0  0  0  0  0  0  0  0  0  0  0  0
    2.4450  -12.7205    2.4959 H   0  0  0  0  0  0  0  0  0  0  0  0
    3.6869  -11.7690    3.3307 H   0  0  0  0  0  0  0  0  0  0  0  0
    2.7562  -11.0505    1.9810 H   0  0  0  0  0  0  0  0  0  0  0  0
    1.9935   -8.5782    1.7061 H   0  0  0  0  0  0  0  0  0  0  0  0
    1.5307   -6.6045    4.8905 H   0  0  0  0  0  0  0  0  0  0  0  0
   -0.7237   -6.0827    5.7833 H   0  0  0  0  0  0  0  0  0  0  0  0
   -2.7224   -6.8120    4.4747 H   0  0  0  0  0  0  0  0  0  0  0  0
   -0.3932   -8.6451    1.6082 H   0  0  0  0  0  0  0  0  0  0  0  0
  1  2  1  0
  1 23  1  0
  1 24  1  0
  1 25  1  0
  2  3  1  0
  3  4  2  0
  3  5  1  0
  5 16  1  0
  5  6  2  0
  6  7  1  0
  6  8  1  0
  7 26  1  0
  7 27  1  0
  7 28  1  0
  8  9  2  0
  9 10  1  0
  9 11  1  0
 10 29  1  0
 10 30  1  0
 10 31  1  0
 11 12  1  0
 11 16  1  0
 11 32  1  6
 12 13  2  0
 12 14  1  0
 14 15  1  0
 15 33  1  0
 15 34  1  0
 15 35  1  0
 16 17  1  0
 16 36  1  6
 17 22  1  0
 17 18  2  0
 18 19  1  0
 18 37  1  0
 19 20  2  0
 19 38  1  0
 20 21  1  0
 20 39  1  0
 21 22  2  0
 22 40  1  0
M  END
>  <i_m_ct_stereo_status>  (326) 
1

>  <s_m_source_file>  (326) 
/var/tmp/pbs.5076255.sched01/tmp0pz6dnip/90w4u7_w6b.sdf

>  <i_m_source_file_index>  (326) 
44

>  <i_lp_mmshare_version>  (326) 
48012

>  <i_f3d_flags>  (326) 
0

>  <s_epik_input>  (326) 
W0NIM11PQyg9TylDMT1DKFtDSDNdKU49QyhbQ0gzXSlbQ0BASF0oQyg9TylPW0NIM10pW0NASF0xYzJbY0hdW2NIXVtjSF1uW2NIXTI=

>  <s_epik_cmdline>  (326) 
J2VwaWtfcHl0aG9uJywgJy1waHQnLCAnMi4wJywgJy1waCcsICc3LjAnLCAnLXRuJywgJzgnLCAnLW1hJywgJzIwMCcsICctaW1hZScsICc8aW5maWxlLm1hZT4nLCAnLW9tYWUnLCAnPG91dGZpbGUubWFlPic=

>  <r_lp_tautomer_probability>  (326) 
0.499993

>  <r_epik_Ionization_Penalty>  (326) 
0.00145527

>  <r_epik_Ionization_Penalty_Charging>  (326) 
0

>  <r_epik_Ionization_Penalty_Neutral>  (326) 
0.00145527

>  <r_epik_State_Penalty>  (326) 
0.412147

>  <r_epik_Charging_Adjusted_Penalty>  (326) 
0.412147

>  <i_epik_Tot_Q>  (326) 
0

>  <i_epik_Tot_abs_Q>  (326) 
0

>  <s_epik_Chemistry_Notes>  (326) 
This compound has an ester and may undergo hydrolysis at high or low pH. This compound has an imine and may undergo hydrolysis.

>  <s_lp_Force_Field>  (326) 
OPLS3e

>  <r_lp_Energy>  (326) 
34.3198

>  <b_lp_Chiralities_Consistent>  (326) 
1

>  <s_lp_Variant>  (326) 
85:0-1

>  <s_i_glide_gridfile>  (326) 
pfpi4k_grid

>  <i_i_glide_lignum>  (326) 
44

>  <i_i_glide_rotatable_bonds>  (326) 
5

>  <r_i_docking_score>  (326) 
-2.5655

>  <r_i_glide_ligand_efficiency>  (326) 
-0.116614

>  <r_i_glide_ligand_efficiency_sa>  (326) 
-0.326756

>  <r_i_glide_ligand_efficiency_ln>  (326) 
-0.627102

>  <r_i_glide_gscore>  (326) 
-2.5655

>  <r_i_glide_lipo>  (326) 
-0.00252322

>  <r_i_glide_hbond>  (326) 
-0.154855

>  <r_i_glide_metal>  (326) 
-0

>  <r_i_glide_rewards>  (326) 
-1.34778

>  <r_i_glide_evdw>  (326) 
-20.0922

>  <r_i_glide_ecoul>  (326) 
-4.1791

>  <r_i_glide_erotb>  (326) 
0.604277

>  <r_i_glide_esite>  (326) 
-0.033144

>  <r_i_glide_emodel>  (326) 
-23.8006

>  <r_i_glide_energy>  (326) 
-24.2713

>  <r_i_glide_einternal>  (326) 
7.15925

>  <r_i_glide_intrahb_reward>  (326) 
-0

>  <i_i_glide_confnum>  (326) 
2

>  <i_i_glide_posenum>  (326) 
10

>  <r_i_glide_eff_state_penalty>  (326) 
0

>  <ligand_id>  (326) 
85

>  <original_smiles>  (326) 
COC(=O)C1=C(C)N=C(C)C(C(=O)OC)C1c1cccnc1

>  <smiles>  (326) 
[H]c1nc([H])c(C2([H])C(C(=O)OC([H])([H])[H])=C(C([H])([H])[H])N=C(C([H])([H])[H])C2([H])C(=O)OC([H])([H])[H])c([H])c1[H]

$$$$
85:0:2
     RDKit          3D

 40 41  0  0  1  0  0  0  0  0999 V2000
    2.5385    8.3896    3.9689 C   0  0  0  0  0  0  0  0  0  0  0  0
    2.7161    6.9783    3.8858 O   0  0  0  0  0  0  0  0  0  0  0  0
    1.7512    6.1735    4.3202 C   0  0  0  0  0  0  0  0  0  0  0  0
    0.5761    6.5244    4.5078 O   0  0  0  0  0  0  0  0  0  0  0  0
    2.2489    4.7976    4.5732 C   0  0  0  0  0  0  0  0  0  0  0  0
    3.3898    4.5180    5.2419 C   0  0  0  0  0  0  0  0  0  0  0  0
    4.2776    5.5473    5.9432 C   0  0  0  0  0  0  0  0  0  0  0  0
    3.7988    3.1892    5.4803 N   0  0  0  0  0  0  0  0  0  0  0  0
    3.2422    2.1716    4.9443 C   0  0  0  0  0  0  0  0  0  0  0  0
    3.7805    0.7581    5.1941 C   0  0  0  0  0  0  0  0  0  0  0  0
    2.1041    2.3068    3.9235 C   0  0  1  0  0  0  0  0  0  0  0  0
    1.1262    1.0716    3.8232 C   0  0  0  0  0  0  0  0  0  0  0  0
    0.6930    0.5266    4.8428 O   0  0  0  0  0  0  0  0  0  0  0  0
    0.7264    0.6872    2.6029 O   0  0  0  0  0  0  0  0  0  0  0  0
    1.1760    1.3188    1.4262 C   0  0  0  0  0  0  0  0  0  0  0  0
    1.3537    3.6678    4.0513 C   0  0  1  0  0  0  0  0  0  0  0  0
    0.1022    3.5347    4.9056 C   0  0  0  0  0  0  0  0  0  0  0  0
    0.2264    3.3193    6.2909 C   0  0  0  0  0  0  0  0  0  0  0  0
   -0.9286    3.1182    7.0568 C   0  0  0  0  0  0  0  0  0  0  0  0
   -2.1728    3.1445    6.4063 C   0  0  0  0  0  0  0  0  0  0  0  0
   -2.3029    3.3534    5.0795 N   0  0  0  0  0  0  0  0  0  0  0  0
   -1.1898    3.5487    4.3418 C   0  0  0  0  0  0  0  0  0  0  0  0
    3.4987    8.8830    3.7681 H   0  0  0  0  0  0  0  0  0  0  0  0
    2.2084    8.6786    4.9843 H   0  0  0  0  0  0  0  0  0  0  0  0
    1.8294    8.8016    3.2530 H   0  0  0  0  0  0  0  0  0  0  0  0
    4.0689    6.6060    5.7303 H   0  0  0  0  0  0  0  0  0  0  0  0
    5.3269    5.3526    5.7258 H   0  0  0  0  0  0  0  0  0  0  0  0
    4.1882    5.4033    7.0207 H   0  0  0  0  0  0  0  0  0  0  0  0
    4.1150    0.2999    4.2594 H   0  0  0  0  0  0  0  0  0  0  0  0
    3.0189    0.0974    5.6222 H   0  0  0  0  0  0  0  0  0  0  0  0
    4.6437    0.7561    5.8660 H   0  0  0  0  0  0  0  0  0  0  0  0
    2.6790    2.3999    2.9989 H   0  0  0  0  0  0  0  0  0  0  0  0
    0.6503    0.9131    0.5641 H   0  0  0  0  0  0  0  0  0  0  0  0
    2.2537    1.1502    1.3319 H   0  0  0  0  0  0  0  0  0  0  0  0
    0.9631    2.3892    1.4781 H   0  0  0  0  0  0  0  0  0  0  0  0
    1.0371    3.9550    3.0419 H   0  0  0  0  0  0  0  0  0  0  0  0
    1.1985    3.2680    6.7426 H   0  0  0  0  0  0  0  0  0  0  0  0
   -0.8427    2.9159    8.1127 H   0  0  0  0  0  0  0  0  0  0  0  0
   -3.0852    2.9923    6.9649 H   0  0  0  0  0  0  0  0  0  0  0  0
   -1.3349    3.6646    3.2824 H   0  0  0  0  0  0  0  0  0  0  0  0
  1  2  1  0
  1 23  1  0
  1 24  1  0
  1 25  1  0
  2  3  1  0
  3  4  2  0
  3  5  1  0
  5 16  1  0
  5  6  2  0
  6  7  1  0
  6  8  1  0
  7 26  1  0
  7 27  1  0
  7 28  1  0
  8  9  2  0
  9 10  1  0
  9 11  1  0
 10 29  1  0
 10 30  1  0
 10 31  1  0
 11 12  1  0
 11 16  1  0
 11 32  1  6
 12 13  2  0
 12 14  1  0
 14 15  1  0
 15 33  1  0
 15 34  1  0
 15 35  1  0
 16 17  1  0
 16 36  1  6
 17 22  1  0
 17 18  2  0
 18 19  1  0
 18 37  1  0
 19 20  2  0
 19 38  1  0
 20 21  1  0
 20 39  1  0
 21 22  2  0
 22 40  1  0
M  END
>  <i_m_ct_stereo_status>  (327) 
1

>  <s_m_source_file>  (327) 
/var/tmp/pbs.5076255.sched01/tmp0pz6dnip/90w4u7_w6b.sdf

>  <i_m_source_file_index>  (327) 
44

>  <i_lp_mmshare_version>  (327) 
48012

>  <i_f3d_flags>  (327) 
0

>  <s_epik_input>  (327) 
W0NIM11PQyg9TylDMT1DKFtDSDNdKU49QyhbQ0gzXSlbQ0BASF0oQyg9TylPW0NIM10pW0NASF0xYzJbY0hdW2NIXVtjSF1uW2NIXTI=

>  <s_epik_cmdline>  (327) 
J2VwaWtfcHl0aG9uJywgJy1waHQnLCAnMi4wJywgJy1waCcsICc3LjAnLCAnLXRuJywgJzgnLCAnLW1hJywgJzIwMCcsICctaW1hZScsICc8aW5maWxlLm1hZT4nLCAnLW9tYWUnLCAnPG91dGZpbGUubWFlPic=

>  <r_lp_tautomer_probability>  (327) 
0.499993

>  <r_epik_Ionization_Penalty>  (327) 
0.00145527

>  <r_epik_Ionization_Penalty_Charging>  (327) 
0

>  <r_epik_Ionization_Penalty_Neutral>  (327) 
0.00145527

>  <r_epik_State_Penalty>  (327) 
0.412147

>  <r_epik_Charging_Adjusted_Penalty>  (327) 
0.412147

>  <i_epik_Tot_Q>  (327) 
0

>  <i_epik_Tot_abs_Q>  (327) 
0

>  <s_epik_Chemistry_Notes>  (327) 
This compound has an ester and may undergo hydrolysis at high or low pH. This compound has an imine and may undergo hydrolysis.

>  <s_lp_Force_Field>  (327) 
OPLS3e

>  <r_lp_Energy>  (327) 
34.3198

>  <b_lp_Chiralities_Consistent>  (327) 
1

>  <s_lp_Variant>  (327) 
85:0-1

>  <s_i_glide_gridfile>  (327) 
pfpi4k_grid

>  <i_i_glide_lignum>  (327) 
44

>  <i_i_glide_rotatable_bonds>  (327) 
5

>  <r_i_docking_score>  (327) 
-2.28203

>  <r_i_glide_ligand_efficiency>  (327) 
-0.103729

>  <r_i_glide_ligand_efficiency_sa>  (327) 
-0.290652

>  <r_i_glide_ligand_efficiency_ln>  (327) 
-0.557812

>  <r_i_glide_gscore>  (327) 
-2.28203

>  <r_i_glide_lipo>  (327) 
-0.0999463

>  <r_i_glide_hbond>  (327) 
0

>  <r_i_glide_metal>  (327) 
-0

>  <r_i_glide_rewards>  (327) 
-1.34778

>  <r_i_glide_evdw>  (327) 
-19.4456

>  <r_i_glide_ecoul>  (327) 
-2.79644

>  <r_i_glide_erotb>  (327) 
0.604277

>  <r_i_glide_esite>  (327) 
-0.0468316

>  <r_i_glide_emodel>  (327) 
-22.3157

>  <r_i_glide_energy>  (327) 
-22.2421

>  <r_i_glide_einternal>  (327) 
6.12843

>  <r_i_glide_intrahb_reward>  (327) 
-0

>  <i_i_glide_confnum>  (327) 
1

>  <i_i_glide_posenum>  (327) 
16

>  <r_i_glide_eff_state_penalty>  (327) 
0

>  <ligand_id>  (327) 
85

>  <original_smiles>  (327) 
COC(=O)C1=C(C)N=C(C)C(C(=O)OC)C1c1cccnc1

>  <smiles>  (327) 
[H]c1nc([H])c(C2([H])C(C(=O)OC([H])([H])[H])=C(C([H])([H])[H])N=C(C([H])([H])[H])C2([H])C(=O)OC([H])([H])[H])c([H])c1[H]

$$$$
85:1:0
     RDKit          3D

 40 41  0  0  1  0  0  0  0  0999 V2000
    0.5812    5.5029    8.3181 C   0  0  0  0  0  0  0  0  0  0  0  0
    0.7114    4.1836    7.8465 O   0  0  0  0  0  0  0  0  0  0  0  0
    1.5113    3.8824    6.8093 C   0  0  0  0  0  0  0  0  0  0  0  0
    2.1221    4.6686    6.1195 O   0  0  0  0  0  0  0  0  0  0  0  0
    1.4996    2.3467    6.5219 C   0  0  1  0  0  0  0  0  0  0  0  0
    1.9661    1.4560    7.6655 C   0  0  0  0  0  0  0  0  0  0  0  0
    2.8280    2.0813    8.7546 C   0  0  0  0  0  0  0  0  0  0  0  0
    1.6651    0.1995    7.7597 N   0  0  0  0  0  0  0  0  0  0  0  0
    0.7380   -0.4313    6.8828 C   0  0  0  0  0  0  0  0  0  0  0  0
    0.3861   -1.7106    7.1813 C   0  0  0  0  0  0  0  0  0  0  0  0
    0.1898    0.3232    5.6788 C   0  0  1  0  0  0  0  0  0  0  0  0
   -1.2032   -0.1230    5.1137 C   0  0  0  0  0  0  0  0  0  0  0  0
   -2.1335   -0.4691    5.8687 O   0  0  0  0  0  0  0  0  0  0  0  0
   -1.3869   -0.0065    3.7797 O   0  0  0  0  0  0  0  0  0  0  0  0
   -0.4274    0.5197    2.8795 C   0  0  0  0  0  0  0  0  0  0  0  0
    0.1487    1.8437    5.9789 C   0  0  1  0  0  0  0  0  0  0  0  0
   -1.0388    2.2302    6.8656 C   0  0  0  0  0  0  0  0  0  0  0  0
   -1.1762    1.7193    8.1946 C   0  0  0  0  0  0  0  0  0  0  0  0
   -2.2432    2.1890    8.9930 C   0  0  0  0  0  0  0  0  0  0  0  0
   -3.1394    3.1430    8.4505 C   0  0  0  0  0  0  0  0  0  0  0  0
   -2.9731    3.6410    7.2131 N   0  0  0  0  0  0  0  0  0  0  0  0
   -1.9826    3.1611    6.4257 C   0  0  0  0  0  0  0  0  0  0  0  0
   -0.0798    5.4699    9.1836 H   0  0  0  0  0  0  0  0  0  0  0  0
    0.1544    6.2039    7.5972 H   0  0  0  0  0  0  0  0  0  0  0  0
    1.5472    5.8600    8.6615 H   0  0  0  0  0  0  0  0  0  0  0  0
    3.7328    2.5550    8.3661 H   0  0  0  0  0  0  0  0  0  0  0  0
    3.1172    1.3788    9.5196 H   0  0  0  0  0  0  0  0  0  0  0  0
    2.2409    2.8504    9.2392 H   0  0  0  0  0  0  0  0  0  0  0  0
    0.7564   -2.2257    8.0451 H   0  0  0  0  0  0  0  0  0  0  0  0
    2.2000    2.2184    5.6957 H   0  0  0  0  0  0  0  0  0  0  0  0
   -0.3151   -2.2543    6.5484 H   0  0  0  0  0  0  0  0  0  0  0  0
    0.9458    0.1588    4.9121 H   0  0  0  0  0  0  0  0  0  0  0  0
   -0.8457    0.4701    1.8686 H   0  0  0  0  0  0  0  0  0  0  0  0
    0.4665   -0.1095    2.9370 H   0  0  0  0  0  0  0  0  0  0  0  0
   -0.2108    1.5570    3.1398 H   0  0  0  0  0  0  0  0  0  0  0  0
    0.0145    2.3810    5.0455 H   0  0  0  0  0  0  0  0  0  0  0  0
   -0.4906    1.0234    8.6126 H   0  0  0  0  0  0  0  0  0  0  0  0
   -2.3390    1.8563   10.0053 H   0  0  0  0  0  0  0  0  0  0  0  0
   -3.9846    3.5017    9.0366 H   0  0  0  0  0  0  0  0  0  0  0  0
   -1.9705    3.5967    5.4249 H   0  0  0  0  0  0  0  0  0  0  0  0
  1  2  1  0
  1 23  1  0
  1 24  1  0
  1 25  1  0
  2  3  1  0
  3  4  2  0
  3  5  1  0
  5 16  1  0
  5 30  1  6
  5  6  1  0
  6  7  1  0
  6  8  2  0
  7 26  1  0
  7 27  1  0
  7 28  1  0
  8  9  1  0
  9 11  1  0
  9 10  2  0
 10 29  1  0
 10 31  1  0
 11 12  1  0
 11 16  1  0
 11 32  1  6
 12 13  2  0
 12 14  1  0
 14 15  1  0
 15 33  1  0
 15 34  1  0
 15 35  1  0
 16 17  1  0
 16 36  1  6
 17 22  1  0
 17 18  2  0
 18 19  1  0
 18 37  1  0
 19 20  2  0
 19 38  1  0
 20 21  1  0
 20 39  1  0
 21 22  2  0
 22 40  1  0
M  END
>  <i_m_ct_stereo_status>  (328) 
1

>  <s_m_source_file>  (328) 
/var/tmp/pbs.5076255.sched01/tmp0pz6dnip/90w4u7_w6b.sdf

>  <i_m_source_file_index>  (328) 
45

>  <i_lp_mmshare_version>  (328) 
48012

>  <i_f3d_flags>  (328) 
0

>  <s_epik_input>  (328) 
W0NIM11PQyg9TylDMT1DKFtDSDNdKU49QyhbQ0gzXSlbQ0BASF0oQyg9TylPW0NIM10pW0NASF0xYzJbY0hdW2NIXVtjSF1uW2NIXTI=

>  <s_epik_cmdline>  (328) 
J2VwaWtfcHl0aG9uJywgJy1waHQnLCAnMi4wJywgJy1waCcsICc3LjAnLCAnLXRuJywgJzgnLCAnLW1hJywgJzIwMCcsICctaW1hZScsICc8aW5maWxlLm1hZT4nLCAnLW9tYWUnLCAnPG91dGZpbGUubWFlPic=

>  <r_lp_tautomer_probability>  (328) 
0.499993

>  <r_epik_Ionization_Penalty>  (328) 
0.00280441

>  <r_epik_Ionization_Penalty_Charging>  (328) 
0

>  <r_epik_Ionization_Penalty_Neutral>  (328) 
0.00280441

>  <r_epik_State_Penalty>  (328) 
0.412147

>  <r_epik_Charging_Adjusted_Penalty>  (328) 
0.412147

>  <i_epik_Tot_Q>  (328) 
0

>  <i_epik_Tot_abs_Q>  (328) 
0

>  <s_epik_Chemistry_Notes>  (328) 
This compound has an ester and may undergo hydrolysis at high or low pH. This compound has an imine and may undergo hydrolysis.

>  <s_lp_Force_Field>  (328) 
OPLS3e

>  <r_lp_Energy>  (328) 
27.8317

>  <b_lp_Chiralities_Consistent>  (328) 
1

>  <s_lp_Variant>  (328) 
85:0-2

>  <s_i_glide_gridfile>  (328) 
pfpi4k_grid

>  <i_i_glide_lignum>  (328) 
45

>  <i_i_glide_rotatable_bonds>  (328) 
5

>  <r_i_docking_score>  (328) 
-2.29999

>  <r_i_glide_ligand_efficiency>  (328) 
-0.104545

>  <r_i_glide_ligand_efficiency_sa>  (328) 
-0.292939

>  <r_i_glide_ligand_efficiency_ln>  (328) 
-0.562202

>  <r_i_glide_gscore>  (328) 
-2.29999

>  <r_i_glide_lipo>  (328) 
-0.137913

>  <r_i_glide_hbond>  (328) 
-0.125857

>  <r_i_glide_metal>  (328) 
-0

>  <r_i_glide_rewards>  (328) 
-1.34778

>  <r_i_glide_evdw>  (328) 
-12.3042

>  <r_i_glide_ecoul>  (328) 
-4.26557

>  <r_i_glide_erotb>  (328) 
0.604277

>  <r_i_glide_esite>  (328) 
-0.0376692

>  <r_i_glide_emodel>  (328) 
-14.8905

>  <r_i_glide_energy>  (328) 
-16.5698

>  <r_i_glide_einternal>  (328) 
5.99195

>  <r_i_glide_intrahb_reward>  (328) 
-0

>  <i_i_glide_confnum>  (328) 
4

>  <i_i_glide_posenum>  (328) 
23

>  <r_i_glide_eff_state_penalty>  (328) 
0

>  <ligand_id>  (328) 
85

>  <original_smiles>  (328) 
COC(=O)C1=C(C)N=C(C)C(C(=O)OC)C1c1cccnc1

>  <smiles>  (328) 
[H]C([H])=C1N=C(C([H])([H])[H])C([H])(C(=O)OC([H])([H])[H])C([H])(c2c([H])nc([H])c([H])c2[H])C1([H])C(=O)OC([H])([H])[H]

$$$$
85:1:1
     RDKit          3D

 40 41  0  0  1  0  0  0  0  0999 V2000
    0.9063  -11.2717    2.8927 C   0  0  0  0  0  0  0  0  0  0  0  0
    1.6334  -10.0833    2.7057 O   0  0  0  0  0  0  0  0  0  0  0  0
    2.8412   -9.9054    3.2671 C   0  0  0  0  0  0  0  0  0  0  0  0
    3.4581  -10.7073    3.9448 O   0  0  0  0  0  0  0  0  0  0  0  0
    3.4225   -8.5037    2.9329 C   0  0  1  0  0  0  0  0  0  0  0  0
    3.5866   -8.2011    1.4181 C   0  0  0  0  0  0  0  0  0  0  0  0
    3.6904   -9.4191    0.5417 C   0  0  0  0  0  0  0  0  0  0  0  0
    3.5859   -7.0207    0.9547 N   0  0  0  0  0  0  0  0  0  0  0  0
    3.3980   -5.8636    1.7057 C   0  0  0  0  0  0  0  0  0  0  0  0
    3.2967   -4.6593    1.1068 C   0  0  0  0  0  0  0  0  0  0  0  0
    3.2291   -5.9829    3.2435 C   0  0  1  0  0  0  0  0  0  0  0  0
    2.4048   -4.8402    3.9007 C   0  0  0  0  0  0  0  0  0  0  0  0
    1.3051   -4.5047    3.4822 O   0  0  0  0  0  0  0  0  0  0  0  0
    2.9552   -4.2827    4.9899 O   0  0  0  0  0  0  0  0  0  0  0  0
    4.2482   -4.6421    5.4257 C   0  0  0  0  0  0  0  0  0  0  0  0
    2.6522   -7.3595    3.6164 C   0  0  1  0  0  0  0  0  0  0  0  0
    1.1334   -7.4309    3.3477 C   0  0  0  0  0  0  0  0  0  0  0  0
    0.2045   -7.8079    4.3342 C   0  0  0  0  0  0  0  0  0  0  0  0
   -1.1571   -7.9055    4.0049 C   0  0  0  0  0  0  0  0  0  0  0  0
   -1.5227   -7.6417    2.6791 C   0  0  0  0  0  0  0  0  0  0  0  0
   -0.6580   -7.2584    1.7186 N   0  0  0  0  0  0  0  0  0  0  0  0
    0.6256   -7.1895    2.0567 C   0  0  0  0  0  0  0  0  0  0  0  0
   -0.0297  -11.1828    2.3412 H   0  0  0  0  0  0  0  0  0  0  0  0
    0.6551  -11.4303    3.9542 H   0  0  0  0  0  0  0  0  0  0  0  0
    1.4561  -12.1261    2.5251 H   0  0  0  0  0  0  0  0  0  0  0  0
    4.4599  -10.0835    0.9234 H   0  0  0  0  0  0  0  0  0  0  0  0
    3.8707   -9.1475   -0.4782 H   0  0  0  0  0  0  0  0  0  0  0  0
    2.7401   -9.9489    0.5272 H   0  0  0  0  0  0  0  0  0  0  0  0
    3.3657   -4.5401    0.0271 H   0  0  0  0  0  0  0  0  0  0  0  0
    4.4387   -8.4930    3.3385 H   0  0  0  0  0  0  0  0  0  0  0  0
    3.1439   -3.7480    1.6654 H   0  0  0  0  0  0  0  0  0  0  0  0
    4.2616   -5.9823    3.5726 H   0  0  0  0  0  0  0  0  0  0  0  0
    4.5215   -4.0768    6.3115 H   0  0  0  0  0  0  0  0  0  0  0  0
    4.9708   -4.4308    4.6313 H   0  0  0  0  0  0  0  0  0  0  0  0
    4.2777   -5.7090    5.6654 H   0  0  0  0  0  0  0  0  0  0  0  0
    2.7759   -7.4893    4.6945 H   0  0  0  0  0  0  0  0  0  0  0  0
    0.5370   -8.0244    5.3396 H   0  0  0  0  0  0  0  0  0  0  0  0
   -1.8911   -8.2062    4.7358 H   0  0  0  0  0  0  0  0  0  0  0  0
   -2.5583   -7.7077    2.3625 H   0  0  0  0  0  0  0  0  0  0  0  0
    1.2729   -6.9107    1.1937 H   0  0  0  0  0  0  0  0  0  0  0  0
  1  2  1  0
  1 23  1  0
  1 24  1  0
  1 25  1  0
  2  3  1  0
  3  4  2  0
  3  5  1  0
  5 16  1  0
  5 30  1  1
  5  6  1  0
  6  7  1  0
  6  8  2  0
  7 26  1  0
  7 27  1  0
  7 28  1  0
  8  9  1  0
  9 11  1  0
  9 10  2  0
 10 29  1  0
 10 31  1  0
 11 12  1  0
 11 16  1  0
 11 32  1  1
 12 13  2  0
 12 14  1  0
 14 15  1  0
 15 33  1  0
 15 34  1  0
 15 35  1  0
 16 17  1  0
 16 36  1  1
 17 22  1  0
 17 18  2  0
 18 19  1  0
 18 37  1  0
 19 20  2  0
 19 38  1  0
 20 21  1  0
 20 39  1  0
 21 22  2  0
 22 40  1  0
M  END
>  <i_m_ct_stereo_status>  (329) 
1

>  <s_m_source_file>  (329) 
/var/tmp/pbs.5076255.sched01/tmp0pz6dnip/90w4u7_w6b.sdf

>  <i_m_source_file_index>  (329) 
45

>  <i_lp_mmshare_version>  (329) 
48012

>  <i_f3d_flags>  (329) 
0

>  <s_epik_input>  (329) 
W0NIM11PQyg9TylDMT1DKFtDSDNdKU49QyhbQ0gzXSlbQ0BASF0oQyg9TylPW0NIM10pW0NASF0xYzJbY0hdW2NIXVtjSF1uW2NIXTI=

>  <s_epik_cmdline>  (329) 
J2VwaWtfcHl0aG9uJywgJy1waHQnLCAnMi4wJywgJy1waCcsICc3LjAnLCAnLXRuJywgJzgnLCAnLW1hJywgJzIwMCcsICctaW1hZScsICc8aW5maWxlLm1hZT4nLCAnLW9tYWUnLCAnPG91dGZpbGUubWFlPic=

>  <r_lp_tautomer_probability>  (329) 
0.499993

>  <r_epik_Ionization_Penalty>  (329) 
0.00280441

>  <r_epik_Ionization_Penalty_Charging>  (329) 
0

>  <r_epik_Ionization_Penalty_Neutral>  (329) 
0.00280441

>  <r_epik_State_Penalty>  (329) 
0.412147

>  <r_epik_Charging_Adjusted_Penalty>  (329) 
0.412147

>  <i_epik_Tot_Q>  (329) 
0

>  <i_epik_Tot_abs_Q>  (329) 
0

>  <s_epik_Chemistry_Notes>  (329) 
This compound has an ester and may undergo hydrolysis at high or low pH. This compound has an imine and may undergo hydrolysis.

>  <s_lp_Force_Field>  (329) 
OPLS3e

>  <r_lp_Energy>  (329) 
27.8317

>  <b_lp_Chiralities_Consistent>  (329) 
1

>  <s_lp_Variant>  (329) 
85:0-2

>  <s_i_glide_gridfile>  (329) 
pfpi4k_grid

>  <i_i_glide_lignum>  (329) 
45

>  <i_i_glide_rotatable_bonds>  (329) 
5

>  <r_i_docking_score>  (329) 
-1.85646

>  <r_i_glide_ligand_efficiency>  (329) 
-0.0843846

>  <r_i_glide_ligand_efficiency_sa>  (329) 
-0.236449

>  <r_i_glide_ligand_efficiency_ln>  (329) 
-0.453787

>  <r_i_glide_gscore>  (329) 
-1.85646

>  <r_i_glide_lipo>  (329) 
-0.135855

>  <r_i_glide_hbond>  (329) 
-0.0442342

>  <r_i_glide_metal>  (329) 
-0

>  <r_i_glide_rewards>  (329) 
-1.34778

>  <r_i_glide_evdw>  (329) 
-18.6894

>  <r_i_glide_ecoul>  (329) 
0.161693

>  <r_i_glide_erotb>  (329) 
0.604277

>  <r_i_glide_esite>  (329) 
-0.0226473

>  <r_i_glide_emodel>  (329) 
-15.0408

>  <r_i_glide_energy>  (329) 
-18.5278

>  <r_i_glide_einternal>  (329) 
8.527

>  <r_i_glide_intrahb_reward>  (329) 
-0

>  <i_i_glide_confnum>  (329) 
4

>  <i_i_glide_posenum>  (329) 
12

>  <r_i_glide_eff_state_penalty>  (329) 
0

>  <ligand_id>  (329) 
85

>  <original_smiles>  (329) 
COC(=O)C1=C(C)N=C(C)C(C(=O)OC)C1c1cccnc1

>  <smiles>  (329) 
[H]C([H])=C1N=C(C([H])([H])[H])C([H])(C(=O)OC([H])([H])[H])C([H])(c2c([H])nc([H])c([H])c2[H])C1([H])C(=O)OC([H])([H])[H]

$$$$
85:1:2
     RDKit          3D

 40 41  0  0  1  0  0  0  0  0999 V2000
    2.7700   -9.8478    0.7393 C   0  0  0  0  0  0  0  0  0  0  0  0
    2.7954   -8.6383    1.3323 O   0  0  0  0  0  0  0  0  0  0  0  0
    3.8767   -8.2364    2.0506 C   0  0  0  0  0  0  0  0  0  0  0  0
    4.9066   -8.8798    2.2573 O   0  0  0  0  0  0  0  0  0  0  0  0
    3.6632   -6.8143    2.6099 C   0  0  1  0  0  0  0  0  0  0  0  0
    3.4666   -5.6775    1.5649 C   0  0  0  0  0  0  0  0  0  0  0  0
    3.9956   -5.9511    0.1521 C   0  0  0  0  0  0  0  0  0  0  0  0
    2.9117   -4.5649    1.8654 N   0  0  0  0  0  0  0  0  0  0  0  0
    2.3097   -4.2805    3.1196 C   0  0  0  0  0  0  0  0  0  0  0  0
    1.5924   -3.1492    3.2335 C   0  0  0  0  0  0  0  0  0  0  0  0
    2.3894   -5.3166    4.2732 C   0  0  1  0  0  0  0  0  0  0  0  0
    1.2195   -5.2903    5.2910 C   0  0  0  0  0  0  0  0  0  0  0  0
    0.0389   -5.1830    4.9639 O   0  0  0  0  0  0  0  0  0  0  0  0
    1.6364   -5.4703    6.5386 O   0  0  0  0  0  0  0  0  0  0  0  0
    0.6560   -5.4696    7.5540 C   0  0  0  0  0  0  0  0  0  0  0  0
    2.5423   -6.7475    3.6977 C   0  0  1  0  0  0  0  0  0  0  0  0
    1.1955   -7.3512    3.2214 C   0  0  0  0  0  0  0  0  0  0  0  0
    0.7125   -8.5859    3.7177 C   0  0  0  0  0  0  0  0  0  0  0  0
   -0.4945   -9.1028    3.1837 C   0  0  0  0  0  0  0  0  0  0  0  0
   -1.1407   -8.3737    2.1704 C   0  0  0  0  0  0  0  0  0  0  0  0
   -0.6892   -7.2028    1.6914 N   0  0  0  0  0  0  0  0  0  0  0  0
    0.4404   -6.7162    2.2056 C   0  0  0  0  0  0  0  0  0  0  0  0
    1.8261   -9.9840    0.2282 H   0  0  0  0  0  0  0  0  0  0  0  0
    2.8222  -10.6160    1.4974 H   0  0  0  0  0  0  0  0  0  0  0  0
    3.6274   -9.9514    0.0935 H   0  0  0  0  0  0  0  0  0  0  0  0
    5.0692   -6.1107    0.1308 H   0  0  0  0  0  0  0  0  0  0  0  0
    3.6825   -5.1869   -0.5586 H   0  0  0  0  0  0  0  0  0  0  0  0
    3.5745   -6.8675   -0.2416 H   0  0  0  0  0  0  0  0  0  0  0  0
    1.4114   -2.4883    2.3880 H   0  0  0  0  0  0  0  0  0  0  0  0
    4.6067   -6.5632    3.1033 H   0  0  0  0  0  0  0  0  0  0  0  0
    1.0872   -2.8788    4.1494 H   0  0  0  0  0  0  0  0  0  0  0  0
    3.3083   -5.0637    4.7962 H   0  0  0  0  0  0  0  0  0  0  0  0
    1.1495   -5.6016    8.5135 H   0  0  0  0  0  0  0  0  0  0  0  0
   -0.0562   -6.2829    7.3949 H   0  0  0  0  0  0  0  0  0  0  0  0
    0.1126   -4.5206    7.5526 H   0  0  0  0  0  0  0  0  0  0  0  0
    2.9114   -7.3701    4.5196 H   0  0  0  0  0  0  0  0  0  0  0  0
    1.2617   -9.1562    4.4686 H   0  0  0  0  0  0  0  0  0  0  0  0
   -0.9126  -10.0504    3.5106 H   0  0  0  0  0  0  0  0  0  0  0  0
   -2.0726   -8.6969    1.7063 H   0  0  0  0  0  0  0  0  0  0  0  0
    0.7067   -5.7861    1.7342 H   0  0  0  0  0  0  0  0  0  0  0  0
  1  2  1  0
  1 23  1  0
  1 24  1  0
  1 25  1  0
  2  3  1  0
  3  4  2  0
  3  5  1  0
  5 16  1  0
  5 30  1  1
  5  6  1  0
  6  7  1  0
  6  8  2  0
  7 26  1  0
  7 27  1  0
  7 28  1  0
  8  9  1  0
  9 11  1  0
  9 10  2  0
 10 29  1  0
 10 31  1  0
 11 12  1  0
 11 16  1  0
 11 32  1  1
 12 13  2  0
 12 14  1  0
 14 15  1  0
 15 33  1  0
 15 34  1  0
 15 35  1  0
 16 17  1  0
 16 36  1  1
 17 22  1  0
 17 18  2  0
 18 19  1  0
 18 37  1  0
 19 20  2  0
 19 38  1  0
 20 21  1  0
 20 39  1  0
 21 22  2  0
 22 40  1  0
M  END
>  <i_m_ct_stereo_status>  (330) 
1

>  <s_m_source_file>  (330) 
/var/tmp/pbs.5076255.sched01/tmp0pz6dnip/90w4u7_w6b.sdf

>  <i_m_source_file_index>  (330) 
45

>  <i_lp_mmshare_version>  (330) 
48012

>  <i_f3d_flags>  (330) 
0

>  <s_epik_input>  (330) 
W0NIM11PQyg9TylDMT1DKFtDSDNdKU49QyhbQ0gzXSlbQ0BASF0oQyg9TylPW0NIM10pW0NASF0xYzJbY0hdW2NIXVtjSF1uW2NIXTI=

>  <s_epik_cmdline>  (330) 
J2VwaWtfcHl0aG9uJywgJy1waHQnLCAnMi4wJywgJy1waCcsICc3LjAnLCAnLXRuJywgJzgnLCAnLW1hJywgJzIwMCcsICctaW1hZScsICc8aW5maWxlLm1hZT4nLCAnLW9tYWUnLCAnPG91dGZpbGUubWFlPic=

>  <r_lp_tautomer_probability>  (330) 
0.499993

>  <r_epik_Ionization_Penalty>  (330) 
0.00280441

>  <r_epik_Ionization_Penalty_Charging>  (330) 
0

>  <r_epik_Ionization_Penalty_Neutral>  (330) 
0.00280441

>  <r_epik_State_Penalty>  (330) 
0.412147

>  <r_epik_Charging_Adjusted_Penalty>  (330) 
0.412147

>  <i_epik_Tot_Q>  (330) 
0

>  <i_epik_Tot_abs_Q>  (330) 
0

>  <s_epik_Chemistry_Notes>  (330) 
This compound has an ester and may undergo hydrolysis at high or low pH. This compound has an imine and may undergo hydrolysis.

>  <s_lp_Force_Field>  (330) 
OPLS3e

>  <r_lp_Energy>  (330) 
27.8317

>  <b_lp_Chiralities_Consistent>  (330) 
1

>  <s_lp_Variant>  (330) 
85:0-2

>  <s_i_glide_gridfile>  (330) 
pfpi4k_grid

>  <i_i_glide_lignum>  (330) 
45

>  <i_i_glide_rotatable_bonds>  (330) 
5

>  <r_i_docking_score>  (330) 
-1.81292

>  <r_i_glide_ligand_efficiency>  (330) 
-0.0824052

>  <r_i_glide_ligand_efficiency_sa>  (330) 
-0.230903

>  <r_i_glide_ligand_efficiency_ln>  (330) 
-0.443143

>  <r_i_glide_gscore>  (330) 
-1.81292

>  <r_i_glide_lipo>  (330) 
-0.0520551

>  <r_i_glide_hbond>  (330) 
-0.0652058

>  <r_i_glide_metal>  (330) 
-0

>  <r_i_glide_rewards>  (330) 
-1.37665

>  <r_i_glide_evdw>  (330) 
-13.126

>  <r_i_glide_ecoul>  (330) 
-1.726

>  <r_i_glide_erotb>  (330) 
0.604277

>  <r_i_glide_esite>  (330) 
-0.00807891

>  <r_i_glide_emodel>  (330) 
-14.1975

>  <r_i_glide_energy>  (330) 
-14.852

>  <r_i_glide_einternal>  (330) 
2.76831

>  <r_i_glide_intrahb_reward>  (330) 
-0

>  <i_i_glide_confnum>  (330) 
5

>  <i_i_glide_posenum>  (330) 
17

>  <r_i_glide_eff_state_penalty>  (330) 
0

>  <ligand_id>  (330) 
85

>  <original_smiles>  (330) 
COC(=O)C1=C(C)N=C(C)C(C(=O)OC)C1c1cccnc1

>  <smiles>  (330) 
[H]C([H])=C1N=C(C([H])([H])[H])C([H])(C(=O)OC([H])([H])[H])C([H])(c2c([H])nc([H])c([H])c2[H])C1([H])C(=O)OC([H])([H])[H]

$$$$
85:2:0
     RDKit          3D

 40 41  0  0  1  0  0  0  0  0999 V2000
    0.5334    1.0293    9.8302 C   0  0  0  0  0  0  0  0  0  0  0  0
    0.2561    1.8620    8.7233 O   0  0  0  0  0  0  0  0  0  0  0  0
   -0.3141    1.3330    7.6349 C   0  0  0  0  0  0  0  0  0  0  0  0
   -0.5783    0.1413    7.4695 O   0  0  0  0  0  0  0  0  0  0  0  0
   -0.5701    2.4007    6.5571 C   0  0  2  0  0  0  0  0  0  0  0  0
   -2.0273    2.8173    6.4585 C   0  0  0  0  0  0  0  0  0  0  0  0
   -2.7803    2.8206    7.7782 C   0  0  0  0  0  0  0  0  0  0  0  0
   -2.5866    3.2088    5.3787 N   0  0  0  0  0  0  0  0  0  0  0  0
   -1.8850    3.3034    4.1707 C   0  0  0  0  0  0  0  0  0  0  0  0
   -2.5422    3.6597    3.0504 C   0  0  0  0  0  0  0  0  0  0  0  0
   -0.3900    2.9895    4.1061 C   0  0  1  0  0  0  0  0  0  0  0  0
    0.3983    4.3289    4.1893 C   0  0  0  0  0  0  0  0  0  0  0  0
   -0.0489    5.2830    4.8450 O   0  0  0  0  0  0  0  0  0  0  0  0
    1.6007    4.3559    3.5135 O   0  0  0  0  0  0  0  0  0  0  0  0
    2.0371    3.2876    2.7012 C   0  0  0  0  0  0  0  0  0  0  0  0
    0.0173    1.9683    5.2013 C   0  0  1  0  0  0  0  0  0  0  0  0
    1.5320    1.7136    5.3201 C   0  0  0  0  0  0  0  0  0  0  0  0
    2.3608    2.6479    6.0121 C   0  0  0  0  0  0  0  0  0  0  0  0
    3.7401    2.4909    6.0071 C   0  0  0  0  0  0  0  0  0  0  0  0
    4.2785    1.3806    5.2948 C   0  0  0  0  0  0  0  0  0  0  0  0
    3.5216    0.4638    4.6998 N   0  0  0  0  0  0  0  0  0  0  0  0
    2.1586    0.6484    4.6986 C   0  0  0  0  0  0  0  0  0  0  0  0
    0.9871    1.6240   10.6216 H   0  0  0  0  0  0  0  0  0  0  0  0
    1.2221    0.2322    9.5464 H   0  0  0  0  0  0  0  0  0  0  0  0
   -0.3936    0.5935   10.2045 H   0  0  0  0  0  0  0  0  0  0  0  0
   -2.2219    3.4003    8.5153 H   0  0  0  0  0  0  0  0  0  0  0  0
   -2.8736    1.8037    8.1436 H   0  0  0  0  0  0  0  0  0  0  0  0
   -3.7858    3.2375    7.6838 H   0  0  0  0  0  0  0  0  0  0  0  0
   -3.5948    3.8907    3.0190 H   0  0  0  0  0  0  0  0  0  0  0  0
   -0.0604    3.3130    6.8657 H   0  0  0  0  0  0  0  0  0  0  0  0
   -2.0164    3.7319    2.1112 H   0  0  0  0  0  0  0  0  0  0  0  0
   -0.2682    2.5287    3.1207 H   0  0  0  0  0  0  0  0  0  0  0  0
    3.0810    3.4393    2.3886 H   0  0  0  0  0  0  0  0  0  0  0  0
    1.3991    3.1400    1.8572 H   0  0  0  0  0  0  0  0  0  0  0  0
    2.0266    2.3497    3.2162 H   0  0  0  0  0  0  0  0  0  0  0  0
   -0.4559    1.0103    4.9251 H   0  0  0  0  0  0  0  0  0  0  0  0
    1.9558    3.5349    6.4667 H   0  0  0  0  0  0  0  0  0  0  0  0
    4.3724    3.2441    6.4453 H   0  0  0  0  0  0  0  0  0  0  0  0
    5.3435    1.2816    5.2197 H   0  0  0  0  0  0  0  0  0  0  0  0
    1.6009   -0.0741    4.1166 H   0  0  0  0  0  0  0  0  0  0  0  0
  1  2  1  0
  1 23  1  0
  1 24  1  0
  1 25  1  0
  2  3  1  0
  3  4  2  0
  3  5  1  0
  5 16  1  0
  5 30  1  1
  5  6  1  0
  6  7  1  0
  6  8  2  0
  7 26  1  0
  7 27  1  0
  7 28  1  0
  8  9  1  0
  9 11  1  0
  9 10  2  0
 10 29  1  0
 10 31  1  0
 11 12  1  0
 11 16  1  0
 11 32  1  6
 12 13  2  0
 12 14  1  0
 14 15  1  0
 15 33  1  0
 15 34  1  0
 15 35  1  0
 16 17  1  0
 16 36  1  6
 17 22  1  0
 17 18  2  0
 18 19  1  0
 18 37  1  0
 19 20  2  0
 19 38  1  0
 20 21  1  0
 20 39  1  0
 21 22  2  0
 22 40  1  0
M  END
>  <i_m_ct_stereo_status>  (331) 
1

>  <s_m_source_file>  (331) 
/var/tmp/pbs.5076255.sched01/tmpg0s73j8k/135j_ekwz2c.sdf

>  <i_m_source_file_index>  (331) 
1

>  <i_lp_mmshare_version>  (331) 
48012

>  <i_f3d_flags>  (331) 
0

>  <s_epik_input>  (331) 
W0NIM11PQyg9TylDMT1DKFtDSDNdKU49QyhbQ0gzXSlbQ0BASF0oQyg9TylPW0NIM10pW0NASF0xYzJbY0hdW2NIXVtjSF1uW2NIXTI=

>  <s_epik_cmdline>  (331) 
J2VwaWtfcHl0aG9uJywgJy1waHQnLCAnMi4wJywgJy1waCcsICc3LjAnLCAnLXRuJywgJzgnLCAnLW1hJywgJzIwMCcsICctaW1hZScsICc8aW5maWxlLm1hZT4nLCAnLW9tYWUnLCAnPG91dGZpbGUubWFlPic=

>  <r_lp_tautomer_probability>  (331) 
0.499993

>  <r_epik_Ionization_Penalty>  (331) 
0.00280441

>  <r_epik_Ionization_Penalty_Charging>  (331) 
0

>  <r_epik_Ionization_Penalty_Neutral>  (331) 
0.00280441

>  <r_epik_State_Penalty>  (331) 
0.412147

>  <r_epik_Charging_Adjusted_Penalty>  (331) 
0.412147

>  <i_epik_Tot_Q>  (331) 
0

>  <i_epik_Tot_abs_Q>  (331) 
0

>  <s_epik_Chemistry_Notes>  (331) 
This compound has an ester and may undergo hydrolysis at high or low pH. This compound has an imine and may undergo hydrolysis.

>  <s_lp_Force_Field>  (331) 
OPLS3e

>  <r_lp_Energy>  (331) 
21.7211

>  <b_lp_Chiralities_Consistent>  (331) 
1

>  <s_lp_Variant>  (331) 
85:0-3

>  <s_i_glide_gridfile>  (331) 
pfpi4k_grid

>  <i_i_glide_lignum>  (331) 
1

>  <i_i_glide_rotatable_bonds>  (331) 
5

>  <r_i_docking_score>  (331) 
-2.63764

>  <r_i_glide_ligand_efficiency>  (331) 
-0.119893

>  <r_i_glide_ligand_efficiency_sa>  (331) 
-0.335945

>  <r_i_glide_ligand_efficiency_ln>  (331) 
-0.644736

>  <r_i_glide_gscore>  (331) 
-2.63764

>  <r_i_glide_lipo>  (331) 
-0.143799

>  <r_i_glide_hbond>  (331) 
-0.0524439

>  <r_i_glide_metal>  (331) 
-0

>  <r_i_glide_rewards>  (331) 
-1.46615

>  <r_i_glide_evdw>  (331) 
-18.388

>  <r_i_glide_ecoul>  (331) 
-3.87572

>  <r_i_glide_erotb>  (331) 
0.604277

>  <r_i_glide_esite>  (331) 
-0.0787681

>  <r_i_glide_emodel>  (331) 
-21.6162

>  <r_i_glide_energy>  (331) 
-22.2637

>  <r_i_glide_einternal>  (331) 
7.61502

>  <r_i_glide_intrahb_reward>  (331) 
-0

>  <i_i_glide_confnum>  (331) 
3

>  <i_i_glide_posenum>  (331) 
39

>  <r_i_glide_eff_state_penalty>  (331) 
0

>  <ligand_id>  (331) 
85

>  <original_smiles>  (331) 
COC(=O)C1=C(C)N=C(C)C(C(=O)OC)C1c1cccnc1

>  <smiles>  (331) 
[H]C([H])=C1N=C(C([H])([H])[H])C([H])(C(=O)OC([H])([H])[H])C([H])(c2c([H])nc([H])c([H])c2[H])C1([H])C(=O)OC([H])([H])[H]

$$$$
85:2:1
     RDKit          3D

 40 41  0  0  1  0  0  0  0  0999 V2000
    3.2839    4.7781    3.3983 C   0  0  0  0  0  0  0  0  0  0  0  0
    2.9993    3.4058    3.5595 O   0  0  0  0  0  0  0  0  0  0  0  0
    2.5316    2.9540    4.7307 C   0  0  0  0  0  0  0  0  0  0  0  0
    2.3433    3.6394    5.7348 O   0  0  0  0  0  0  0  0  0  0  0  0
    2.2460    1.4419    4.7222 C   0  0  2  0  0  0  0  0  0  0  0  0
    3.5186    0.5901    4.5939 C   0  0  0  0  0  0  0  0  0  0  0  0
    4.7237    1.1156    5.3522 C   0  0  0  0  0  0  0  0  0  0  0  0
    3.5789   -0.5191    3.9736 N   0  0  0  0  0  0  0  0  0  0  0  0
    2.4411   -1.1020    3.3899 C   0  0  0  0  0  0  0  0  0  0  0  0
    2.5855   -2.2590    2.7209 C   0  0  0  0  0  0  0  0  0  0  0  0
    1.0698   -0.4397    3.4920 C   0  0  1  0  0  0  0  0  0  0  0  0
    0.2651   -1.0754    4.6412 C   0  0  0  0  0  0  0  0  0  0  0  0
    0.7971   -1.5105    5.6625 O   0  0  0  0  0  0  0  0  0  0  0  0
   -1.0490   -1.0210    4.4307 O   0  0  0  0  0  0  0  0  0  0  0  0
   -1.9227   -1.3741    5.4757 C   0  0  0  0  0  0  0  0  0  0  0  0
    1.2114    1.0872    3.6273 C   0  0  1  0  0  0  0  0  0  0  0  0
   -0.1466    1.7786    3.8051 C   0  0  0  0  0  0  0  0  0  0  0  0
   -0.9113    2.1633    2.6869 C   0  0  0  0  0  0  0  0  0  0  0  0
   -2.1719    2.7586    2.8940 C   0  0  0  0  0  0  0  0  0  0  0  0
   -2.6157    2.9423    4.2127 C   0  0  0  0  0  0  0  0  0  0  0  0
   -1.8894    2.5990    5.2897 N   0  0  0  0  0  0  0  0  0  0  0  0
   -0.6856    2.0288    5.0856 C   0  0  0  0  0  0  0  0  0  0  0  0
    3.6827    4.9327    2.3983 H   0  0  0  0  0  0  0  0  0  0  0  0
    4.0280    5.1053    4.1234 H   0  0  0  0  0  0  0  0  0  0  0  0
    2.3814    5.3771    3.5144 H   0  0  0  0  0  0  0  0  0  0  0  0
    4.4599    1.3400    6.3823 H   0  0  0  0  0  0  0  0  0  0  0  0
    5.0733    2.0380    4.9077 H   0  0  0  0  0  0  0  0  0  0  0  0
    5.5487    0.4085    5.3719 H   0  0  0  0  0  0  0  0  0  0  0  0
    3.5400   -2.7560    2.6541 H   0  0  0  0  0  0  0  0  0  0  0  0
    1.8357    1.1785    5.6936 H   0  0  0  0  0  0  0  0  0  0  0  0
    1.7387   -2.7195    2.2319 H   0  0  0  0  0  0  0  0  0  0  0  0
    0.5360   -0.6482    2.5636 H   0  0  0  0  0  0  0  0  0  0  0  0
   -2.9485   -1.2191    5.1422 H   0  0  0  0  0  0  0  0  0  0  0  0
   -1.7428   -0.7423    6.3494 H   0  0  0  0  0  0  0  0  0  0  0  0
   -1.7801   -2.4208    5.7541 H   0  0  0  0  0  0  0  0  0  0  0  0
    1.6025    1.4248    2.6631 H   0  0  0  0  0  0  0  0  0  0  0  0
   -0.5555    1.9927    1.6832 H   0  0  0  0  0  0  0  0  0  0  0  0
   -2.8081    3.0411    2.0751 H   0  0  0  0  0  0  0  0  0  0  0  0
   -3.5985    3.3303    4.4277 H   0  0  0  0  0  0  0  0  0  0  0  0
   -0.1696    1.7363    5.9863 H   0  0  0  0  0  0  0  0  0  0  0  0
  1  2  1  0
  1 23  1  0
  1 24  1  0
  1 25  1  0
  2  3  1  0
  3  4  2  0
  3  5  1  0
  5 16  1  0
  5 30  1  1
  5  6  1  0
  6  7  1  0
  6  8  2  0
  7 26  1  0
  7 27  1  0
  7 28  1  0
  8  9  1  0
  9 11  1  0
  9 10  2  0
 10 29  1  0
 10 31  1  0
 11 12  1  0
 11 16  1  0
 11 32  1  6
 12 13  2  0
 12 14  1  0
 14 15  1  0
 15 33  1  0
 15 34  1  0
 15 35  1  0
 16 17  1  0
 16 36  1  6
 17 22  1  0
 17 18  2  0
 18 19  1  0
 18 37  1  0
 19 20  2  0
 19 38  1  0
 20 21  1  0
 20 39  1  0
 21 22  2  0
 22 40  1  0
M  END
>  <i_m_ct_stereo_status>  (332) 
1

>  <s_m_source_file>  (332) 
/var/tmp/pbs.5076255.sched01/tmpg0s73j8k/135j_ekwz2c.sdf

>  <i_m_source_file_index>  (332) 
1

>  <i_lp_mmshare_version>  (332) 
48012

>  <i_f3d_flags>  (332) 
0

>  <s_epik_input>  (332) 
W0NIM11PQyg9TylDMT1DKFtDSDNdKU49QyhbQ0gzXSlbQ0BASF0oQyg9TylPW0NIM10pW0NASF0xYzJbY0hdW2NIXVtjSF1uW2NIXTI=

>  <s_epik_cmdline>  (332) 
J2VwaWtfcHl0aG9uJywgJy1waHQnLCAnMi4wJywgJy1waCcsICc3LjAnLCAnLXRuJywgJzgnLCAnLW1hJywgJzIwMCcsICctaW1hZScsICc8aW5maWxlLm1hZT4nLCAnLW9tYWUnLCAnPG91dGZpbGUubWFlPic=

>  <r_lp_tautomer_probability>  (332) 
0.499993

>  <r_epik_Ionization_Penalty>  (332) 
0.00280441

>  <r_epik_Ionization_Penalty_Charging>  (332) 
0

>  <r_epik_Ionization_Penalty_Neutral>  (332) 
0.00280441

>  <r_epik_State_Penalty>  (332) 
0.412147

>  <r_epik_Charging_Adjusted_Penalty>  (332) 
0.412147

>  <i_epik_Tot_Q>  (332) 
0

>  <i_epik_Tot_abs_Q>  (332) 
0

>  <s_epik_Chemistry_Notes>  (332) 
This compound has an ester and may undergo hydrolysis at high or low pH. This compound has an imine and may undergo hydrolysis.

>  <s_lp_Force_Field>  (332) 
OPLS3e

>  <r_lp_Energy>  (332) 
21.7211

>  <b_lp_Chiralities_Consistent>  (332) 
1

>  <s_lp_Variant>  (332) 
85:0-3

>  <s_i_glide_gridfile>  (332) 
pfpi4k_grid

>  <i_i_glide_lignum>  (332) 
1

>  <i_i_glide_rotatable_bonds>  (332) 
5

>  <r_i_docking_score>  (332) 
-1.90431

>  <r_i_glide_ligand_efficiency>  (332) 
-0.0865595

>  <r_i_glide_ligand_efficiency_sa>  (332) 
-0.242543

>  <r_i_glide_ligand_efficiency_ln>  (332) 
-0.465483

>  <r_i_glide_gscore>  (332) 
-1.90431

>  <r_i_glide_lipo>  (332) 
-0.115254

>  <r_i_glide_hbond>  (332) 
0

>  <r_i_glide_metal>  (332) 
-0

>  <r_i_glide_rewards>  (332) 
-1.35147

>  <r_i_glide_evdw>  (332) 
-20.555

>  <r_i_glide_ecoul>  (332) 
0.0133782

>  <r_i_glide_erotb>  (332) 
0.604277

>  <r_i_glide_esite>  (332) 
-0.0161167

>  <r_i_glide_emodel>  (332) 
-23.3188

>  <r_i_glide_energy>  (332) 
-20.5416

>  <r_i_glide_einternal>  (332) 
0.260943

>  <r_i_glide_intrahb_reward>  (332) 
-0

>  <i_i_glide_confnum>  (332) 
4

>  <i_i_glide_posenum>  (332) 
5

>  <r_i_glide_eff_state_penalty>  (332) 
0

>  <ligand_id>  (332) 
85

>  <original_smiles>  (332) 
COC(=O)C1=C(C)N=C(C)C(C(=O)OC)C1c1cccnc1

>  <smiles>  (332) 
[H]C([H])=C1N=C(C([H])([H])[H])C([H])(C(=O)OC([H])([H])[H])C([H])(c2c([H])nc([H])c([H])c2[H])C1([H])C(=O)OC([H])([H])[H]

$$$$
85:2:2
     RDKit          3D

 40 41  0  0  1  0  0  0  0  0999 V2000
    3.3294    4.8865    3.9206 C   0  0  0  0  0  0  0  0  0  0  0  0
    2.9738    3.5255    3.8735 O   0  0  0  0  0  0  0  0  0  0  0  0
    2.5623    2.9131    4.9890 C   0  0  0  0  0  0  0  0  0  0  0  0
    2.4457    3.4483    6.0935 O   0  0  0  0  0  0  0  0  0  0  0  0
    2.2598    1.4209    4.7872 C   0  0  2  0  0  0  0  0  0  0  0  0
    3.5052    0.5929    4.4190 C   0  0  0  0  0  0  0  0  0  0  0  0
    4.7749    0.9615    5.1794 C   0  0  0  0  0  0  0  0  0  0  0  0
    3.4867   -0.3947    3.6210 N   0  0  0  0  0  0  0  0  0  0  0  0
    2.2900   -0.8889    3.0569 C   0  0  0  0  0  0  0  0  0  0  0  0
    2.3785   -1.9380    2.2334 C   0  0  0  0  0  0  0  0  0  0  0  0
    0.9247   -0.2694    3.3939 C   0  0  1  0  0  0  0  0  0  0  0  0
    0.2546   -1.1118    4.5048 C   0  0  0  0  0  0  0  0  0  0  0  0
   -0.9439   -1.4236    4.4802 O   0  0  0  0  0  0  0  0  0  0  0  0
    1.0981   -1.3786    5.5048 O   0  0  0  0  0  0  0  0  0  0  0  0
    0.6701   -2.0420    6.6642 C   0  0  0  0  0  0  0  0  0  0  0  0
    1.1145    1.2176    3.7541 C   0  0  1  0  0  0  0  0  0  0  0  0
   -0.2148    1.8845    4.1393 C   0  0  0  0  0  0  0  0  0  0  0  0
   -1.0147    2.5178    3.1530 C   0  0  0  0  0  0  0  0  0  0  0  0
   -2.2454    3.0750    3.5551 C   0  0  0  0  0  0  0  0  0  0  0  0
   -2.6162    2.9829    4.9035 C   0  0  0  0  0  0  0  0  0  0  0  0
   -1.8608    2.3979    5.8478 N   0  0  0  0  0  0  0  0  0  0  0  0
   -0.6848    1.8673    5.4602 C   0  0  0  0  0  0  0  0  0  0  0  0
    3.6580    5.1813    2.9272 H   0  0  0  0  0  0  0  0  0  0  0  0
    4.1461    5.0419    4.6253 H   0  0  0  0  0  0  0  0  0  0  0  0
    2.4741    5.4944    4.2132 H   0  0  0  0  0  0  0  0  0  0  0  0
    4.5837    1.0167    6.2505 H   0  0  0  0  0  0  0  0  0  0  0  0
    5.1293    1.9455    4.8941 H   0  0  0  0  0  0  0  0  0  0  0  0
    5.5839    0.2503    5.0165 H   0  0  0  0  0  0  0  0  0  0  0  0
    3.3190   -2.4349    2.0214 H   0  0  0  0  0  0  0  0  0  0  0  0
    1.9540    1.0337    5.7502 H   0  0  0  0  0  0  0  0  0  0  0  0
    1.4885   -2.3310    1.7583 H   0  0  0  0  0  0  0  0  0  0  0  0
    0.3158   -0.3309    2.4861 H   0  0  0  0  0  0  0  0  0  0  0  0
    1.5144   -2.1384    7.3445 H   0  0  0  0  0  0  0  0  0  0  0  0
    0.3080   -3.0370    6.4128 H   0  0  0  0  0  0  0  0  0  0  0  0
   -0.1124   -1.4795    7.1738 H   0  0  0  0  0  0  0  0  0  0  0  0
    1.4339    1.6835    2.8167 H   0  0  0  0  0  0  0  0  0  0  0  0
   -0.7075    2.5426    2.1197 H   0  0  0  0  0  0  0  0  0  0  0  0
   -2.9016    3.5372    2.8327 H   0  0  0  0  0  0  0  0  0  0  0  0
   -3.5633    3.3506    5.2676 H   0  0  0  0  0  0  0  0  0  0  0  0
   -0.1396    1.3831    6.2569 H   0  0  0  0  0  0  0  0  0  0  0  0
  1  2  1  0
  1 23  1  0
  1 24  1  0
  1 25  1  0
  2  3  1  0
  3  4  2  0
  3  5  1  0
  5 16  1  0
  5 30  1  1
  5  6  1  0
  6  7  1  0
  6  8  2  0
  7 26  1  0
  7 27  1  0
  7 28  1  0
  8  9  1  0
  9 11  1  0
  9 10  2  0
 10 29  1  0
 10 31  1  0
 11 12  1  0
 11 16  1  0
 11 32  1  6
 12 13  2  0
 12 14  1  0
 14 15  1  0
 15 33  1  0
 15 34  1  0
 15 35  1  0
 16 17  1  0
 16 36  1  6
 17 22  1  0
 17 18  2  0
 18 19  1  0
 18 37  1  0
 19 20  2  0
 19 38  1  0
 20 21  1  0
 20 39  1  0
 21 22  2  0
 22 40  1  0
M  END
>  <i_m_ct_stereo_status>  (333) 
1

>  <s_m_source_file>  (333) 
/var/tmp/pbs.5076255.sched01/tmpg0s73j8k/135j_ekwz2c.sdf

>  <i_m_source_file_index>  (333) 
1

>  <i_lp_mmshare_version>  (333) 
48012

>  <i_f3d_flags>  (333) 
0

>  <s_epik_input>  (333) 
W0NIM11PQyg9TylDMT1DKFtDSDNdKU49QyhbQ0gzXSlbQ0BASF0oQyg9TylPW0NIM10pW0NASF0xYzJbY0hdW2NIXVtjSF1uW2NIXTI=

>  <s_epik_cmdline>  (333) 
J2VwaWtfcHl0aG9uJywgJy1waHQnLCAnMi4wJywgJy1waCcsICc3LjAnLCAnLXRuJywgJzgnLCAnLW1hJywgJzIwMCcsICctaW1hZScsICc8aW5maWxlLm1hZT4nLCAnLW9tYWUnLCAnPG91dGZpbGUubWFlPic=

>  <r_lp_tautomer_probability>  (333) 
0.499993

>  <r_epik_Ionization_Penalty>  (333) 
0.00280441

>  <r_epik_Ionization_Penalty_Charging>  (333) 
0

>  <r_epik_Ionization_Penalty_Neutral>  (333) 
0.00280441

>  <r_epik_State_Penalty>  (333) 
0.412147

>  <r_epik_Charging_Adjusted_Penalty>  (333) 
0.412147

>  <i_epik_Tot_Q>  (333) 
0

>  <i_epik_Tot_abs_Q>  (333) 
0

>  <s_epik_Chemistry_Notes>  (333) 
This compound has an ester and may undergo hydrolysis at high or low pH. This compound has an imine and may undergo hydrolysis.

>  <s_lp_Force_Field>  (333) 
OPLS3e

>  <r_lp_Energy>  (333) 
21.7211

>  <b_lp_Chiralities_Consistent>  (333) 
1

>  <s_lp_Variant>  (333) 
85:0-3

>  <s_i_glide_gridfile>  (333) 
pfpi4k_grid

>  <i_i_glide_lignum>  (333) 
1

>  <i_i_glide_rotatable_bonds>  (333) 
5

>  <r_i_docking_score>  (333) 
-1.87719

>  <r_i_glide_ligand_efficiency>  (333) 
-0.0853269

>  <r_i_glide_ligand_efficiency_sa>  (333) 
-0.239089

>  <r_i_glide_ligand_efficiency_ln>  (333) 
-0.458854

>  <r_i_glide_gscore>  (333) 
-1.87719

>  <r_i_glide_lipo>  (333) 
-0.0587435

>  <r_i_glide_hbond>  (333) 
0

>  <r_i_glide_metal>  (333) 
-0

>  <r_i_glide_rewards>  (333) 
-1.35216

>  <r_i_glide_evdw>  (333) 
-19.27

>  <r_i_glide_ecoul>  (333) 
-0.622892

>  <r_i_glide_erotb>  (333) 
0.604277

>  <r_i_glide_esite>  (333) 
-0.0136353

>  <r_i_glide_emodel>  (333) 
-22.1871

>  <r_i_glide_energy>  (333) 
-19.8929

>  <r_i_glide_einternal>  (333) 
0.836304

>  <r_i_glide_intrahb_reward>  (333) 
-0

>  <i_i_glide_confnum>  (333) 
4

>  <i_i_glide_posenum>  (333) 
13

>  <r_i_glide_eff_state_penalty>  (333) 
0

>  <ligand_id>  (333) 
85

>  <original_smiles>  (333) 
COC(=O)C1=C(C)N=C(C)C(C(=O)OC)C1c1cccnc1

>  <smiles>  (333) 
[H]C([H])=C1N=C(C([H])([H])[H])C([H])(C(=O)OC([H])([H])[H])C([H])(c2c([H])nc([H])c([H])c2[H])C1([H])C(=O)OC([H])([H])[H]

$$$$
86:0:0
     RDKit          3D

 22 24  0  0  1  0  0  0  0  0999 V2000
    1.3810   -7.7148    1.8044 O   0  0  0  0  0  0  0  0  0  0  0  0
    2.0371   -6.8146    1.2861 C   0  0  0  0  0  0  0  0  0  0  0  0
    3.5620   -6.8040    1.3048 C   0  0  0  0  0  0  0  0  0  0  0  0
    3.8428   -5.6543    0.4912 N   0  0  0  0  0  0  0  0  0  0  0  0
    2.6245   -5.0595    0.2465 C   0  0  0  0  0  0  0  0  0  0  0  0
    1.5682   -5.6939    0.6271 N   0  0  0  0  0  0  0  0  0  0  0  0
    2.6770   -3.8315   -0.3887 N   0  0  0  0  0  0  0  0  0  0  0  0
    3.8373   -3.1642   -0.7862 C   0  0  0  0  0  0  0  0  0  0  0  0
    3.7889   -1.9767   -1.5366 C   0  0  0  0  0  0  0  0  0  0  0  0
    5.0094   -1.3629   -1.8714 C   0  0  0  0  0  0  0  0  0  0  0  0
    6.2150   -1.8582   -1.5181 N   0  0  0  0  0  0  0  0  0  0  0  0
    6.2513   -3.0042   -0.8026 C   0  0  0  0  0  0  0  0  0  0  0  0
    5.0881   -3.6982   -0.4105 C   0  0  0  0  0  0  0  0  0  0  0  0
    5.1373   -4.9795    0.4164 C   0  0  0  0  0  0  0  0  0  0  0  0
    1.8379   -3.3245   -0.6166 H   0  0  0  0  0  0  0  0  0  0  0  0
    3.9742   -7.7167    0.8717 H   0  0  0  0  0  0  0  0  0  0  0  0
    3.9417   -6.6715    2.3201 H   0  0  0  0  0  0  0  0  0  0  0  0
    2.8490   -1.5309   -1.8391 H   0  0  0  0  0  0  0  0  0  0  0  0
    5.0181   -0.4441   -2.4372 H   0  0  0  0  0  0  0  0  0  0  0  0
    7.2264   -3.3731   -0.5315 H   0  0  0  0  0  0  0  0  0  0  0  0
    5.8745   -5.6575   -0.0169 H   0  0  0  0  0  0  0  0  0  0  0  0
    5.4718   -4.7331    1.4257 H   0  0  0  0  0  0  0  0  0  0  0  0
  1  2  2  0
  2  6  1  0
  2  3  1  0
  3 16  1  0
  3 17  1  0
  3  4  1  0
  4 14  1  0
  4  5  1  0
  5  7  1  0
  5  6  2  0
  7  8  1  0
  7 15  1  0
  8 13  2  0
  8  9  1  0
  9 10  2  0
  9 18  1  0
 10 11  1  0
 10 19  1  0
 11 12  2  0
 12 13  1  0
 12 20  1  0
 13 14  1  0
 14 21  1  0
 14 22  1  0
M  END
>  <i_m_ct_stereo_status>  (334) 
1

>  <s_m_source_file>  (334) 
/var/tmp/pbs.5076255.sched01/tmpg0s73j8k/135j_ekwz2c.sdf

>  <i_m_source_file_index>  (334) 
2

>  <i_lp_mmshare_version>  (334) 
48012

>  <i_f3d_flags>  (334) 
0

>  <s_epik_input>  (334) 
W09IXWMoW2NIXTEpbmMobjEyKVtOSF1jM2MoW0NIMl0yKVtjSF1uW2NIXVtjSF0z

>  <s_epik_cmdline>  (334) 
J2VwaWtfcHl0aG9uJywgJy1waHQnLCAnMi4wJywgJy1waCcsICc3LjAnLCAnLXRuJywgJzgnLCAnLW1hJywgJzIwMCcsICctaW1hZScsICc8aW5maWxlLm1hZT4nLCAnLW9tYWUnLCAnPG91dGZpbGUubWFlPic=

>  <r_lp_tautomer_probability>  (334) 
0.999931

>  <r_epik_Ionization_Penalty>  (334) 
0.0116712

>  <r_epik_Ionization_Penalty_Charging>  (334) 
0

>  <r_epik_Ionization_Penalty_Neutral>  (334) 
0.0116712

>  <r_epik_State_Penalty>  (334) 
0.00808755

>  <r_epik_Charging_Adjusted_Penalty>  (334) 
0.00808755

>  <i_epik_Tot_Q>  (334) 
0

>  <i_epik_Tot_abs_Q>  (334) 
0

>  <s_epik_Chemistry_Notes>  (334) 
This compound has an imine and may undergo hydrolysis.

>  <s_lp_Force_Field>  (334) 
OPLS3e

>  <r_lp_Energy>  (334) 
17.9811

>  <b_lp_Chiralities_Consistent>  (334) 
1

>  <s_lp_Variant>  (334) 
86:0-1

>  <s_i_glide_gridfile>  (334) 
pfpi4k_grid

>  <i_i_glide_lignum>  (334) 
2

>  <i_i_glide_rotatable_bonds>  (334) 
0

>  <r_i_docking_score>  (334) 
-4.61512

>  <r_i_glide_ligand_efficiency>  (334) 
-0.329651

>  <r_i_glide_ligand_efficiency_sa>  (334) 
-0.794507

>  <r_i_glide_ligand_efficiency_ln>  (334) 
-1.26822

>  <r_i_glide_gscore>  (334) 
-4.61512

>  <r_i_glide_lipo>  (334) 
-0.252336

>  <r_i_glide_hbond>  (334) 
-0.280228

>  <r_i_glide_metal>  (334) 
-0

>  <r_i_glide_rewards>  (334) 
-2.17098

>  <r_i_glide_evdw>  (334) 
-16.6358

>  <r_i_glide_ecoul>  (334) 
-6.78846

>  <r_i_glide_erotb>  (334) 
0

>  <r_i_glide_esite>  (334) 
-0.0615168

>  <r_i_glide_emodel>  (334) 
-31.2637

>  <r_i_glide_energy>  (334) 
-23.4242

>  <r_i_glide_einternal>  (334) 
0

>  <r_i_glide_intrahb_reward>  (334) 
-0

>  <i_i_glide_confnum>  (334) 
1

>  <i_i_glide_posenum>  (334) 
9

>  <r_i_glide_eff_state_penalty>  (334) 
0

>  <ligand_id>  (334) 
86

>  <original_smiles>  (334) 
Oc1cn2c(n1)Nc1ccncc1C2

>  <smiles>  (334) 
[H]c1nc([H])c2c(c1[H])N([H])C1=NC(=O)C([H])([H])N1C2([H])[H]

$$$$
86:0:1
     RDKit          3D

 22 24  0  0  1  0  0  0  0  0999 V2000
    2.2653   -6.5994    2.6421 O   0  0  0  0  0  0  0  0  0  0  0  0
    2.5553   -5.7414    1.8108 C   0  0  0  0  0  0  0  0  0  0  0  0
    3.7302   -4.7898    2.0079 C   0  0  0  0  0  0  0  0  0  0  0  0
    3.7451   -4.0949    0.7532 N   0  0  0  0  0  0  0  0  0  0  0  0
    2.6105   -4.5069    0.0888 C   0  0  0  0  0  0  0  0  0  0  0  0
    1.9052   -5.4524    0.6246 N   0  0  0  0  0  0  0  0  0  0  0  0
    2.3340   -3.8385   -1.0905 N   0  0  0  0  0  0  0  0  0  0  0  0
    3.0785   -2.7905   -1.6317 C   0  0  0  0  0  0  0  0  0  0  0  0
    2.7969   -2.2584   -2.9026 C   0  0  0  0  0  0  0  0  0  0  0  0
    3.5899   -1.1842   -3.3496 C   0  0  0  0  0  0  0  0  0  0  0  0
    4.6146   -0.6614   -2.6412 N   0  0  0  0  0  0  0  0  0  0  0  0
    4.8732   -1.1857   -1.4229 C   0  0  0  0  0  0  0  0  0  0  0  0
    4.1420   -2.2575   -0.8756 C   0  0  0  0  0  0  0  0  0  0  0  0
    4.4490   -2.8401    0.5001 C   0  0  0  0  0  0  0  0  0  0  0  0
    1.5583   -4.1286   -1.6622 H   0  0  0  0  0  0  0  0  0  0  0  0
    4.6616   -5.3254    2.1801 H   0  0  0  0  0  0  0  0  0  0  0  0
    3.5370   -4.1033    2.8309 H   0  0  0  0  0  0  0  0  0  0  0  0
    1.9854   -2.6374   -3.5112 H   0  0  0  0  0  0  0  0  0  0  0  0
    3.3983   -0.7253   -4.3076 H   0  0  0  0  0  0  0  0  0  0  0  0
    5.6953   -0.7450   -0.8808 H   0  0  0  0  0  0  0  0  0  0  0  0
    5.5238   -3.0059    0.5839 H   0  0  0  0  0  0  0  0  0  0  0  0
    4.1685   -2.1065    1.2545 H   0  0  0  0  0  0  0  0  0  0  0  0
  1  2  2  0
  2  6  1  0
  2  3  1  0
  3 16  1  0
  3 17  1  0
  3  4  1  0
  4 14  1  0
  4  5  1  0
  5  7  1  0
  5  6  2  0
  7  8  1  0
  7 15  1  0
  8 13  2  0
  8  9  1  0
  9 10  2  0
  9 18  1  0
 10 11  1  0
 10 19  1  0
 11 12  2  0
 12 13  1  0
 12 20  1  0
 13 14  1  0
 14 21  1  0
 14 22  1  0
M  END
>  <i_m_ct_stereo_status>  (335) 
1

>  <s_m_source_file>  (335) 
/var/tmp/pbs.5076255.sched01/tmpg0s73j8k/135j_ekwz2c.sdf

>  <i_m_source_file_index>  (335) 
2

>  <i_lp_mmshare_version>  (335) 
48012

>  <i_f3d_flags>  (335) 
0

>  <s_epik_input>  (335) 
W09IXWMoW2NIXTEpbmMobjEyKVtOSF1jM2MoW0NIMl0yKVtjSF1uW2NIXVtjSF0z

>  <s_epik_cmdline>  (335) 
J2VwaWtfcHl0aG9uJywgJy1waHQnLCAnMi4wJywgJy1waCcsICc3LjAnLCAnLXRuJywgJzgnLCAnLW1hJywgJzIwMCcsICctaW1hZScsICc8aW5maWxlLm1hZT4nLCAnLW9tYWUnLCAnPG91dGZpbGUubWFlPic=

>  <r_lp_tautomer_probability>  (335) 
0.999931

>  <r_epik_Ionization_Penalty>  (335) 
0.0116712

>  <r_epik_Ionization_Penalty_Charging>  (335) 
0

>  <r_epik_Ionization_Penalty_Neutral>  (335) 
0.0116712

>  <r_epik_State_Penalty>  (335) 
0.00808755

>  <r_epik_Charging_Adjusted_Penalty>  (335) 
0.00808755

>  <i_epik_Tot_Q>  (335) 
0

>  <i_epik_Tot_abs_Q>  (335) 
0

>  <s_epik_Chemistry_Notes>  (335) 
This compound has an imine and may undergo hydrolysis.

>  <s_lp_Force_Field>  (335) 
OPLS3e

>  <r_lp_Energy>  (335) 
17.9811

>  <b_lp_Chiralities_Consistent>  (335) 
1

>  <s_lp_Variant>  (335) 
86:0-1

>  <s_i_glide_gridfile>  (335) 
pfpi4k_grid

>  <i_i_glide_lignum>  (335) 
2

>  <i_i_glide_rotatable_bonds>  (335) 
0

>  <r_i_docking_score>  (335) 
-3.97391

>  <r_i_glide_ligand_efficiency>  (335) 
-0.283851

>  <r_i_glide_ligand_efficiency_sa>  (335) 
-0.684121

>  <r_i_glide_ligand_efficiency_ln>  (335) 
-1.09202

>  <r_i_glide_gscore>  (335) 
-3.97391

>  <r_i_glide_lipo>  (335) 
-0.145929

>  <r_i_glide_hbond>  (335) 
-0.0791474

>  <r_i_glide_metal>  (335) 
-0

>  <r_i_glide_rewards>  (335) 
-2.13251

>  <r_i_glide_evdw>  (335) 
-18.0523

>  <r_i_glide_ecoul>  (335) 
-4.46843

>  <r_i_glide_erotb>  (335) 
0

>  <r_i_glide_esite>  (335) 
-0.0434428

>  <r_i_glide_emodel>  (335) 
-29.2732

>  <r_i_glide_energy>  (335) 
-22.5207

>  <r_i_glide_einternal>  (335) 
0

>  <r_i_glide_intrahb_reward>  (335) 
-0

>  <i_i_glide_confnum>  (335) 
1

>  <i_i_glide_posenum>  (335) 
29

>  <r_i_glide_eff_state_penalty>  (335) 
0

>  <ligand_id>  (335) 
86

>  <original_smiles>  (335) 
Oc1cn2c(n1)Nc1ccncc1C2

>  <smiles>  (335) 
[H]c1nc([H])c2c(c1[H])N([H])C1=NC(=O)C([H])([H])N1C2([H])[H]

$$$$
86:0:2
     RDKit          3D

 22 24  0  0  1  0  0  0  0  0999 V2000
    2.3998   -5.0120    2.5791 O   0  0  0  0  0  0  0  0  0  0  0  0
    2.6365   -4.3612    1.5652 C   0  0  0  0  0  0  0  0  0  0  0  0
    3.4052   -3.0467    1.6102 C   0  0  0  0  0  0  0  0  0  0  0  0
    3.5013   -2.7365    0.2140 N   0  0  0  0  0  0  0  0  0  0  0  0
    2.7159   -3.6665   -0.4303 C   0  0  0  0  0  0  0  0  0  0  0  0
    2.2389   -4.6400    0.2707 N   0  0  0  0  0  0  0  0  0  0  0  0
    2.5109   -3.4451   -1.7778 N   0  0  0  0  0  0  0  0  0  0  0  0
    3.0257   -2.3813   -2.5219 C   0  0  0  0  0  0  0  0  0  0  0  0
    2.8734   -2.2925   -3.9175 C   0  0  0  0  0  0  0  0  0  0  0  0
    3.4168   -1.1653   -4.5649 C   0  0  0  0  0  0  0  0  0  0  0  0
    4.0692   -0.1881   -3.9403 N   0  0  0  0  0  0  0  0  0  0  0  0
    4.2130   -0.2913   -2.6145 C   0  0  0  0  0  0  0  0  0  0  0  0
    3.7278   -1.3656   -1.8475 C   0  0  0  0  0  0  0  0  0  0  0  0
    3.8631   -1.4258   -0.3268 C   0  0  0  0  0  0  0  0  0  0  0  0
    1.9550   -4.0977   -2.3094 H   0  0  0  0  0  0  0  0  0  0  0  0
    4.3883   -3.1770    2.0584 H   0  0  0  0  0  0  0  0  0  0  0  0
    2.8504   -2.2788    2.1519 H   0  0  0  0  0  0  0  0  0  0  0  0
    2.3461   -3.0487   -4.4764 H   0  0  0  0  0  0  0  0  0  0  0  0
    3.3774   -1.0284   -5.6283 H   0  0  0  0  0  0  0  0  0  0  0  0
    4.6863    0.5465   -2.1698 H   0  0  0  0  0  0  0  0  0  0  0  0
    4.8917   -1.1896   -0.0519 H   0  0  0  0  0  0  0  0  0  0  0  0
    3.2251   -0.6593    0.1190 H   0  0  0  0  0  0  0  0  0  0  0  0
  1  2  2  0
  2  6  1  0
  2  3  1  0
  3 16  1  0
  3 17  1  0
  3  4  1  0
  4 14  1  0
  4  5  1  0
  5  7  1  0
  5  6  2  0
  7  8  1  0
  7 15  1  0
  8 13  2  0
  8  9  1  0
  9 10  2  0
  9 18  1  0
 10 11  1  0
 10 19  1  0
 11 12  2  0
 12 13  1  0
 12 20  1  0
 13 14  1  0
 14 21  1  0
 14 22  1  0
M  END
>  <i_m_ct_stereo_status>  (336) 
1

>  <s_m_source_file>  (336) 
/var/tmp/pbs.5076255.sched01/tmpg0s73j8k/135j_ekwz2c.sdf

>  <i_m_source_file_index>  (336) 
2

>  <i_lp_mmshare_version>  (336) 
48012

>  <i_f3d_flags>  (336) 
0

>  <s_epik_input>  (336) 
W09IXWMoW2NIXTEpbmMobjEyKVtOSF1jM2MoW0NIMl0yKVtjSF1uW2NIXVtjSF0z

>  <s_epik_cmdline>  (336) 
J2VwaWtfcHl0aG9uJywgJy1waHQnLCAnMi4wJywgJy1waCcsICc3LjAnLCAnLXRuJywgJzgnLCAnLW1hJywgJzIwMCcsICctaW1hZScsICc8aW5maWxlLm1hZT4nLCAnLW9tYWUnLCAnPG91dGZpbGUubWFlPic=

>  <r_lp_tautomer_probability>  (336) 
0.999931

>  <r_epik_Ionization_Penalty>  (336) 
0.0116712

>  <r_epik_Ionization_Penalty_Charging>  (336) 
0

>  <r_epik_Ionization_Penalty_Neutral>  (336) 
0.0116712

>  <r_epik_State_Penalty>  (336) 
0.00808755

>  <r_epik_Charging_Adjusted_Penalty>  (336) 
0.00808755

>  <i_epik_Tot_Q>  (336) 
0

>  <i_epik_Tot_abs_Q>  (336) 
0

>  <s_epik_Chemistry_Notes>  (336) 
This compound has an imine and may undergo hydrolysis.

>  <s_lp_Force_Field>  (336) 
OPLS3e

>  <r_lp_Energy>  (336) 
17.9811

>  <b_lp_Chiralities_Consistent>  (336) 
1

>  <s_lp_Variant>  (336) 
86:0-1

>  <s_i_glide_gridfile>  (336) 
pfpi4k_grid

>  <i_i_glide_lignum>  (336) 
2

>  <i_i_glide_rotatable_bonds>  (336) 
0

>  <r_i_docking_score>  (336) 
-3.83612

>  <r_i_glide_ligand_efficiency>  (336) 
-0.274008

>  <r_i_glide_ligand_efficiency_sa>  (336) 
-0.660399

>  <r_i_glide_ligand_efficiency_ln>  (336) 
-1.05415

>  <r_i_glide_gscore>  (336) 
-3.83612

>  <r_i_glide_lipo>  (336) 
-0.304536

>  <r_i_glide_hbond>  (336) 
-0.0523277

>  <r_i_glide_metal>  (336) 
-0

>  <r_i_glide_rewards>  (336) 
-2.126

>  <r_i_glide_evdw>  (336) 
-13.3593

>  <r_i_glide_ecoul>  (336) 
-4.31336

>  <r_i_glide_erotb>  (336) 
0

>  <r_i_glide_esite>  (336) 
-0.0382815

>  <r_i_glide_emodel>  (336) 
-24.1587

>  <r_i_glide_energy>  (336) 
-17.6726

>  <r_i_glide_einternal>  (336) 
0

>  <r_i_glide_intrahb_reward>  (336) 
-0

>  <i_i_glide_confnum>  (336) 
1

>  <i_i_glide_posenum>  (336) 
2

>  <r_i_glide_eff_state_penalty>  (336) 
0

>  <ligand_id>  (336) 
86

>  <original_smiles>  (336) 
Oc1cn2c(n1)Nc1ccncc1C2

>  <smiles>  (336) 
[H]c1nc([H])c2c(c1[H])N([H])C1=NC(=O)C([H])([H])N1C2([H])[H]

$$$$
86:1:0
     RDKit          3D

 23 25  0  0  1  0  0  0  0  0999 V2000
  -10.8337   -6.6124  -11.0796 O   0  0  0  0  0  0  0  0  0  0  0  0
  -10.1774   -6.4680  -10.0507 C   0  0  0  0  0  0  0  0  0  0  0  0
   -9.0821   -7.4467   -9.6382 C   0  0  0  0  0  0  0  0  0  0  0  0
   -8.5226   -6.7707   -8.4988 N   0  0  0  0  0  0  0  0  0  0  0  0
   -9.3542   -5.7008   -8.2555 C   0  0  0  0  0  0  0  0  0  0  0  0
  -10.2836   -5.4614   -9.1079 N   0  0  0  0  0  0  0  0  0  0  0  0
   -9.0999   -4.9947   -7.0975 N   0  0  0  0  0  0  0  0  0  0  0  0
   -8.1174   -5.2994   -6.1540 C   0  0  0  0  0  0  0  0  0  0  0  0
   -7.8611   -4.4599   -5.0531 C   0  0  0  0  0  0  0  0  0  0  0  0
   -6.8516   -4.8291   -4.1390 C   0  0  0  0  0  0  0  0  0  0  0  0
   -6.1567   -5.9737   -4.3234 N   0  0  0  0  0  0  0  0  0  0  0  0
   -6.3708   -6.8063   -5.3678 C   0  0  0  0  0  0  0  0  0  0  0  0
   -7.3647   -6.4883   -6.3166 C   0  0  0  0  0  0  0  0  0  0  0  0
   -7.6574   -7.4003   -7.5070 C   0  0  0  0  0  0  0  0  0  0  0  0
   -9.6930   -4.2140   -6.8636 H   0  0  0  0  0  0  0  0  0  0  0  0
   -8.3478   -7.5849  -10.4314 H   0  0  0  0  0  0  0  0  0  0  0  0
   -9.5135   -8.4099   -9.3613 H   0  0  0  0  0  0  0  0  0  0  0  0
   -8.4284   -3.5526   -4.9024 H   0  0  0  0  0  0  0  0  0  0  0  0
   -6.5942   -4.2557   -3.2610 H   0  0  0  0  0  0  0  0  0  0  0  0
   -5.7517   -7.6925   -5.4138 H   0  0  0  0  0  0  0  0  0  0  0  0
   -6.7175   -7.6791   -7.9849 H   0  0  0  0  0  0  0  0  0  0  0  0
   -8.1267   -8.3168   -7.1464 H   0  0  0  0  0  0  0  0  0  0  0  0
   -5.4418   -6.2239   -3.6393 H   0  0  0  0  0  0  0  0  0  0  0  0
  1  2  2  0
  2  6  1  0
  2  3  1  0
  3 16  1  0
  3 17  1  0
  3  4  1  0
  4 14  1  0
  4  5  1  0
  5  7  1  0
  5  6  2  0
  7  8  1  0
  7 15  1  0
  8 13  2  0
  8  9  1  0
  9 10  2  0
  9 18  1  0
 10 11  1  0
 10 19  1  0
 11 12  2  0
 11 23  1  0
 12 13  1  0
 12 20  1  0
 13 14  1  0
 14 21  1  0
 14 22  1  0
M  CHG  1  11   1
M  END
>  <i_m_ct_stereo_status>  (337) 
1

>  <s_m_source_file>  (337) 
/var/tmp/pbs.5076255.sched01/tmpg0s73j8k/135j_ekwz2c.sdf

>  <i_m_source_file_index>  (337) 
3

>  <i_lp_mmshare_version>  (337) 
48012

>  <i_f3d_flags>  (337) 
0

>  <s_epik_input>  (337) 
W09IXWMoW2NIXTEpbmMobjEyKVtOSF1jM2MoW0NIMl0yKVtjSF1uW2NIXVtjSF0z

>  <s_epik_cmdline>  (337) 
J2VwaWtfcHl0aG9uJywgJy1waHQnLCAnMi4wJywgJy1waCcsICc3LjAnLCAnLXRuJywgJzgnLCAnLW1hJywgJzIwMCcsICctaW1hZScsICc8aW5maWxlLm1hZT4nLCAnLW9tYWUnLCAnPG91dGZpbGUubWFlPic=

>  <r_lp_tautomer_probability>  (337) 
0.999931

>  <r_epik_Ionization_Penalty>  (337) 
2.39332

>  <r_epik_Ionization_Penalty_Charging>  (337) 
2.39241

>  <r_epik_Ionization_Penalty_Neutral>  (337) 
0.000916809

>  <r_epik_State_Penalty>  (337) 
2.54973

>  <r_epik_Charging_Adjusted_Penalty>  (337) 
4.94214

>  <i_epik_Tot_Q>  (337) 
1

>  <i_epik_Tot_abs_Q>  (337) 
1

>  <s_epik_Chemistry_Notes>  (337) 
This compound has an imine and may undergo hydrolysis.

>  <s_lp_Force_Field>  (337) 
OPLS3e

>  <r_lp_Energy>  (337) 
25.4034

>  <b_lp_Chiralities_Consistent>  (337) 
1

>  <s_lp_Variant>  (337) 
86:0-2

>  <s_i_glide_gridfile>  (337) 
pfpi4k_grid

>  <i_i_glide_lignum>  (337) 
3

>  <i_i_glide_rotatable_bonds>  (337) 
0

>  <r_i_docking_score>  (337) 
-5.49471

>  <r_i_glide_ligand_efficiency>  (337) 
-0.392479

>  <r_i_glide_ligand_efficiency_sa>  (337) 
-0.945931

>  <r_i_glide_ligand_efficiency_ln>  (337) 
-1.50993

>  <r_i_glide_gscore>  (337) 
-5.49471

>  <r_i_glide_lipo>  (337) 
-1.80947

>  <r_i_glide_hbond>  (337) 
-0.00299541

>  <r_i_glide_metal>  (337) 
-0

>  <r_i_glide_rewards>  (337) 
-2.29206

>  <r_i_glide_evdw>  (337) 
-22.028

>  <r_i_glide_ecoul>  (337) 
-1.88848

>  <r_i_glide_erotb>  (337) 
0

>  <r_i_glide_esite>  (337) 
-0.0055123

>  <r_i_glide_emodel>  (337) 
-35.052

>  <r_i_glide_energy>  (337) 
-23.9165

>  <r_i_glide_einternal>  (337) 
0

>  <r_i_glide_intrahb_reward>  (337) 
-0

>  <i_i_glide_confnum>  (337) 
2

>  <i_i_glide_posenum>  (337) 
11

>  <r_i_glide_eff_state_penalty>  (337) 
0

>  <ligand_id>  (337) 
86

>  <original_smiles>  (337) 
Oc1cn2c(n1)Nc1ccncc1C2

>  <smiles>  (337) 
[H]c1c2c(c([H])[n+]([H])c1[H])C([H])([H])N1C(=NC(=O)C1([H])[H])N2[H]

$$$$
86:1:1
     RDKit          3D

 23 25  0  0  1  0  0  0  0  0999 V2000
    1.2535   -7.1811    3.0485 O   0  0  0  0  0  0  0  0  0  0  0  0
    1.7460   -6.2455    2.4211 C   0  0  0  0  0  0  0  0  0  0  0  0
    2.1047   -4.9255    3.0913 C   0  0  0  0  0  0  0  0  0  0  0  0
    2.7733   -4.2388    2.0203 N   0  0  0  0  0  0  0  0  0  0  0  0
    2.6033   -5.0286    0.9069 C   0  0  0  0  0  0  0  0  0  0  0  0
    2.0355   -6.1733    1.0703 N   0  0  0  0  0  0  0  0  0  0  0  0
    3.0349   -4.4819   -0.2857 N   0  0  0  0  0  0  0  0  0  0  0  0
    3.5676   -3.1997   -0.4503 C   0  0  0  0  0  0  0  0  0  0  0  0
    4.0840   -2.7667   -1.6878 C   0  0  0  0  0  0  0  0  0  0  0  0
    4.6090   -1.4626   -1.7767 C   0  0  0  0  0  0  0  0  0  0  0  0
    4.6201   -0.6555   -0.6903 N   0  0  0  0  0  0  0  0  0  0  0  0
    4.1334   -1.0325    0.5121 C   0  0  0  0  0  0  0  0  0  0  0  0
    3.5930   -2.3231    0.6633 C   0  0  0  0  0  0  0  0  0  0  0  0
    3.0191   -2.8010    1.9976 C   0  0  0  0  0  0  0  0  0  0  0  0
    2.9905   -5.0365   -1.1323 H   0  0  0  0  0  0  0  0  0  0  0  0
    2.7566   -5.0681    3.9549 H   0  0  0  0  0  0  0  0  0  0  0  0
    1.1969   -4.4013    3.3987 H   0  0  0  0  0  0  0  0  0  0  0  0
    4.0680   -3.4223   -2.5545 H   0  0  0  0  0  0  0  0  0  0  0  0
    4.9930   -1.0354   -2.6903 H   0  0  0  0  0  0  0  0  0  0  0  0
    4.1684   -0.2911    1.3005 H   0  0  0  0  0  0  0  0  0  0  0  0
    3.7178   -2.5449    2.7955 H   0  0  0  0  0  0  0  0  0  0  0  0
    2.0902   -2.2634    2.1939 H   0  0  0  0  0  0  0  0  0  0  0  0
    4.9840    0.2987   -0.7827 H   0  0  0  0  0  0  0  0  0  0  0  0
  1  2  2  0
  2  6  1  0
  2  3  1  0
  3 16  1  0
  3 17  1  0
  3  4  1  0
  4 14  1  0
  4  5  1  0
  5  7  1  0
  5  6  2  0
  7  8  1  0
  7 15  1  0
  8 13  2  0
  8  9  1  0
  9 10  2  0
  9 18  1  0
 10 11  1  0
 10 19  1  0
 11 12  2  0
 11 23  1  0
 12 13  1  0
 12 20  1  0
 13 14  1  0
 14 21  1  0
 14 22  1  0
M  CHG  1  11   1
M  END
>  <i_m_ct_stereo_status>  (338) 
1

>  <s_m_source_file>  (338) 
/var/tmp/pbs.5076255.sched01/tmpg0s73j8k/135j_ekwz2c.sdf

>  <i_m_source_file_index>  (338) 
3

>  <i_lp_mmshare_version>  (338) 
48012

>  <i_f3d_flags>  (338) 
0

>  <s_epik_input>  (338) 
W09IXWMoW2NIXTEpbmMobjEyKVtOSF1jM2MoW0NIMl0yKVtjSF1uW2NIXVtjSF0z

>  <s_epik_cmdline>  (338) 
J2VwaWtfcHl0aG9uJywgJy1waHQnLCAnMi4wJywgJy1waCcsICc3LjAnLCAnLXRuJywgJzgnLCAnLW1hJywgJzIwMCcsICctaW1hZScsICc8aW5maWxlLm1hZT4nLCAnLW9tYWUnLCAnPG91dGZpbGUubWFlPic=

>  <r_lp_tautomer_probability>  (338) 
0.999931

>  <r_epik_Ionization_Penalty>  (338) 
2.39332

>  <r_epik_Ionization_Penalty_Charging>  (338) 
2.39241

>  <r_epik_Ionization_Penalty_Neutral>  (338) 
0.000916809

>  <r_epik_State_Penalty>  (338) 
2.54973

>  <r_epik_Charging_Adjusted_Penalty>  (338) 
4.94214

>  <i_epik_Tot_Q>  (338) 
1

>  <i_epik_Tot_abs_Q>  (338) 
1

>  <s_epik_Chemistry_Notes>  (338) 
This compound has an imine and may undergo hydrolysis.

>  <s_lp_Force_Field>  (338) 
OPLS3e

>  <r_lp_Energy>  (338) 
25.4034

>  <b_lp_Chiralities_Consistent>  (338) 
1

>  <s_lp_Variant>  (338) 
86:0-2

>  <s_i_glide_gridfile>  (338) 
pfpi4k_grid

>  <i_i_glide_lignum>  (338) 
3

>  <i_i_glide_rotatable_bonds>  (338) 
0

>  <r_i_docking_score>  (338) 
-4.95308

>  <r_i_glide_ligand_efficiency>  (338) 
-0.353791

>  <r_i_glide_ligand_efficiency_sa>  (338) 
-0.852687

>  <r_i_glide_ligand_efficiency_ln>  (338) 
-1.36109

>  <r_i_glide_gscore>  (338) 
-4.95308

>  <r_i_glide_lipo>  (338) 
-0.019693

>  <r_i_glide_hbond>  (338) 
-0.32

>  <r_i_glide_metal>  (338) 
-0

>  <r_i_glide_rewards>  (338) 
-2.11913

>  <r_i_glide_evdw>  (338) 
-15.9674

>  <r_i_glide_ecoul>  (338) 
-10.5599

>  <r_i_glide_erotb>  (338) 
0

>  <r_i_glide_esite>  (338) 
-0.111899

>  <r_i_glide_emodel>  (338) 
-36.5627

>  <r_i_glide_energy>  (338) 
-26.5273

>  <r_i_glide_einternal>  (338) 
0

>  <r_i_glide_intrahb_reward>  (338) 
-0

>  <i_i_glide_confnum>  (338) 
1

>  <i_i_glide_posenum>  (338) 
27

>  <r_i_glide_eff_state_penalty>  (338) 
0

>  <ligand_id>  (338) 
86

>  <original_smiles>  (338) 
Oc1cn2c(n1)Nc1ccncc1C2

>  <smiles>  (338) 
[H]c1c2c(c([H])[n+]([H])c1[H])C([H])([H])N1C(=NC(=O)C1([H])[H])N2[H]

$$$$
86:1:2
     RDKit          3D

 23 25  0  0  1  0  0  0  0  0999 V2000
   -3.2015    2.8788    8.2296 O   0  0  0  0  0  0  0  0  0  0  0  0
   -2.5723    2.3883    7.2918 C   0  0  0  0  0  0  0  0  0  0  0  0
   -2.5584    3.0367    5.9150 C   0  0  0  0  0  0  0  0  0  0  0  0
   -1.5777    2.2427    5.2346 N   0  0  0  0  0  0  0  0  0  0  0  0
   -1.2923    1.2059    6.0887 C   0  0  0  0  0  0  0  0  0  0  0  0
   -1.8139    1.2290    7.2691 N   0  0  0  0  0  0  0  0  0  0  0  0
   -0.4784    0.2208    5.5742 N   0  0  0  0  0  0  0  0  0  0  0  0
    0.0337    0.1689    4.2778 C   0  0  0  0  0  0  0  0  0  0  0  0
    0.9550   -0.8241    3.8769 C   0  0  0  0  0  0  0  0  0  0  0  0
    1.4218   -0.8096    2.5411 C   0  0  0  0  0  0  0  0  0  0  0  0
    0.9787    0.1327    1.6858 N   0  0  0  0  0  0  0  0  0  0  0  0
    0.1103    1.1049    2.0324 C   0  0  0  0  0  0  0  0  0  0  0  0
   -0.3953    1.1453    3.3487 C   0  0  0  0  0  0  0  0  0  0  0  0
   -1.4006    2.2063    3.7873 C   0  0  0  0  0  0  0  0  0  0  0  0
   -0.1818   -0.5282    6.1697 H   0  0  0  0  0  0  0  0  0  0  0  0
   -2.2651    4.0851    5.9643 H   0  0  0  0  0  0  0  0  0  0  0  0
   -3.5392    2.9470    5.4446 H   0  0  0  0  0  0  0  0  0  0  0  0
    1.2956   -1.5934    4.5601 H   0  0  0  0  0  0  0  0  0  0  0  0
    2.0912   -1.5459    2.1224 H   0  0  0  0  0  0  0  0  0  0  0  0
   -0.1850    1.7749    1.2423 H   0  0  0  0  0  0  0  0  0  0  0  0
   -1.0559    3.1815    3.4399 H   0  0  0  0  0  0  0  0  0  0  0  0
   -2.3618    2.0152    3.3060 H   0  0  0  0  0  0  0  0  0  0  0  0
    1.2455    0.0545    0.6877 H   0  0  0  0  0  0  0  0  0  0  0  0
  1  2  2  0
  2  6  1  0
  2  3  1  0
  3 16  1  0
  3 17  1  0
  3  4  1  0
  4 14  1  0
  4  5  1  0
  5  7  1  0
  5  6  2  0
  7  8  1  0
  7 15  1  0
  8 13  2  0
  8  9  1  0
  9 10  2  0
  9 18  1  0
 10 11  1  0
 10 19  1  0
 11 12  2  0
 11 23  1  0
 12 13  1  0
 12 20  1  0
 13 14  1  0
 14 21  1  0
 14 22  1  0
M  CHG  1  11   1
M  END
>  <i_m_ct_stereo_status>  (339) 
1

>  <s_m_source_file>  (339) 
/var/tmp/pbs.5076255.sched01/tmpg0s73j8k/135j_ekwz2c.sdf

>  <i_m_source_file_index>  (339) 
3

>  <i_lp_mmshare_version>  (339) 
48012

>  <i_f3d_flags>  (339) 
0

>  <s_epik_input>  (339) 
W09IXWMoW2NIXTEpbmMobjEyKVtOSF1jM2MoW0NIMl0yKVtjSF1uW2NIXVtjSF0z

>  <s_epik_cmdline>  (339) 
J2VwaWtfcHl0aG9uJywgJy1waHQnLCAnMi4wJywgJy1waCcsICc3LjAnLCAnLXRuJywgJzgnLCAnLW1hJywgJzIwMCcsICctaW1hZScsICc8aW5maWxlLm1hZT4nLCAnLW9tYWUnLCAnPG91dGZpbGUubWFlPic=

>  <r_lp_tautomer_probability>  (339) 
0.999931

>  <r_epik_Ionization_Penalty>  (339) 
2.39332

>  <r_epik_Ionization_Penalty_Charging>  (339) 
2.39241

>  <r_epik_Ionization_Penalty_Neutral>  (339) 
0.000916809

>  <r_epik_State_Penalty>  (339) 
2.54973

>  <r_epik_Charging_Adjusted_Penalty>  (339) 
4.94214

>  <i_epik_Tot_Q>  (339) 
1

>  <i_epik_Tot_abs_Q>  (339) 
1

>  <s_epik_Chemistry_Notes>  (339) 
This compound has an imine and may undergo hydrolysis.

>  <s_lp_Force_Field>  (339) 
OPLS3e

>  <r_lp_Energy>  (339) 
25.4034

>  <b_lp_Chiralities_Consistent>  (339) 
1

>  <s_lp_Variant>  (339) 
86:0-2

>  <s_i_glide_gridfile>  (339) 
pfpi4k_grid

>  <i_i_glide_lignum>  (339) 
3

>  <i_i_glide_rotatable_bonds>  (339) 
0

>  <r_i_docking_score>  (339) 
-4.812

>  <r_i_glide_ligand_efficiency>  (339) 
-0.343714

>  <r_i_glide_ligand_efficiency_sa>  (339) 
-0.8284

>  <r_i_glide_ligand_efficiency_ln>  (339) 
-1.32232

>  <r_i_glide_gscore>  (339) 
-4.812

>  <r_i_glide_lipo>  (339) 
-0.0643128

>  <r_i_glide_hbond>  (339) 
-0.289698

>  <r_i_glide_metal>  (339) 
-0

>  <r_i_glide_rewards>  (339) 
-2.21954

>  <r_i_glide_evdw>  (339) 
-16.8363

>  <r_i_glide_ecoul>  (339) 
-8.46047

>  <r_i_glide_erotb>  (339) 
0

>  <r_i_glide_esite>  (339) 
-0.127567

>  <r_i_glide_emodel>  (339) 
-35.0127

>  <r_i_glide_energy>  (339) 
-25.2967

>  <r_i_glide_einternal>  (339) 
0

>  <r_i_glide_intrahb_reward>  (339) 
-0

>  <i_i_glide_confnum>  (339) 
2

>  <i_i_glide_posenum>  (339) 
7

>  <r_i_glide_eff_state_penalty>  (339) 
0

>  <ligand_id>  (339) 
86

>  <original_smiles>  (339) 
Oc1cn2c(n1)Nc1ccncc1C2

>  <smiles>  (339) 
[H]c1c2c(c([H])[n+]([H])c1[H])C([H])([H])N1C(=NC(=O)C1([H])[H])N2[H]

$$$$
87:0:0
     RDKit          3D

 48 53  0  0  1  0  0  0  0  0999 V2000
    6.0919   -5.9147    2.7034 C   0  0  0  0  0  0  0  0  0  0  0  0
    5.3905   -4.8149    2.3553 C   0  0  0  0  0  0  0  0  0  0  0  0
    4.6646   -4.1096    3.6578 C   0  0  0  0  0  0  0  0  0  0  0  0
    4.6080   -4.7526    4.7051 O   0  0  0  0  0  0  0  0  0  0  0  0
    3.9236   -2.5963    3.7988 C   0  0  2  0  0  0  0  0  0  0  0  0
    4.4922   -1.9544    5.0857 C   0  0  0  0  0  0  0  0  0  0  0  0
    2.3517   -2.4515    3.8486 C   0  0  0  0  0  0  0  0  0  0  0  0
    1.8356   -1.5240    2.6533 C   0  0  0  0  0  0  0  0  0  0  0  0
    3.0394   -1.0597    1.7247 C   0  0  1  0  0  0  0  0  0  0  0  0
    3.0167    0.4845    1.6842 C   0  0  0  0  0  0  0  0  0  0  0  0
    4.1245   -1.5377    2.6432 C   0  0  2  0  0  0  0  0  0  0  0  0
    4.3195   -2.4222    1.5594 C   0  0  1  0  0  0  0  0  0  0  0  0
    3.0348   -3.6816    1.4209 C   0  0  0  0  0  0  0  0  0  0  0  0
    3.2111   -4.7795    0.5905 O   0  0  0  0  0  0  0  0  0  0  0  0
    4.1508   -4.3005   -0.2549 C   0  0  2  0  0  0  0  0  0  0  0  0
    5.4486   -4.4380    0.7158 C   0  0  1  0  0  0  0  0  0  0  0  0
    6.1527   -3.1166    0.3003 C   0  0  0  0  0  0  0  0  0  0  0  0
    5.1967   -1.8041    0.3952 C   0  0  2  0  0  0  0  0  0  0  0  0
    5.2914   -1.3709   -1.1111 C   0  0  0  0  0  0  0  0  0  0  0  0
    4.4200   -2.3065   -1.9368 C   0  0  0  0  0  0  0  0  0  0  0  0
    3.5473   -2.8576   -0.8300 C   0  0  2  0  0  0  0  0  0  0  0  0
    3.6408   -1.5798    0.2014 C   0  0  1  0  0  0  0  0  0  0  0  0
    6.6310   -6.4918    1.9655 H   0  0  0  0  0  0  0  0  0  0  0  0
    6.1624   -6.2713    3.7190 H   0  0  0  0  0  0  0  0  0  0  0  0
    4.1622   -0.9199    5.1941 H   0  0  0  0  0  0  0  0  0  0  0  0
    5.5831   -1.9527    5.0871 H   0  0  0  0  0  0  0  0  0  0  0  0
    4.1630   -2.4945    5.9759 H   0  0  0  0  0  0  0  0  0  0  0  0
    1.8384   -3.4142    3.8749 H   0  0  0  0  0  0  0  0  0  0  0  0
    2.0544   -1.9919    4.7907 H   0  0  0  0  0  0  0  0  0  0  0  0
    0.9814   -1.9289    2.1147 H   0  0  0  0  0  0  0  0  0  0  0  0
    1.4111   -0.6434    3.1358 H   0  0  0  0  0  0  0  0  0  0  0  0
    3.9129    0.8763    1.2081 H   0  0  0  0  0  0  0  0  0  0  0  0
    2.9597    0.9213    2.6816 H   0  0  0  0  0  0  0  0  0  0  0  0
    2.1553    0.8370    1.1126 H   0  0  0  0  0  0  0  0  0  0  0  0
    4.9264   -0.8069    2.8013 H   0  0  0  0  0  0  0  0  0  0  0  0
    5.2597   -2.5341    2.0859 H   0  0  0  0  0  0  0  0  0  0  0  0
    2.7009   -4.2500    2.2716 H   0  0  0  0  0  0  0  0  0  0  0  0
    2.0783   -3.3178    1.0297 H   0  0  0  0  0  0  0  0  0  0  0  0
    4.2662   -4.9892   -1.0904 H   0  0  0  0  0  0  0  0  0  0  0  0
    6.0304   -5.2494    0.2741 H   0  0  0  0  0  0  0  0  0  0  0  0
    7.0370   -2.9688    0.9247 H   0  0  0  0  0  0  0  0  0  0  0  0
    6.5764   -3.3081   -0.6932 H   0  0  0  0  0  0  0  0  0  0  0  0
    5.0360   -0.3163   -1.2701 H   0  0  0  0  0  0  0  0  0  0  0  0
    6.3162   -1.4103   -1.4777 H   0  0  0  0  0  0  0  0  0  0  0  0
    3.8436   -1.7351   -2.6693 H   0  0  0  0  0  0  0  0  0  0  0  0
    4.9921   -3.0775   -2.4553 H   0  0  0  0  0  0  0  0  0  0  0  0
    2.5353   -3.0024   -1.2117 H   0  0  0  0  0  0  0  0  0  0  0  0
    3.2561   -0.7423   -0.3989 H   0  0  0  0  0  0  0  0  0  0  0  0
  1  2  2  0
  1 23  1  0
  1 24  1  0
  2 16  1  0
  2  3  1  0
  3  4  2  0
  3  5  1  0
  5 11  1  0
  5  6  1  1
  5  7  1  0
  6 25  1  0
  6 26  1  0
  6 27  1  0
  7  8  1  0
  7 28  1  0
  7 29  1  0
  8  9  1  0
  8 30  1  0
  8 31  1  0
  9 22  1  0
  9 10  1  6
  9 11  1  0
 10 32  1  0
 10 33  1  0
 10 34  1  0
 11 12  1  0
 11 35  1  1
 12 18  1  0
 12 13  1  0
 12 36  1  1
 13 14  1  0
 13 37  1  0
 13 38  1  0
 14 15  1  0
 15 21  1  0
 15 16  1  0
 15 39  1  6
 16 17  1  0
 16 40  1  6
 17 18  1  0
 17 41  1  0
 17 42  1  0
 18 22  1  0
 18 19  1  1
 19 20  1  0
 19 43  1  0
 19 44  1  0
 20 21  1  0
 20 45  1  0
 20 46  1  0
 21 22  1  0
 21 47  1  6
 22 48  1  6
M  END
>  <i_m_ct_stereo_status>  (340) 
1

>  <s_m_source_file>  (340) 
/var/tmp/pbs.5076255.sched01/tmpg0s73j8k/135j_ekwz2c.sdf

>  <i_m_source_file_index>  (340) 
4

>  <i_lp_mmshare_version>  (340) 
48012

>  <i_f3d_flags>  (340) 
0

>  <s_epik_input>  (340) 
W0NAQF0xMjNbQ0BIXTRbQ0BASF01W0NAXTYoW0NIM10pQyg9TylDKD1bQ0gyXSlbQ0BIXShbQ0gyXTEpW0NAQEhdKE9bQ0gyXTQpW0NASF0oW0NIMl1bQ0gyXTIpW0NASF0zW0NAQF01KFtDSDNdKVtDSDJdW0NIMl02

>  <s_epik_cmdline>  (340) 
J2VwaWtfcHl0aG9uJywgJy1waHQnLCAnMi4wJywgJy1waCcsICc3LjAnLCAnLXRuJywgJzgnLCAnLW1hJywgJzIwMCcsICctaW1hZScsICc8aW5maWxlLm1hZT4nLCAnLW9tYWUnLCAnPG91dGZpbGUubWFlPic=

>  <r_lp_tautomer_probability>  (340) 
1

>  <r_epik_Ionization_Penalty>  (340) 
2.69454e-11

>  <r_epik_Ionization_Penalty_Charging>  (340) 
0

>  <r_epik_Ionization_Penalty_Neutral>  (340) 
2.69454e-11

>  <r_epik_State_Penalty>  (340) 
-0

>  <r_epik_Charging_Adjusted_Penalty>  (340) 
0

>  <i_epik_Tot_Q>  (340) 
0

>  <i_epik_Tot_abs_Q>  (340) 
0

>  <s_lp_Force_Field>  (340) 
OPLS3e

>  <r_lp_Energy>  (340) 
485.662

>  <b_lp_Chiralities_Consistent>  (340) 
1

>  <s_lp_Variant>  (340) 
87:0-1

>  <s_i_glide_gridfile>  (340) 
pfpi4k_grid

>  <i_i_glide_lignum>  (340) 
4

>  <i_i_glide_rotatable_bonds>  (340) 
0

>  <r_i_docking_score>  (340) 
-2.91223

>  <r_i_glide_ligand_efficiency>  (340) 
-0.132374

>  <r_i_glide_ligand_efficiency_sa>  (340) 
-0.370918

>  <r_i_glide_ligand_efficiency_ln>  (340) 
-0.711856

>  <r_i_glide_gscore>  (340) 
-2.91223

>  <r_i_glide_lipo>  (340) 
-0.351162

>  <r_i_glide_hbond>  (340) 
0

>  <r_i_glide_metal>  (340) 
-0

>  <r_i_glide_rewards>  (340) 
-1.38808

>  <r_i_glide_evdw>  (340) 
-22.1436

>  <r_i_glide_ecoul>  (340) 
-0.438765

>  <r_i_glide_erotb>  (340) 
0

>  <r_i_glide_esite>  (340) 
0

>  <r_i_glide_emodel>  (340) 
-26.329

>  <r_i_glide_energy>  (340) 
-22.5823

>  <r_i_glide_einternal>  (340) 
0

>  <r_i_glide_intrahb_reward>  (340) 
-0

>  <i_i_glide_confnum>  (340) 
1

>  <i_i_glide_posenum>  (340) 
10

>  <r_i_glide_eff_state_penalty>  (340) 
0

>  <ligand_id>  (340) 
87

>  <original_smiles>  (340) 
C=C1C(=O)C2(C)CCC3(C)C2C2COC4C1CC21CCC4C31

>  <smiles>  (340) 
[H]C([H])=C1C(=O)C2(C([H])([H])[H])C([H])([H])C([H])([H])C3(C([H])([H])[H])C2([H])C2([H])C([H])([H])OC4([H])C1([H])C([H])([H])C21C([H])([H])C([H])([H])C4([H])C31[H]

$$$$
87:0:1
     RDKit          3D

 48 53  0  0  1  0  0  0  0  0999 V2000
    6.9411   -3.0168   -1.9491 C   0  0  0  0  0  0  0  0  0  0  0  0
    6.1197   -3.4239   -0.9642 C   0  0  0  0  0  0  0  0  0  0  0  0
    4.6100   -2.8040   -1.0969 C   0  0  0  0  0  0  0  0  0  0  0  0
    4.4436   -1.8819   -1.9056 O   0  0  0  0  0  0  0  0  0  0  0  0
    3.2042   -3.1991   -0.2546 C   0  0  2  0  0  0  0  0  0  0  0  0
    2.1429   -3.4369   -1.3569 C   0  0  0  0  0  0  0  0  0  0  0  0
    2.6662   -2.2563    0.9104 C   0  0  0  0  0  0  0  0  0  0  0  0
    2.5614   -3.0228    2.3015 C   0  0  0  0  0  0  0  0  0  0  0  0
    3.0879   -4.5037    2.1506 C   0  0  1  0  0  0  0  0  0  0  0  0
    1.9700   -5.4604    2.6068 C   0  0  0  0  0  0  0  0  0  0  0  0
    3.1741   -4.4962    0.6433 C   0  0  2  0  0  0  0  0  0  0  0  0
    4.5358   -4.5540    0.9745 C   0  0  1  0  0  0  0  0  0  0  0  0
    5.2115   -3.0120    1.6212 C   0  0  0  0  0  0  0  0  0  0  0  0
    6.5838   -2.8105    1.6060 O   0  0  0  0  0  0  0  0  0  0  0  0
    6.9888   -4.1025    1.6778 C   0  0  2  0  0  0  0  0  0  0  0  0
    6.8514   -4.4381    0.1444 C   0  0  1  0  0  0  0  0  0  0  0  0
    6.3142   -5.8575    0.3553 C   0  0  0  0  0  0  0  0  0  0  0  0
    5.0128   -6.0307    1.3047 C   0  0  2  0  0  0  0  0  0  0  0  0
    5.6839   -7.0382    2.3180 C   0  0  0  0  0  0  0  0  0  0  0  0
    6.6452   -6.2518    3.1989 C   0  0  0  0  0  0  0  0  0  0  0  0
    6.1260   -4.8582    2.9100 C   0  0  2  0  0  0  0  0  0  0  0  0
    4.5582   -5.2433    2.5937 C   0  0  1  0  0  0  0  0  0  0  0  0
    7.9694   -3.3333   -2.0045 H   0  0  0  0  0  0  0  0  0  0  0  0
    6.5818   -2.3880   -2.7322 H   0  0  0  0  0  0  0  0  0  0  0  0
    1.2072   -3.7990   -0.9441 H   0  0  0  0  0  0  0  0  0  0  0  0
    2.4554   -4.1497   -2.1176 H   0  0  0  0  0  0  0  0  0  0  0  0
    1.9307   -2.5245   -1.9123 H   0  0  0  0  0  0  0  0  0  0  0  0
    3.1911   -1.3004    0.9732 H   0  0  0  0  0  0  0  0  0  0  0  0
    1.6446   -1.9727    0.7608 H   0  0  0  0  0  0  0  0  0  0  0  0
    2.9369   -2.4556    3.1551 H   0  0  0  0  0  0  0  0  0  0  0  0
    1.4871   -3.0675    2.5006 H   0  0  0  0  0  0  0  0  0  0  0  0
    2.2262   -6.4944    2.3738 H   0  0  0  0  0  0  0  0  0  0  0  0
    1.0230   -5.2406    2.1142 H   0  0  0  0  0  0  0  0  0  0  0  0
    1.8218   -5.3843    3.6845 H   0  0  0  0  0  0  0  0  0  0  0  0
    2.7719   -5.3995    0.1652 H   0  0  0  0  0  0  0  0  0  0  0  0
    4.5536   -4.8559   -0.0695 H   0  0  0  0  0  0  0  0  0  0  0  0
    5.0095   -2.0574    1.1606 H   0  0  0  0  0  0  0  0  0  0  0  0
    4.9611   -2.7826    2.6623 H   0  0  0  0  0  0  0  0  0  0  0  0
    8.0455   -4.1679    1.9215 H   0  0  0  0  0  0  0  0  0  0  0  0
    7.8882   -4.4972   -0.1872 H   0  0  0  0  0  0  0  0  0  0  0  0
    5.9401   -6.2203   -0.5774 H   0  0  0  0  0  0  0  0  0  0  0  0
    7.1904   -6.4772    0.6075 H   0  0  0  0  0  0  0  0  0  0  0  0
    4.9408   -7.5960    2.8934 H   0  0  0  0  0  0  0  0  0  0  0  0
    6.2072   -7.8461    1.8042 H   0  0  0  0  0  0  0  0  0  0  0  0
    6.5076   -6.5395    4.2390 H   0  0  0  0  0  0  0  0  0  0  0  0
    7.6919   -6.3732    2.9251 H   0  0  0  0  0  0  0  0  0  0  0  0
    6.1854   -4.2745    3.8257 H   0  0  0  0  0  0  0  0  0  0  0  0
    4.2158   -5.7933    3.4828 H   0  0  0  0  0  0  0  0  0  0  0  0
  1  2  2  0
  1 23  1  0
  1 24  1  0
  2 16  1  0
  2  3  1  0
  3  4  2  0
  3  5  1  0
  5 11  1  0
  5  6  1  6
  5  7  1  0
  6 25  1  0
  6 26  1  0
  6 27  1  0
  7  8  1  0
  7 28  1  0
  7 29  1  0
  8  9  1  0
  8 30  1  0
  8 31  1  0
  9 22  1  0
  9 10  1  6
  9 11  1  0
 10 32  1  0
 10 33  1  0
 10 34  1  0
 11 12  1  0
 11 35  1  6
 12 18  1  0
 12 13  1  0
 12 36  1  6
 13 14  1  0
 13 37  1  0
 13 38  1  0
 14 15  1  0
 15 21  1  0
 15 16  1  0
 15 39  1  1
 16 17  1  0
 16 40  1  6
 17 18  1  0
 17 41  1  0
 17 42  1  0
 18 22  1  0
 18 19  1  6
 19 20  1  0
 19 43  1  0
 19 44  1  0
 20 21  1  0
 20 45  1  0
 20 46  1  0
 21 22  1  0
 21 47  1  1
 22 48  1  1
M  END
>  <i_m_ct_stereo_status>  (341) 
1

>  <s_m_source_file>  (341) 
/var/tmp/pbs.5076255.sched01/tmpg0s73j8k/135j_ekwz2c.sdf

>  <i_m_source_file_index>  (341) 
4

>  <i_lp_mmshare_version>  (341) 
48012

>  <i_f3d_flags>  (341) 
0

>  <s_epik_input>  (341) 
W0NAQF0xMjNbQ0BIXTRbQ0BASF01W0NAXTYoW0NIM10pQyg9TylDKD1bQ0gyXSlbQ0BIXShbQ0gyXTEpW0NAQEhdKE9bQ0gyXTQpW0NASF0oW0NIMl1bQ0gyXTIpW0NASF0zW0NAQF01KFtDSDNdKVtDSDJdW0NIMl02

>  <s_epik_cmdline>  (341) 
J2VwaWtfcHl0aG9uJywgJy1waHQnLCAnMi4wJywgJy1waCcsICc3LjAnLCAnLXRuJywgJzgnLCAnLW1hJywgJzIwMCcsICctaW1hZScsICc8aW5maWxlLm1hZT4nLCAnLW9tYWUnLCAnPG91dGZpbGUubWFlPic=

>  <r_lp_tautomer_probability>  (341) 
1

>  <r_epik_Ionization_Penalty>  (341) 
2.69454e-11

>  <r_epik_Ionization_Penalty_Charging>  (341) 
0

>  <r_epik_Ionization_Penalty_Neutral>  (341) 
2.69454e-11

>  <r_epik_State_Penalty>  (341) 
-0

>  <r_epik_Charging_Adjusted_Penalty>  (341) 
0

>  <i_epik_Tot_Q>  (341) 
0

>  <i_epik_Tot_abs_Q>  (341) 
0

>  <s_lp_Force_Field>  (341) 
OPLS3e

>  <r_lp_Energy>  (341) 
485.662

>  <b_lp_Chiralities_Consistent>  (341) 
1

>  <s_lp_Variant>  (341) 
87:0-1

>  <s_i_glide_gridfile>  (341) 
pfpi4k_grid

>  <i_i_glide_lignum>  (341) 
4

>  <i_i_glide_rotatable_bonds>  (341) 
0

>  <r_i_docking_score>  (341) 
-2.44884

>  <r_i_glide_ligand_efficiency>  (341) 
-0.111311

>  <r_i_glide_ligand_efficiency_sa>  (341) 
-0.311897

>  <r_i_glide_ligand_efficiency_ln>  (341) 
-0.598585

>  <r_i_glide_gscore>  (341) 
-2.44884

>  <r_i_glide_lipo>  (341) 
-0.58203

>  <r_i_glide_hbond>  (341) 
0

>  <r_i_glide_metal>  (341) 
-0

>  <r_i_glide_rewards>  (341) 
-1.37441

>  <r_i_glide_evdw>  (341) 
-6.10071

>  <r_i_glide_ecoul>  (341) 
-1.20509

>  <r_i_glide_erotb>  (341) 
0

>  <r_i_glide_esite>  (341) 
-0.00659509

>  <r_i_glide_emodel>  (341) 
-9.5682

>  <r_i_glide_energy>  (341) 
-7.3058

>  <r_i_glide_einternal>  (341) 
0

>  <r_i_glide_intrahb_reward>  (341) 
-0

>  <i_i_glide_confnum>  (341) 
2

>  <i_i_glide_posenum>  (341) 
4

>  <r_i_glide_eff_state_penalty>  (341) 
0

>  <ligand_id>  (341) 
87

>  <original_smiles>  (341) 
C=C1C(=O)C2(C)CCC3(C)C2C2COC4C1CC21CCC4C31

>  <smiles>  (341) 
[H]C([H])=C1C(=O)C2(C([H])([H])[H])C([H])([H])C([H])([H])C3(C([H])([H])[H])C2([H])C2([H])C([H])([H])OC4([H])C1([H])C([H])([H])C21C([H])([H])C([H])([H])C4([H])C31[H]

$$$$
88:0:0
     RDKit          3D

 68 75  0  0  1  0  0  0  0  0999 V2000
    9.0186  -11.4933    5.5743 C   0  0  0  0  0  0  0  0  0  0  0  0
    8.2782  -11.3517    4.2377 C   0  0  0  0  0  0  0  0  0  0  0  0
    6.8070  -11.8544    4.2585 C   0  0  2  0  0  0  0  0  0  0  0  0
    5.9977  -11.5570    2.8909 C   0  0  1  0  0  0  0  0  0  0  0  0
    5.9074  -12.7172    2.0912 O   0  0  0  0  0  0  0  0  0  0  0  0
    4.5205  -10.8340    3.0742 C   0  0  2  0  0  0  0  0  0  0  0  0
    4.6663   -9.3265    2.8417 C   0  0  2  0  0  0  0  0  0  0  0  0
    4.7804   -8.8731    1.3625 C   0  0  1  0  0  0  0  0  0  0  0  0
    3.7706   -9.4573    0.5646 O   0  0  0  0  0  0  0  0  0  0  0  0
    4.7207   -7.3264    1.2198 C   0  0  1  0  0  0  0  0  0  0  0  0
    3.3914   -6.6674    1.6555 C   0  0  0  0  0  0  0  0  0  0  0  0
    6.1255   -6.5640    2.0906 S   0  0  0  0  0  0  0  0  0  0  0  0
    5.9106   -7.3177    3.7358 C   0  0  0  0  0  0  0  0  0  0  0  0
    5.8955   -8.8584    3.6409 C   0  0  1  0  0  0  0  0  0  0  0  0
    6.0520   -9.6264    4.9918 C   0  0  1  0  0  0  0  0  0  0  0  0
    5.0231   -9.3540    5.9888 C   0  0  1  0  0  0  0  0  0  0  0  0
    5.0701   -8.0798    6.8554 C   0  0  0  0  0  0  0  0  0  0  0  0
    3.9548   -8.1461    7.8914 C   0  0  0  0  0  0  0  0  0  0  0  0
    3.7172   -9.5613    8.3005 N   0  0  1  0  0  0  0  0  0  0  0  0
    2.3914   -9.7391    8.9653 C   0  0  0  0  0  0  0  0  0  0  0  0
    2.2143   -8.8385   10.1846 C   0  0  0  0  0  0  0  0  0  0  0  0
    0.8335   -8.5866   10.7617 C   0  0  0  0  0  0  0  0  0  0  0  0
    1.5570   -7.4771   10.0489 C   0  0  0  0  0  0  0  0  0  0  0  0
    3.9476  -10.5386    7.1728 C   0  0  1  0  0  0  0  0  0  0  0  0
    3.6558  -10.0180    5.6864 C   0  0  2  0  0  0  0  0  0  0  0  0
    3.6926  -11.0912    4.4565 C   0  0  2  0  0  0  0  0  0  0  0  0
    4.5471  -12.1330    5.0346 C   0  0  1  0  0  0  0  0  0  0  0  0
    4.5335  -13.3935    4.3815 O   0  0  0  0  0  0  0  0  0  0  0  0
    5.8219  -11.2362    5.2459 C   0  0  1  0  0  0  0  0  0  0  0  0
    5.4746  -10.6634    6.6898 C   0  0  1  0  0  0  0  0  0  0  0  0
   10.0491  -11.1504    5.4791 H   0  0  0  0  0  0  0  0  0  0  0  0
    9.0452  -12.5329    5.8995 H   0  0  0  0  0  0  0  0  0  0  0  0
    8.5497  -10.9021    6.3606 H   0  0  0  0  0  0  0  0  0  0  0  0
    8.3735  -10.3243    3.8898 H   0  0  0  0  0  0  0  0  0  0  0  0
    8.8080  -11.9364    3.4875 H   0  0  0  0  0  0  0  0  0  0  0  0
    6.8848  -12.9314    4.4274 H   0  0  0  0  0  0  0  0  0  0  0  0
    6.6160  -10.9479    2.2400 H   0  0  0  0  0  0  0  0  0  0  0  0
    5.2240  -12.5790    1.4232 H   0  0  0  0  0  0  0  0  0  0  0  0
    3.8559  -11.2297    2.3150 H   0  0  0  0  0  0  0  0  0  0  0  0
    3.7562   -8.8805    3.2465 H   0  0  0  0  0  0  0  0  0  0  0  0
    5.7372   -9.2071    0.9544 H   0  0  0  0  0  0  0  0  0  0  0  0
    3.9215  -10.4124    0.4926 H   0  0  0  0  0  0  0  0  0  0  0  0
    4.8504   -7.0785    0.1658 H   0  0  0  0  0  0  0  0  0  0  0  0
    2.5405   -7.0890    1.1207 H   0  0  0  0  0  0  0  0  0  0  0  0
    3.4029   -5.5962    1.4490 H   0  0  0  0  0  0  0  0  0  0  0  0
    3.1928   -6.7763    2.7206 H   0  0  0  0  0  0  0  0  0  0  0  0
    6.7284   -6.9851    4.3733 H   0  0  0  0  0  0  0  0  0  0  0  0
    4.9829   -6.9336    4.1557 H   0  0  0  0  0  0  0  0  0  0  0  0
    6.7913   -9.0574    3.0609 H   0  0  0  0  0  0  0  0  0  0  0  0
    7.0009   -9.3412    5.4468 H   0  0  0  0  0  0  0  0  0  0  0  0
    6.0367   -7.9906    7.3564 H   0  0  0  0  0  0  0  0  0  0  0  0
    4.9313   -7.1664    6.2787 H   0  0  0  0  0  0  0  0  0  0  0  0
    4.1849   -7.5218    8.7571 H   0  0  0  0  0  0  0  0  0  0  0  0
    3.0493   -7.7485    7.4374 H   0  0  0  0  0  0  0  0  0  0  0  0
    1.5818   -9.5605    8.2567 H   0  0  0  0  0  0  0  0  0  0  0  0
    2.2890  -10.7711    9.3053 H   0  0  0  0  0  0  0  0  0  0  0  0
    3.0085   -8.9288   10.9294 H   0  0  0  0  0  0  0  0  0  0  0  0
   -0.0254   -9.0310   10.2612 H   0  0  0  0  0  0  0  0  0  0  0  0
    0.7379   -8.4800   11.8408 H   0  0  0  0  0  0  0  0  0  0  0  0
    1.9670   -6.6687   10.6537 H   0  0  0  0  0  0  0  0  0  0  0  0
    1.2049   -7.1887    9.0585 H   0  0  0  0  0  0  0  0  0  0  0  0
    3.4607  -11.4767    7.4467 H   0  0  0  0  0  0  0  0  0  0  0  0
    2.8541   -9.2804    5.6187 H   0  0  0  0  0  0  0  0  0  0  0  0
    2.6878  -11.4673    4.2552 H   0  0  0  0  0  0  0  0  0  0  0  0
    4.1595  -12.5550    5.9515 H   0  0  0  0  0  0  0  0  0  0  0  0
    3.6306  -13.6382    4.2297 H   0  0  0  0  0  0  0  0  0  0  0  0
    6.2733  -10.5746    7.4247 H   0  0  0  0  0  0  0  0  0  0  0  0
    4.4095   -9.7802    8.9988 H   0  0  0  0  0  0  0  0  0  0  0  0
  1  2  1  0
  1 31  1  0
  1 32  1  0
  1 33  1  0
  2  3  1  0
  2 34  1  0
  2 35  1  0
 29  3  1  1
  3  4  1  0
  3 36  1  1
  4  5  1  0
  4  6  1  0
  4 37  1  6
  5 38  1  0
  6 26  1  0
  6  7  1  0
  6 39  1  6
  7 14  1  0
  7  8  1  0
  7 40  1  1
  8  9  1  0
  8 10  1  0
  8 41  1  6
  9 42  1  0
 10 11  1  0
 10 12  1  0
 10 43  1  6
 11 44  1  0
 11 45  1  0
 11 46  1  0
 12 13  1  0
 13 14  1  0
 13 47  1  0
 13 48  1  0
 14 15  1  0
 14 49  1  6
 15 29  1  0
 15 16  1  0
 15 50  1  1
 16 25  1  0
 16 30  1  0
 16 17  1  1
 17 18  1  0
 17 51  1  0
 17 52  1  0
 18 19  1  0
 18 53  1  0
 18 54  1  0
 19 20  1  0
 19 24  1  0
 19 68  1  1
 20 21  1  0
 20 55  1  0
 20 56  1  0
 21 23  1  0
 21 22  1  0
 21 57  1  0
 22 23  1  0
 22 58  1  0
 22 59  1  0
 23 60  1  0
 23 61  1  0
 24 30  1  0
 24 25  1  0
 24 62  1  1
 25 26  1  0
 25 63  1  1
 26 27  1  0
 26 64  1  6
 27 28  1  0
 27 29  1  0
 27 65  1  1
 28 66  1  0
 29 30  1  0
 30 67  1  1
M  CHG  1  19   1
M  END
>  <i_m_ct_stereo_status>  (342) 
1

>  <s_m_source_file>  (342) 
/var/tmp/pbs.5076255.sched01/tmpg0s73j8k/135j_ekwz2c.sdf

>  <i_m_source_file_index>  (342) 
5

>  <i_lp_mmshare_version>  (342) 
48012

>  <i_f3d_flags>  (342) 
0

>  <s_epik_input>  (342) 
W09IXVtDQEhdMVtDQEBIXShbQ0gzXSlTW0NIMl1bQ0BASF0yW0NAQEhdMVtDQEBIXShbQ0BIXShbT0hdKVtDQEhdM1tDSDJdW0NIM10pW0NAQEhdKFtDQEhdNFtPSF0pW0NASF01W0NAQEhdKFtDQEhdNltDQEBdMzRbQ0BASF0yW0NAQF01NjcpTihbQ0gyXVtDSDJdNylbQ0gyXVtDSF04W0NIMl1bQ0gyXTg=

>  <s_epik_cmdline>  (342) 
J2VwaWtfcHl0aG9uJywgJy1waHQnLCAnMi4wJywgJy1waCcsICc3LjAnLCAnLXRuJywgJzgnLCAnLW1hJywgJzIwMCcsICctaW1hZScsICc8aW5maWxlLm1hZT4nLCAnLW9tYWUnLCAnPG91dGZpbGUubWFlPic=

>  <r_lp_tautomer_probability>  (342) 
1

>  <r_epik_Ionization_Penalty>  (342) 
0.000241864

>  <r_epik_Ionization_Penalty_Charging>  (342) 
0.000241394

>  <r_epik_Ionization_Penalty_Neutral>  (342) 
4.70152e-07

>  <r_epik_State_Penalty>  (342) 
-0

>  <r_epik_Charging_Adjusted_Penalty>  (342) 
0.000241394

>  <i_epik_Tot_Q>  (342) 
1

>  <i_epik_Tot_abs_Q>  (342) 
1

>  <s_lp_Force_Field>  (342) 
OPLS3e

>  <r_lp_Energy>  (342) 
242.91

>  <b_lp_Chiralities_Consistent>  (342) 
1

>  <s_lp_Variant>  (342) 
88:0-1

>  <s_i_glide_gridfile>  (342) 
pfpi4k_grid

>  <i_i_glide_lignum>  (342) 
5

>  <i_i_glide_rotatable_bonds>  (342) 
6

>  <r_i_docking_score>  (342) 
-3.01995

>  <r_i_glide_ligand_efficiency>  (342) 
-0.100665

>  <r_i_glide_ligand_efficiency_sa>  (342) 
-0.312789

>  <r_i_glide_ligand_efficiency_ln>  (342) 
-0.686165

>  <r_i_glide_gscore>  (342) 
-3.01995

>  <r_i_glide_lipo>  (342) 
-0.186913

>  <r_i_glide_hbond>  (342) 
-0.148005

>  <r_i_glide_metal>  (342) 
-0

>  <r_i_glide_rewards>  (342) 
-0.459272

>  <r_i_glide_evdw>  (342) 
-12.5367

>  <r_i_glide_ecoul>  (342) 
-11.8866

>  <r_i_glide_erotb>  (342) 
0.212635

>  <r_i_glide_esite>  (342) 
-0.0285724

>  <r_i_glide_emodel>  (342) 
-30.4276

>  <r_i_glide_energy>  (342) 
-24.4233

>  <r_i_glide_einternal>  (342) 
1.55466

>  <r_i_glide_intrahb_reward>  (342) 
-0

>  <i_i_glide_confnum>  (342) 
1

>  <i_i_glide_posenum>  (342) 
25

>  <r_i_glide_eff_state_penalty>  (342) 
0

>  <ligand_id>  (342) 
88

>  <original_smiles>  (342) 
CCC1C(O)C2C3C(O)C(C)SCC3C3C45CCN(CC6CC6)C6C4C2C(O)C13C65

>  <smiles>  (342) 
[H]OC1([H])C([H])(C([H])([H])[H])SC([H])([H])C2([H])C1([H])C1([H])C([H])(O[H])C([H])(C([H])([H])C([H])([H])[H])C34C([H])(O[H])C1([H])C1([H])C5(C([H])([H])C([H])([H])[N+]([H])(C([H])([H])C6([H])C([H])([H])C6([H])[H])C1([H])C53[H])C24[H]

$$$$
88:0:1
     RDKit          3D

 68 75  0  0  1  0  0  0  0  0999 V2000
    9.5128   -6.6896    4.0575 C   0  0  0  0  0  0  0  0  0  0  0  0
    8.0060   -6.9307    4.2676 C   0  0  0  0  0  0  0  0  0  0  0  0
    7.3142   -7.5396    3.0175 C   0  0  2  0  0  0  0  0  0  0  0  0
    7.2536   -6.5426    1.7550 C   0  0  1  0  0  0  0  0  0  0  0  0
    8.2164   -6.8750    0.7798 O   0  0  0  0  0  0  0  0  0  0  0  0
    5.7757   -6.3716    1.0272 C   0  0  2  0  0  0  0  0  0  0  0  0
    5.1030   -5.0946    1.5413 C   0  0  2  0  0  0  0  0  0  0  0  0
    5.6090   -3.7595    0.9308 C   0  0  1  0  0  0  0  0  0  0  0  0
    5.6669   -3.8015   -0.4828 O   0  0  0  0  0  0  0  0  0  0  0  0
    4.7505   -2.5441    1.3659 C   0  0  1  0  0  0  0  0  0  0  0  0
    3.2896   -2.5689    0.8693 C   0  0  0  0  0  0  0  0  0  0  0  0
    4.8057   -2.3364    3.1747 S   0  0  0  0  0  0  0  0  0  0  0  0
    4.3293   -4.0181    3.6921 C   0  0  0  0  0  0  0  0  0  0  0  0
    5.2649   -5.0794    3.0806 C   0  0  1  0  0  0  0  0  0  0  0  0
    5.1731   -6.5144    3.7055 C   0  0  1  0  0  0  0  0  0  0  0  0
    3.8609   -7.1371    3.6352 C   0  0  1  0  0  0  0  0  0  0  0  0
    2.7837   -6.7664    4.6558 C   0  0  0  0  0  0  0  0  0  0  0  0
    1.5806   -7.6544    4.3924 C   0  0  0  0  0  0  0  0  0  0  0  0
    2.0006   -9.0022    3.9236 N   0  0  1  0  0  0  0  0  0  0  0  0
    0.9196   -9.7787    3.2434 C   0  0  0  0  0  0  0  0  0  0  0  0
   -0.4945   -9.3197    3.5907 C   0  0  0  0  0  0  0  0  0  0  0  0
   -1.6419   -9.5088    2.6168 C   0  0  0  0  0  0  0  0  0  0  0  0
   -1.1066   -8.1322    2.8484 C   0  0  0  0  0  0  0  0  0  0  0  0
    3.2692   -8.9582    3.1028 C   0  0  1  0  0  0  0  0  0  0  0  0
    3.4739   -7.6461    2.1973 C   0  0  2  0  0  0  0  0  0  0  0  0
    4.7155   -7.6127    1.1276 C   0  0  2  0  0  0  0  0  0  0  0  0
    5.6087   -8.6138    1.7353 C   0  0  1  0  0  0  0  0  0  0  0  0
    6.6153   -9.1850    0.9246 O   0  0  0  0  0  0  0  0  0  0  0  0
    5.8322   -7.8976    3.1124 C   0  0  1  0  0  0  0  0  0  0  0  0
    4.5889   -8.4833    3.9038 C   0  0  1  0  0  0  0  0  0  0  0  0
    9.9690   -6.2933    4.9649 H   0  0  0  0  0  0  0  0  0  0  0  0
    9.6905   -5.9679    3.2564 H   0  0  0  0  0  0  0  0  0  0  0  0
   10.0199   -7.6199    3.7931 H   0  0  0  0  0  0  0  0  0  0  0  0
    7.8616   -7.5935    5.1251 H   0  0  0  0  0  0  0  0  0  0  0  0
    7.5623   -5.9784    4.5495 H   0  0  0  0  0  0  0  0  0  0  0  0
    7.8954   -8.4347    2.7936 H   0  0  0  0  0  0  0  0  0  0  0  0
    7.6181   -5.5744    2.0850 H   0  0  0  0  0  0  0  0  0  0  0  0
    9.0265   -7.1399    1.2132 H   0  0  0  0  0  0  0  0  0  0  0  0
    5.9694   -6.2447   -0.0382 H   0  0  0  0  0  0  0  0  0  0  0  0
    4.0495   -5.1977    1.2825 H   0  0  0  0  0  0  0  0  0  0  0  0
    6.6284   -3.5977    1.2762 H   0  0  0  0  0  0  0  0  0  0  0  0
    4.8025   -3.9778   -0.8143 H   0  0  0  0  0  0  0  0  0  0  0  0
    5.2145   -1.6528    0.9434 H   0  0  0  0  0  0  0  0  0  0  0  0
    3.2300   -2.6572   -0.2157 H   0  0  0  0  0  0  0  0  0  0  0  0
    2.7780   -1.6459    1.1424 H   0  0  0  0  0  0  0  0  0  0  0  0
    2.7200   -3.3902    1.3018 H   0  0  0  0  0  0  0  0  0  0  0  0
    4.3707   -4.0674    4.7857 H   0  0  0  0  0  0  0  0  0  0  0  0
    3.2944   -4.1920    3.3889 H   0  0  0  0  0  0  0  0  0  0  0  0
    6.2402   -4.6785    3.3405 H   0  0  0  0  0  0  0  0  0  0  0  0
    5.4126   -6.4450    4.7729 H   0  0  0  0  0  0  0  0  0  0  0  0
    3.1668   -6.8804    5.6786 H   0  0  0  0  0  0  0  0  0  0  0  0
    2.4137   -5.7456    4.5663 H   0  0  0  0  0  0  0  0  0  0  0  0
    0.9484   -7.7143    5.2929 H   0  0  0  0  0  0  0  0  0  0  0  0
    1.0365   -7.1347    3.6031 H   0  0  0  0  0  0  0  0  0  0  0  0
    1.0278   -9.7680    2.1506 H   0  0  0  0  0  0  0  0  0  0  0  0
    0.9913  -10.8219    3.5642 H   0  0  0  0  0  0  0  0  0  0  0  0
   -0.7624   -9.4171    4.6377 H   0  0  0  0  0  0  0  0  0  0  0  0
   -1.4443   -9.9884    1.6657 H   0  0  0  0  0  0  0  0  0  0  0  0
   -2.5989   -9.7490    3.0380 H   0  0  0  0  0  0  0  0  0  0  0  0
   -1.7000   -7.4634    3.4602 H   0  0  0  0  0  0  0  0  0  0  0  0
   -0.5540   -7.6708    2.0180 H   0  0  0  0  0  0  0  0  0  0  0  0
    3.3554   -9.9233    2.5832 H   0  0  0  0  0  0  0  0  0  0  0  0
    2.5231   -7.2146    1.8049 H   0  0  0  0  0  0  0  0  0  0  0  0
    4.3940   -7.9402    0.1387 H   0  0  0  0  0  0  0  0  0  0  0  0
    5.1741   -9.6049    1.8639 H   0  0  0  0  0  0  0  0  0  0  0  0
    6.2026   -9.7281    0.2795 H   0  0  0  0  0  0  0  0  0  0  0  0
    4.6994   -8.6949    4.9830 H   0  0  0  0  0  0  0  0  0  0  0  0
    2.2362   -9.5451    4.7598 H   0  0  0  0  0  0  0  0  0  0  0  0
  1  2  1  0
  1 31  1  0
  1 32  1  0
  1 33  1  0
  2  3  1  0
  2 34  1  0
  2 35  1  0
 29  3  1  1
  3  4  1  0
  3 36  1  6
  4  5  1  0
  4  6  1  0
  4 37  1  1
  5 38  1  0
  6 26  1  0
  6  7  1  0
  6 39  1  6
  7 14  1  0
  7  8  1  0
  7 40  1  1
  8  9  1  0
  8 10  1  0
  8 41  1  1
  9 42  1  0
 10 11  1  0
 10 12  1  0
 10 43  1  6
 11 44  1  0
 11 45  1  0
 11 46  1  0
 12 13  1  0
 13 14  1  0
 13 47  1  0
 13 48  1  0
 14 15  1  0
 14 49  1  6
 15 29  1  0
 15 16  1  0
 15 50  1  1
 16 25  1  0
 16 30  1  0
 16 17  1  1
 17 18  1  0
 17 51  1  0
 17 52  1  0
 18 19  1  0
 18 53  1  0
 18 54  1  0
 19 20  1  0
 19 24  1  0
 19 68  1  1
 20 21  1  0
 20 55  1  0
 20 56  1  0
 21 23  1  0
 21 22  1  0
 21 57  1  0
 22 23  1  0
 22 58  1  0
 22 59  1  0
 23 60  1  0
 23 61  1  0
 24 30  1  0
 24 25  1  0
 24 62  1  6
 25 26  1  0
 25 63  1  6
 26 27  1  0
 26 64  1  6
 27 28  1  0
 27 29  1  0
 27 65  1  1
 28 66  1  0
 29 30  1  0
 30 67  1  1
M  CHG  1  19   1
M  END
>  <i_m_ct_stereo_status>  (343) 
1

>  <s_m_source_file>  (343) 
/var/tmp/pbs.5076255.sched01/tmpg0s73j8k/135j_ekwz2c.sdf

>  <i_m_source_file_index>  (343) 
5

>  <i_lp_mmshare_version>  (343) 
48012

>  <i_f3d_flags>  (343) 
0

>  <s_epik_input>  (343) 
W09IXVtDQEhdMVtDQEBIXShbQ0gzXSlTW0NIMl1bQ0BASF0yW0NAQEhdMVtDQEBIXShbQ0BIXShbT0hdKVtDQEhdM1tDSDJdW0NIM10pW0NAQEhdKFtDQEhdNFtPSF0pW0NASF01W0NAQEhdKFtDQEhdNltDQEBdMzRbQ0BASF0yW0NAQF01NjcpTihbQ0gyXVtDSDJdNylbQ0gyXVtDSF04W0NIMl1bQ0gyXTg=

>  <s_epik_cmdline>  (343) 
J2VwaWtfcHl0aG9uJywgJy1waHQnLCAnMi4wJywgJy1waCcsICc3LjAnLCAnLXRuJywgJzgnLCAnLW1hJywgJzIwMCcsICctaW1hZScsICc8aW5maWxlLm1hZT4nLCAnLW9tYWUnLCAnPG91dGZpbGUubWFlPic=

>  <r_lp_tautomer_probability>  (343) 
1

>  <r_epik_Ionization_Penalty>  (343) 
0.000241864

>  <r_epik_Ionization_Penalty_Charging>  (343) 
0.000241394

>  <r_epik_Ionization_Penalty_Neutral>  (343) 
4.70152e-07

>  <r_epik_State_Penalty>  (343) 
-0

>  <r_epik_Charging_Adjusted_Penalty>  (343) 
0.000241394

>  <i_epik_Tot_Q>  (343) 
1

>  <i_epik_Tot_abs_Q>  (343) 
1

>  <s_lp_Force_Field>  (343) 
OPLS3e

>  <r_lp_Energy>  (343) 
242.91

>  <b_lp_Chiralities_Consistent>  (343) 
1

>  <s_lp_Variant>  (343) 
88:0-1

>  <s_i_glide_gridfile>  (343) 
pfpi4k_grid

>  <i_i_glide_lignum>  (343) 
5

>  <i_i_glide_rotatable_bonds>  (343) 
6

>  <r_i_docking_score>  (343) 
-2.86676

>  <r_i_glide_ligand_efficiency>  (343) 
-0.0955588

>  <r_i_glide_ligand_efficiency_sa>  (343) 
-0.296923

>  <r_i_glide_ligand_efficiency_ln>  (343) 
-0.65136

>  <r_i_glide_gscore>  (343) 
-2.86676

>  <r_i_glide_lipo>  (343) 
-0.574787

>  <r_i_glide_hbond>  (343) 
0

>  <r_i_glide_metal>  (343) 
-0

>  <r_i_glide_rewards>  (343) 
-0.459272

>  <r_i_glide_evdw>  (343) 
-21.8517

>  <r_i_glide_ecoul>  (343) 
-6.28641

>  <r_i_glide_erotb>  (343) 
0.212635

>  <r_i_glide_esite>  (343) 
-0.00979171

>  <r_i_glide_emodel>  (343) 
-30.4105

>  <r_i_glide_energy>  (343) 
-28.1382

>  <r_i_glide_einternal>  (343) 
6.81171

>  <r_i_glide_intrahb_reward>  (343) 
-0

>  <i_i_glide_confnum>  (343) 
1

>  <i_i_glide_posenum>  (343) 
31

>  <r_i_glide_eff_state_penalty>  (343) 
0

>  <ligand_id>  (343) 
88

>  <original_smiles>  (343) 
CCC1C(O)C2C3C(O)C(C)SCC3C3C45CCN(CC6CC6)C6C4C2C(O)C13C65

>  <smiles>  (343) 
[H]OC1([H])C([H])(C([H])([H])[H])SC([H])([H])C2([H])C1([H])C1([H])C([H])(O[H])C([H])(C([H])([H])C([H])([H])[H])C34C([H])(O[H])C1([H])C1([H])C5(C([H])([H])C([H])([H])[N+]([H])(C([H])([H])C6([H])C([H])([H])C6([H])[H])C1([H])C53[H])C24[H]

$$$$
88:0:2
     RDKit          3D

 68 75  0  0  1  0  0  0  0  0999 V2000
    9.2106   -6.4506    4.9110 C   0  0  0  0  0  0  0  0  0  0  0  0
    7.6757   -6.4522    4.7862 C   0  0  0  0  0  0  0  0  0  0  0  0
    7.1958   -7.0630    3.4504 C   0  0  2  0  0  0  0  0  0  0  0  0
    7.3952   -6.0876    2.1845 C   0  0  1  0  0  0  0  0  0  0  0  0
    8.5161   -6.4164    1.3864 O   0  0  0  0  0  0  0  0  0  0  0  0
    6.0722   -5.8780    1.2124 C   0  0  2  0  0  0  0  0  0  0  0  0
    5.3746   -4.5605    1.5736 C   0  0  2  0  0  0  0  0  0  0  0  0
    6.0461   -3.2705    1.0474 C   0  0  1  0  0  0  0  0  0  0  0  0
    6.2968   -3.3561   -0.3358 O   0  0  0  0  0  0  0  0  0  0  0  0
    5.2012   -1.9968    1.2899 C   0  0  1  0  0  0  0  0  0  0  0  0
    3.8452   -1.9733    0.5517 C   0  0  0  0  0  0  0  0  0  0  0  0
    4.9644   -1.7440    3.0734 S   0  0  0  0  0  0  0  0  0  0  0  0
    4.3054   -3.3818    3.5330 C   0  0  0  0  0  0  0  0  0  0  0  0
    5.2754   -4.5025    3.1153 C   0  0  1  0  0  0  0  0  0  0  0  0
    4.9994   -5.9059    3.7342 C   0  0  1  0  0  0  0  0  0  0  0  0
    3.6838   -6.4734    3.4374 C   0  0  1  0  0  0  0  0  0  0  0  0
    2.4415   -6.0251    4.2343 C   0  0  0  0  0  0  0  0  0  0  0  0
    1.2795   -6.8980    3.8206 C   0  0  0  0  0  0  0  0  0  0  0  0
    1.7520   -8.2777    3.4897 N   0  0  1  0  0  0  0  0  0  0  0  0
    0.7466   -9.0183    2.6785 C   0  0  0  0  0  0  0  0  0  0  0  0
   -0.6495   -8.9762    3.2673 C   0  0  0  0  0  0  0  0  0  0  0  0
   -1.8514   -9.2704    2.4065 C   0  0  0  0  0  0  0  0  0  0  0  0
   -1.6390   -7.8783    2.9100 C   0  0  0  0  0  0  0  0  0  0  0  0
    3.1241   -8.2894    2.8842 C   0  0  1  0  0  0  0  0  0  0  0  0
    3.5411   -7.0256    1.9945 C   0  0  2  0  0  0  0  0  0  0  0  0
    4.9425   -7.0706    1.1551 C   0  0  2  0  0  0  0  0  0  0  0  0
    5.6759   -8.0781    1.9199 C   0  0  1  0  0  0  0  0  0  0  0  0
    6.7918   -8.6557    1.2775 O   0  0  0  0  0  0  0  0  0  0  0  0
    5.6845   -7.3259    3.2905 C   0  0  1  0  0  0  0  0  0  0  0  0
    4.3035   -7.8161    3.8652 C   0  0  1  0  0  0  0  0  0  0  0  0
    9.5329   -6.0318    5.8651 H   0  0  0  0  0  0  0  0  0  0  0  0
    9.6727   -5.8567    4.1181 H   0  0  0  0  0  0  0  0  0  0  0  0
    9.6035   -7.4673    4.8431 H   0  0  0  0  0  0  0  0  0  0  0  0
    7.2571   -7.0012    5.6345 H   0  0  0  0  0  0  0  0  0  0  0  0
    7.3323   -5.4249    4.9062 H   0  0  0  0  0  0  0  0  0  0  0  0
    7.7465   -8.0048    3.3461 H   0  0  0  0  0  0  0  0  0  0  0  0
    7.7278   -5.1227    2.5571 H   0  0  0  0  0  0  0  0  0  0  0  0
    9.1683   -6.8913    1.8875 H   0  0  0  0  0  0  0  0  0  0  0  0
    6.4491   -5.8060    0.2006 H   0  0  0  0  0  0  0  0  0  0  0  0
    4.3882   -4.6255    1.1177 H   0  0  0  0  0  0  0  0  0  0  0  0
    7.0137   -3.1551    1.5421 H   0  0  0  0  0  0  0  0  0  0  0  0
    6.9613   -2.7220   -0.5425 H   0  0  0  0  0  0  0  0  0  0  0  0
    5.7688   -1.1386    0.9244 H   0  0  0  0  0  0  0  0  0  0  0  0
    3.9639   -2.1011   -0.5256 H   0  0  0  0  0  0  0  0  0  0  0  0
    3.3326   -1.0251    0.7070 H   0  0  0  0  0  0  0  0  0  0  0  0
    3.1700   -2.7537    0.8956 H   0  0  0  0  0  0  0  0  0  0  0  0
    4.1714   -3.4023    4.6156 H   0  0  0  0  0  0  0  0  0  0  0  0
    3.3324   -3.5149    3.0645 H   0  0  0  0  0  0  0  0  0  0  0  0
    6.2048   -4.1572    3.5356 H   0  0  0  0  0  0  0  0  0  0  0  0
    5.0695   -5.8480    4.8227 H   0  0  0  0  0  0  0  0  0  0  0  0
    2.6233   -6.1482    5.3000 H   0  0  0  0  0  0  0  0  0  0  0  0
    2.1351   -4.9947    4.0735 H   0  0  0  0  0  0  0  0  0  0  0  0
    0.5115   -6.9111    4.5841 H   0  0  0  0  0  0  0  0  0  0  0  0
    0.8639   -6.4401    2.9305 H   0  0  0  0  0  0  0  0  0  0  0  0
    0.7063   -8.6364    1.6604 H   0  0  0  0  0  0  0  0  0  0  0  0
    1.0264  -10.0702    2.6082 H   0  0  0  0  0  0  0  0  0  0  0  0
   -0.7124   -9.3866    4.2797 H   0  0  0  0  0  0  0  0  0  0  0  0
   -1.7294   -9.4340    1.3367 H   0  0  0  0  0  0  0  0  0  0  0  0
   -2.6408   -9.8465    2.8733 H   0  0  0  0  0  0  0  0  0  0  0  0
   -2.2855   -7.5221    3.7121 H   0  0  0  0  0  0  0  0  0  0  0  0
   -1.3476   -7.1301    2.1725 H   0  0  0  0  0  0  0  0  0  0  0  0
    3.2624   -9.2581    2.4028 H   0  0  0  0  0  0  0  0  0  0  0  0
    2.7034   -6.5735    1.4659 H   0  0  0  0  0  0  0  0  0  0  0  0
    4.7770   -7.4121    0.1313 H   0  0  0  0  0  0  0  0  0  0  0  0
    5.1849   -9.0337    2.0071 H   0  0  0  0  0  0  0  0  0  0  0  0
    7.1419   -9.3347    1.8436 H   0  0  0  0  0  0  0  0  0  0  0  0
    4.2147   -7.9812    4.9414 H   0  0  0  0  0  0  0  0  0  0  0  0
    1.8054   -8.7664    4.3730 H   0  0  0  0  0  0  0  0  0  0  0  0
  1  2  1  0
  1 31  1  0
  1 32  1  0
  1 33  1  0
  2  3  1  0
  2 34  1  0
  2 35  1  0
 29  3  1  1
  3  4  1  0
  3 36  1  6
  4  5  1  0
  4  6  1  0
  4 37  1  1
  5 38  1  0
  6 26  1  0
  6  7  1  0
  6 39  1  6
  7 14  1  0
  7  8  1  0
  7 40  1  6
  8  9  1  0
  8 10  1  0
  8 41  1  1
  9 42  1  0
 10 11  1  0
 10 12  1  0
 10 43  1  6
 11 44  1  0
 11 45  1  0
 11 46  1  0
 12 13  1  0
 13 14  1  0
 13 47  1  0
 13 48  1  0
 14 15  1  0
 14 49  1  1
 15 29  1  0
 15 16  1  0
 15 50  1  1
 16 25  1  0
 16 30  1  0
 16 17  1  1
 17 18  1  0
 17 51  1  0
 17 52  1  0
 18 19  1  0
 18 53  1  0
 18 54  1  0
 19 20  1  0
 19 24  1  0
 19 68  1  1
 20 21  1  0
 20 55  1  0
 20 56  1  0
 21 23  1  0
 21 22  1  0
 21 57  1  0
 22 23  1  0
 22 58  1  0
 22 59  1  0
 23 60  1  0
 23 61  1  0
 24 30  1  0
 24 25  1  0
 24 62  1  6
 25 26  1  0
 25 63  1  6
 26 27  1  0
 26 64  1  6
 27 28  1  0
 27 29  1  0
 27 65  1  1
 28 66  1  0
 29 30  1  0
 30 67  1  1
M  CHG  1  19   1
M  END
>  <i_m_ct_stereo_status>  (344) 
1

>  <s_m_source_file>  (344) 
/var/tmp/pbs.5076255.sched01/tmpg0s73j8k/135j_ekwz2c.sdf

>  <i_m_source_file_index>  (344) 
5

>  <i_lp_mmshare_version>  (344) 
48012

>  <i_f3d_flags>  (344) 
0

>  <s_epik_input>  (344) 
W09IXVtDQEhdMVtDQEBIXShbQ0gzXSlTW0NIMl1bQ0BASF0yW0NAQEhdMVtDQEBIXShbQ0BIXShbT0hdKVtDQEhdM1tDSDJdW0NIM10pW0NAQEhdKFtDQEhdNFtPSF0pW0NASF01W0NAQEhdKFtDQEhdNltDQEBdMzRbQ0BASF0yW0NAQF01NjcpTihbQ0gyXVtDSDJdNylbQ0gyXVtDSF04W0NIMl1bQ0gyXTg=

>  <s_epik_cmdline>  (344) 
J2VwaWtfcHl0aG9uJywgJy1waHQnLCAnMi4wJywgJy1waCcsICc3LjAnLCAnLXRuJywgJzgnLCAnLW1hJywgJzIwMCcsICctaW1hZScsICc8aW5maWxlLm1hZT4nLCAnLW9tYWUnLCAnPG91dGZpbGUubWFlPic=

>  <r_lp_tautomer_probability>  (344) 
1

>  <r_epik_Ionization_Penalty>  (344) 
0.000241864

>  <r_epik_Ionization_Penalty_Charging>  (344) 
0.000241394

>  <r_epik_Ionization_Penalty_Neutral>  (344) 
4.70152e-07

>  <r_epik_State_Penalty>  (344) 
-0

>  <r_epik_Charging_Adjusted_Penalty>  (344) 
0.000241394

>  <i_epik_Tot_Q>  (344) 
1

>  <i_epik_Tot_abs_Q>  (344) 
1

>  <s_lp_Force_Field>  (344) 
OPLS3e

>  <r_lp_Energy>  (344) 
242.91

>  <b_lp_Chiralities_Consistent>  (344) 
1

>  <s_lp_Variant>  (344) 
88:0-1

>  <s_i_glide_gridfile>  (344) 
pfpi4k_grid

>  <i_i_glide_lignum>  (344) 
5

>  <i_i_glide_rotatable_bonds>  (344) 
6

>  <r_i_docking_score>  (344) 
-2.8656

>  <r_i_glide_ligand_efficiency>  (344) 
-0.0955199

>  <r_i_glide_ligand_efficiency_sa>  (344) 
-0.296802

>  <r_i_glide_ligand_efficiency_ln>  (344) 
-0.651095

>  <r_i_glide_gscore>  (344) 
-2.8656

>  <r_i_glide_lipo>  (344) 
-0.933566

>  <r_i_glide_hbond>  (344) 
0

>  <r_i_glide_metal>  (344) 
-0

>  <r_i_glide_rewards>  (344) 
-0.459272

>  <r_i_glide_evdw>  (344) 
-21.251

>  <r_i_glide_ecoul>  (344) 
-4.09184

>  <r_i_glide_erotb>  (344) 
0.212635

>  <r_i_glide_esite>  (344) 
-0.00906836

>  <r_i_glide_emodel>  (344) 
-30.37

>  <r_i_glide_energy>  (344) 
-25.3428

>  <r_i_glide_einternal>  (344) 
2.39953

>  <r_i_glide_intrahb_reward>  (344) 
-0

>  <i_i_glide_confnum>  (344) 
1

>  <i_i_glide_posenum>  (344) 
29

>  <r_i_glide_eff_state_penalty>  (344) 
0

>  <ligand_id>  (344) 
88

>  <original_smiles>  (344) 
CCC1C(O)C2C3C(O)C(C)SCC3C3C45CCN(CC6CC6)C6C4C2C(O)C13C65

>  <smiles>  (344) 
[H]OC1([H])C([H])(C([H])([H])[H])SC([H])([H])C2([H])C1([H])C1([H])C([H])(O[H])C([H])(C([H])([H])C([H])([H])[H])C34C([H])(O[H])C1([H])C1([H])C5(C([H])([H])C([H])([H])[N+]([H])(C([H])([H])C6([H])C([H])([H])C6([H])[H])C1([H])C53[H])C24[H]

$$$$
89:0:0
     RDKit          3D

 48 52  0  0  1  0  0  0  0  0999 V2000
    3.7870   -1.3887   -3.9109 C   0  0  0  0  0  0  0  0  0  0  0  0
    4.1235   -2.1629   -2.6464 C   0  0  2  0  0  0  0  0  0  0  0  0
    2.9936   -2.6019   -1.7570 C   0  0  0  0  0  0  0  0  0  0  0  0
    3.9443   -1.5265   -1.2756 C   0  0  1  0  0  0  0  0  0  0  0  0
    4.7978   -1.7104   -0.0176 C   0  0  2  0  0  0  0  0  0  0  0  0
    5.3086   -3.1345    0.1534 C   0  0  0  0  0  0  0  0  0  0  0  0
    4.7600   -3.9957    1.0307 C   0  0  0  0  0  0  0  0  0  0  0  0
    3.5958   -3.6750    1.9416 C   0  0  0  0  0  0  0  0  0  0  0  0
    2.9773   -2.2730    1.7098 C   0  0  1  0  0  0  0  0  0  0  0  0
    2.2345   -1.7065    2.9375 C   0  0  1  0  0  0  0  0  0  0  0  0
    1.1488   -2.5444    3.6389 C   0  0  0  0  0  0  0  0  0  0  0  0
    0.9680   -1.8740    5.0186 C   0  0  0  0  0  0  0  0  0  0  0  0
    2.2498   -1.0656    5.2063 C   0  0  0  0  0  0  0  0  0  0  0  0
    2.4752   -0.3244    6.1558 O   0  0  0  0  0  0  0  0  0  0  0  0
    3.2044   -1.3348    4.0565 C   0  0  2  0  0  0  0  0  0  0  0  0
    4.1661   -0.2305    3.6062 C   0  0  0  0  0  0  0  0  0  0  0  0
    4.9597   -0.7587    2.3893 C   0  0  0  0  0  0  0  0  0  0  0  0
    4.0257   -1.2219    1.2359 C   0  0  1  0  0  0  0  0  0  0  0  0
    6.5069   -3.5341   -0.6911 C   0  0  0  0  0  0  0  0  0  0  0  0
    6.5021   -3.0285   -2.1481 C   0  0  0  0  0  0  0  0  0  0  0  0
    5.1732   -3.1981   -2.8773 C   0  0  0  0  0  0  0  0  0  0  0  0
    5.0073   -4.1075   -3.6872 O   0  0  0  0  0  0  0  0  0  0  0  0
    2.9898   -0.6710   -3.7085 H   0  0  0  0  0  0  0  0  0  0  0  0
    3.4336   -2.0574   -4.6942 H   0  0  0  0  0  0  0  0  0  0  0  0
    4.6460   -0.8339   -4.2749 H   0  0  0  0  0  0  0  0  0  0  0  0
    2.0025   -2.2823   -2.0632 H   0  0  0  0  0  0  0  0  0  0  0  0
    3.0315   -3.5789   -1.2793 H   0  0  0  0  0  0  0  0  0  0  0  0
    3.6005   -0.5062   -1.3611 H   0  0  0  0  0  0  0  0  0  0  0  0
    5.6690   -1.0654   -0.1405 H   0  0  0  0  0  0  0  0  0  0  0  0
    5.1643   -4.9932    1.1274 H   0  0  0  0  0  0  0  0  0  0  0  0
    2.8290   -4.4378    1.8046 H   0  0  0  0  0  0  0  0  0  0  0  0
    3.9718   -3.7801    2.9568 H   0  0  0  0  0  0  0  0  0  0  0  0
    2.2413   -2.3800    0.9093 H   0  0  0  0  0  0  0  0  0  0  0  0
    1.7461   -0.7874    2.5983 H   0  0  0  0  0  0  0  0  0  0  0  0
    0.2171   -2.5532    3.0735 H   0  0  0  0  0  0  0  0  0  0  0  0
    1.4756   -3.5769    3.7734 H   0  0  0  0  0  0  0  0  0  0  0  0
    0.1091   -1.2029    5.0357 H   0  0  0  0  0  0  0  0  0  0  0  0
    0.8514   -2.6068    5.8164 H   0  0  0  0  0  0  0  0  0  0  0  0
    3.7895   -2.2021    4.3600 H   0  0  0  0  0  0  0  0  0  0  0  0
    3.6230    0.6766    3.3350 H   0  0  0  0  0  0  0  0  0  0  0  0
    4.8432    0.0428    4.4153 H   0  0  0  0  0  0  0  0  0  0  0  0
    5.6357    0.0162    2.0303 H   0  0  0  0  0  0  0  0  0  0  0  0
    5.5899   -1.5887    2.7074 H   0  0  0  0  0  0  0  0  0  0  0  0
    3.4749   -0.3301    0.9383 H   0  0  0  0  0  0  0  0  0  0  0  0
    7.4136   -3.1803   -0.1971 H   0  0  0  0  0  0  0  0  0  0  0  0
    6.5561   -4.6241   -0.6880 H   0  0  0  0  0  0  0  0  0  0  0  0
    6.7546   -1.9685   -2.1669 H   0  0  0  0  0  0  0  0  0  0  0  0
    7.2701   -3.5463   -2.7171 H   0  0  0  0  0  0  0  0  0  0  0  0
  2  1  1  6
  1 23  1  0
  1 24  1  0
  1 25  1  0
  2  4  1  0
  2 21  1  0
  2  3  1  0
  3  4  1  0
  3 26  1  0
  3 27  1  0
  4  5  1  0
  4 28  1  6
  5 18  1  0
  5  6  1  0
  5 29  1  6
  6  7  2  0
  6 19  1  0
  7  8  1  0
  7 30  1  0
  8  9  1  0
  8 31  1  0
  8 32  1  0
  9 18  1  0
  9 10  1  0
  9 33  1  6
 10 15  1  0
 10 11  1  0
 10 34  1  6
 11 12  1  0
 11 35  1  0
 11 36  1  0
 12 13  1  0
 12 37  1  0
 12 38  1  0
 13 14  2  0
 13 15  1  0
 15 16  1  0
 15 39  1  1
 16 17  1  0
 16 40  1  0
 16 41  1  0
 17 18  1  0
 17 42  1  0
 17 43  1  0
 18 44  1  6
 19 20  1  0
 19 45  1  0
 19 46  1  0
 20 21  1  0
 20 47  1  0
 20 48  1  0
 21 22  2  0
M  END
>  <i_m_ct_stereo_status>  (345) 
1

>  <s_m_source_file>  (345) 
/var/tmp/pbs.5076255.sched01/tmpg0s73j8k/135j_ekwz2c.sdf

>  <i_m_source_file_index>  (345) 
6

>  <i_lp_mmshare_version>  (345) 
48012

>  <i_f3d_flags>  (345) 
0

>  <s_epik_input>  (345) 
W0NIM11bQ0BAXTEyW0NAQEhdKFtDSDJdMSlbQ0BASF0zQyhbQ0gyXVtDSDJdQzI9Tyk9W0NIXVtDSDJdW0NASF00W0NAQEhdNVtDQEhdKEMoPU8pW0NIMl1bQ0gyXTUpW0NIMl1bQ0gyXVtDQEBIXTM0

>  <s_epik_cmdline>  (345) 
J2VwaWtfcHl0aG9uJywgJy1waHQnLCAnMi4wJywgJy1waCcsICc3LjAnLCAnLXRuJywgJzgnLCAnLW1hJywgJzIwMCcsICctaW1hZScsICc8aW5maWxlLm1hZT4nLCAnLW9tYWUnLCAnPG91dGZpbGUubWFlPic=

>  <r_lp_tautomer_probability>  (345) 
1

>  <r_epik_Ionization_Penalty>  (345) 
1.0722e-13

>  <r_epik_Ionization_Penalty_Charging>  (345) 
0

>  <r_epik_Ionization_Penalty_Neutral>  (345) 
1.0722e-13

>  <r_epik_State_Penalty>  (345) 
-0

>  <r_epik_Charging_Adjusted_Penalty>  (345) 
0

>  <i_epik_Tot_Q>  (345) 
0

>  <i_epik_Tot_abs_Q>  (345) 
0

>  <s_lp_Force_Field>  (345) 
OPLS3e

>  <r_lp_Energy>  (345) 
11.9212

>  <b_lp_Chiralities_Consistent>  (345) 
1

>  <s_lp_Variant>  (345) 
89:0-1

>  <s_i_glide_gridfile>  (345) 
pfpi4k_grid

>  <i_i_glide_lignum>  (345) 
6

>  <i_i_glide_rotatable_bonds>  (345) 
0

>  <r_i_docking_score>  (345) 
-3.55072

>  <r_i_glide_ligand_efficiency>  (345) 
-0.161397

>  <r_i_glide_ligand_efficiency_sa>  (345) 
-0.452239

>  <r_i_glide_ligand_efficiency_ln>  (345) 
-0.867926

>  <r_i_glide_gscore>  (345) 
-3.55072

>  <r_i_glide_lipo>  (345) 
-0.567176

>  <r_i_glide_hbond>  (345) 
0

>  <r_i_glide_metal>  (345) 
-0

>  <r_i_glide_rewards>  (345) 
-1.66743

>  <r_i_glide_evdw>  (345) 
-25.3503

>  <r_i_glide_ecoul>  (345) 
-0.324027

>  <r_i_glide_erotb>  (345) 
0

>  <r_i_glide_esite>  (345) 
0

>  <r_i_glide_emodel>  (345) 
-31.6257

>  <r_i_glide_energy>  (345) 
-25.6743

>  <r_i_glide_einternal>  (345) 
0

>  <r_i_glide_intrahb_reward>  (345) 
-0

>  <i_i_glide_confnum>  (345) 
1

>  <i_i_glide_posenum>  (345) 
27

>  <r_i_glide_eff_state_penalty>  (345) 
0

>  <ligand_id>  (345) 
89

>  <original_smiles>  (345) 
CC12CC1C1C(=CCC3C4CCC(=O)C4CCC31)CCC2=O

>  <smiles>  (345) 
[H]C1=C2C([H])([H])C([H])([H])C(=O)C3(C([H])([H])[H])C([H])([H])C3([H])C2([H])C2([H])C([H])([H])C([H])([H])C3([H])C(=O)C([H])([H])C([H])([H])C3([H])C2([H])C1([H])[H]

$$$$
89:0:1
     RDKit          3D

 48 52  0  0  1  0  0  0  0  0999 V2000
    3.9832   -1.0700   -2.0586 C   0  0  0  0  0  0  0  0  0  0  0  0
    4.3971   -2.2437   -1.2021 C   0  0  2  0  0  0  0  0  0  0  0  0
    3.6089   -3.5210   -1.3192 C   0  0  0  0  0  0  0  0  0  0  0  0
    3.5287   -2.7225   -0.0427 C   0  0  1  0  0  0  0  0  0  0  0  0
    3.9969   -3.3183    1.2909 C   0  0  2  0  0  0  0  0  0  0  0  0
    5.2499   -4.1891    1.1705 C   0  0  0  0  0  0  0  0  0  0  0  0
    5.1937   -5.5333    1.2125 C   0  0  0  0  0  0  0  0  0  0  0  0
    3.9243   -6.3426    1.3686 C   0  0  0  0  0  0  0  0  0  0  0  0
    2.6282   -5.4982    1.3608 C   0  0  1  0  0  0  0  0  0  0  0  0
    1.4400   -6.1790    2.0734 C   0  0  1  0  0  0  0  0  0  0  0  0
    1.0077   -7.5971    1.6744 C   0  0  0  0  0  0  0  0  0  0  0  0
    0.1206   -8.0822    2.8426 C   0  0  0  0  0  0  0  0  0  0  0  0
    0.4943   -7.1501    3.9926 C   0  0  0  0  0  0  0  0  0  0  0  0
   -0.0721   -7.1194    5.0839 O   0  0  0  0  0  0  0  0  0  0  0  0
    1.6416   -6.2453    3.5814 C   0  0  2  0  0  0  0  0  0  0  0  0
    1.7324   -4.8360    4.1800 C   0  0  0  0  0  0  0  0  0  0  0  0
    2.9357   -4.1197    3.5265 C   0  0  0  0  0  0  0  0  0  0  0  0
    2.8289   -4.0794    1.9770 C   0  0  1  0  0  0  0  0  0  0  0  0
    6.5866   -3.4646    1.0629 C   0  0  0  0  0  0  0  0  0  0  0  0
    6.5858   -2.1971    0.1920 C   0  0  0  0  0  0  0  0  0  0  0  0
    5.8931   -2.3998   -1.1464 C   0  0  0  0  0  0  0  0  0  0  0  0
    6.5524   -2.6543   -2.1538 O   0  0  0  0  0  0  0  0  0  0  0  0
    2.8952   -1.0117   -2.0940 H   0  0  0  0  0  0  0  0  0  0  0  0
    4.3472   -1.1720   -3.0814 H   0  0  0  0  0  0  0  0  0  0  0  0
    4.3604   -0.1440   -1.6322 H   0  0  0  0  0  0  0  0  0  0  0  0
    2.7324   -3.5143   -1.9597 H   0  0  0  0  0  0  0  0  0  0  0  0
    4.1618   -4.4588   -1.3074 H   0  0  0  0  0  0  0  0  0  0  0  0
    2.6252   -2.1283    0.0813 H   0  0  0  0  0  0  0  0  0  0  0  0
    4.2535   -2.4707    1.9282 H   0  0  0  0  0  0  0  0  0  0  0  0
    6.1033   -6.1102    1.1602 H   0  0  0  0  0  0  0  0  0  0  0  0
    3.8850   -7.0715    0.5600 H   0  0  0  0  0  0  0  0  0  0  0  0
    4.0268   -6.9006    2.2960 H   0  0  0  0  0  0  0  0  0  0  0  0
    2.3517   -5.3636    0.3122 H   0  0  0  0  0  0  0  0  0  0  0  0
    0.5797   -5.5364    1.8998 H   0  0  0  0  0  0  0  0  0  0  0  0
    0.4711   -7.6083    0.7259 H   0  0  0  0  0  0  0  0  0  0  0  0
    1.8710   -8.2564    1.5768 H   0  0  0  0  0  0  0  0  0  0  0  0
   -0.9438   -7.9806    2.6213 H   0  0  0  0  0  0  0  0  0  0  0  0
    0.3177   -9.1248    3.1011 H   0  0  0  0  0  0  0  0  0  0  0  0
    2.5541   -6.7884    3.8224 H   0  0  0  0  0  0  0  0  0  0  0  0
    0.8157   -4.2709    4.0030 H   0  0  0  0  0  0  0  0  0  0  0  0
    1.8580   -4.8894    5.2615 H   0  0  0  0  0  0  0  0  0  0  0  0
    3.0119   -3.1062    3.9200 H   0  0  0  0  0  0  0  0  0  0  0  0
    3.8530   -4.6322    3.8155 H   0  0  0  0  0  0  0  0  0  0  0  0
    1.9241   -3.5043    1.7771 H   0  0  0  0  0  0  0  0  0  0  0  0
    6.8813   -3.1820    2.0713 H   0  0  0  0  0  0  0  0  0  0  0  0
    7.3446   -4.1605    0.7003 H   0  0  0  0  0  0  0  0  0  0  0  0
    6.0976   -1.3758    0.7186 H   0  0  0  0  0  0  0  0  0  0  0  0
    7.6153   -1.8890    0.0138 H   0  0  0  0  0  0  0  0  0  0  0  0
  2  1  1  6
  1 23  1  0
  1 24  1  0
  1 25  1  0
  2  4  1  0
  2 21  1  0
  2  3  1  0
  3  4  1  0
  3 26  1  0
  3 27  1  0
  4  5  1  0
  4 28  1  1
  5 18  1  0
  5  6  1  0
  5 29  1  1
  6  7  2  0
  6 19  1  0
  7  8  1  0
  7 30  1  0
  8  9  1  0
  8 31  1  0
  8 32  1  0
  9 18  1  0
  9 10  1  0
  9 33  1  6
 10 15  1  0
 10 11  1  0
 10 34  1  1
 11 12  1  0
 11 35  1  0
 11 36  1  0
 12 13  1  0
 12 37  1  0
 12 38  1  0
 13 14  2  0
 13 15  1  0
 15 16  1  0
 15 39  1  6
 16 17  1  0
 16 40  1  0
 16 41  1  0
 17 18  1  0
 17 42  1  0
 17 43  1  0
 18 44  1  1
 19 20  1  0
 19 45  1  0
 19 46  1  0
 20 21  1  0
 20 47  1  0
 20 48  1  0
 21 22  2  0
M  END
>  <i_m_ct_stereo_status>  (346) 
1

>  <s_m_source_file>  (346) 
/var/tmp/pbs.5076255.sched01/tmpg0s73j8k/135j_ekwz2c.sdf

>  <i_m_source_file_index>  (346) 
6

>  <i_lp_mmshare_version>  (346) 
48012

>  <i_f3d_flags>  (346) 
0

>  <s_epik_input>  (346) 
W0NIM11bQ0BAXTEyW0NAQEhdKFtDSDJdMSlbQ0BASF0zQyhbQ0gyXVtDSDJdQzI9Tyk9W0NIXVtDSDJdW0NASF00W0NAQEhdNVtDQEhdKEMoPU8pW0NIMl1bQ0gyXTUpW0NIMl1bQ0gyXVtDQEBIXTM0

>  <s_epik_cmdline>  (346) 
J2VwaWtfcHl0aG9uJywgJy1waHQnLCAnMi4wJywgJy1waCcsICc3LjAnLCAnLXRuJywgJzgnLCAnLW1hJywgJzIwMCcsICctaW1hZScsICc8aW5maWxlLm1hZT4nLCAnLW9tYWUnLCAnPG91dGZpbGUubWFlPic=

>  <r_lp_tautomer_probability>  (346) 
1

>  <r_epik_Ionization_Penalty>  (346) 
1.0722e-13

>  <r_epik_Ionization_Penalty_Charging>  (346) 
0

>  <r_epik_Ionization_Penalty_Neutral>  (346) 
1.0722e-13

>  <r_epik_State_Penalty>  (346) 
-0

>  <r_epik_Charging_Adjusted_Penalty>  (346) 
0

>  <i_epik_Tot_Q>  (346) 
0

>  <i_epik_Tot_abs_Q>  (346) 
0

>  <s_lp_Force_Field>  (346) 
OPLS3e

>  <r_lp_Energy>  (346) 
11.9212

>  <b_lp_Chiralities_Consistent>  (346) 
1

>  <s_lp_Variant>  (346) 
89:0-1

>  <s_i_glide_gridfile>  (346) 
pfpi4k_grid

>  <i_i_glide_lignum>  (346) 
6

>  <i_i_glide_rotatable_bonds>  (346) 
0

>  <r_i_docking_score>  (346) 
-3.13303

>  <r_i_glide_ligand_efficiency>  (346) 
-0.14241

>  <r_i_glide_ligand_efficiency_sa>  (346) 
-0.399039

>  <r_i_glide_ligand_efficiency_ln>  (346) 
-0.765826

>  <r_i_glide_gscore>  (346) 
-3.13303

>  <r_i_glide_lipo>  (346) 
-0.300242

>  <r_i_glide_hbond>  (346) 
-0.00974439

>  <r_i_glide_metal>  (346) 
-0

>  <r_i_glide_rewards>  (346) 
-1.37441

>  <r_i_glide_evdw>  (346) 
-25.7391

>  <r_i_glide_ecoul>  (346) 
-0.716908

>  <r_i_glide_erotb>  (346) 
0

>  <r_i_glide_esite>  (346) 
-0.0541369

>  <r_i_glide_emodel>  (346) 
-31.7367

>  <r_i_glide_energy>  (346) 
-26.456

>  <r_i_glide_einternal>  (346) 
0

>  <r_i_glide_intrahb_reward>  (346) 
-0

>  <i_i_glide_confnum>  (346) 
1

>  <i_i_glide_posenum>  (346) 
15

>  <r_i_glide_eff_state_penalty>  (346) 
0

>  <ligand_id>  (346) 
89

>  <original_smiles>  (346) 
CC12CC1C1C(=CCC3C4CCC(=O)C4CCC31)CCC2=O

>  <smiles>  (346) 
[H]C1=C2C([H])([H])C([H])([H])C(=O)C3(C([H])([H])[H])C([H])([H])C3([H])C2([H])C2([H])C([H])([H])C([H])([H])C3([H])C(=O)C([H])([H])C([H])([H])C3([H])C2([H])C1([H])[H]

$$$$
89:0:2
     RDKit          3D

 48 52  0  0  1  0  0  0  0  0999 V2000
    3.5721   -2.2810   -2.7327 C   0  0  0  0  0  0  0  0  0  0  0  0
    4.0223   -2.6946   -1.3406 C   0  0  2  0  0  0  0  0  0  0  0  0
    4.6527   -4.0577   -1.1686 C   0  0  0  0  0  0  0  0  0  0  0  0
    3.2825   -3.7942   -0.5845 C   0  0  1  0  0  0  0  0  0  0  0  0
    3.0331   -3.8917    0.9273 C   0  0  2  0  0  0  0  0  0  0  0  0
    4.1910   -3.3610    1.7698 C   0  0  0  0  0  0  0  0  0  0  0  0
    5.0467   -4.1868    2.3999 C   0  0  0  0  0  0  0  0  0  0  0  0
    4.9916   -5.7004    2.3522 C   0  0  0  0  0  0  0  0  0  0  0  0
    3.9064   -6.2666    1.4019 C   0  0  1  0  0  0  0  0  0  0  0  0
    3.4467   -7.6976    1.7550 C   0  0  1  0  0  0  0  0  0  0  0  0
    4.4832   -8.8217    1.9288 C   0  0  0  0  0  0  0  0  0  0  0  0
    3.7277   -9.9309    2.6957 C   0  0  0  0  0  0  0  0  0  0  0  0
    2.5345   -9.2117    3.3140 C   0  0  0  0  0  0  0  0  0  0  0  0
    1.6322   -9.7533    3.9445 O   0  0  0  0  0  0  0  0  0  0  0  0
    2.6387   -7.7225    3.0505 C   0  0  2  0  0  0  0  0  0  0  0  0
    1.3565   -6.8955    2.9150 C   0  0  0  0  0  0  0  0  0  0  0  0
    1.7690   -5.4419    2.5930 C   0  0  0  0  0  0  0  0  0  0  0  0
    2.6521   -5.3484    1.3143 C   0  0  1  0  0  0  0  0  0  0  0  0
    4.3046   -1.8462    1.9189 C   0  0  0  0  0  0  0  0  0  0  0  0
    4.0035   -1.0262    0.6459 C   0  0  0  0  0  0  0  0  0  0  0  0
    4.6954   -1.5734   -0.5997 C   0  0  0  0  0  0  0  0  0  0  0  0
    5.7691   -1.1060   -0.9808 O   0  0  0  0  0  0  0  0  0  0  0  0
    3.1220   -3.1317   -3.2465 H   0  0  0  0  0  0  0  0  0  0  0  0
    4.4153   -1.9401   -3.3325 H   0  0  0  0  0  0  0  0  0  0  0  0
    2.8259   -1.4901   -2.6773 H   0  0  0  0  0  0  0  0  0  0  0  0
    4.6998   -4.6918   -2.0479 H   0  0  0  0  0  0  0  0  0  0  0  0
    5.4938   -4.1649   -0.4870 H   0  0  0  0  0  0  0  0  0  0  0  0
    2.4437   -4.1974   -1.1469 H   0  0  0  0  0  0  0  0  0  0  0  0
    2.1749   -3.2527    1.1357 H   0  0  0  0  0  0  0  0  0  0  0  0
    5.8312   -3.7701    3.0122 H   0  0  0  0  0  0  0  0  0  0  0  0
    5.9686   -6.0732    2.0449 H   0  0  0  0  0  0  0  0  0  0  0  0
    4.8376   -6.0360    3.3762 H   0  0  0  0  0  0  0  0  0  0  0  0
    4.3506   -6.3115    0.4054 H   0  0  0  0  0  0  0  0  0  0  0  0
    2.7842   -8.0171    0.9466 H   0  0  0  0  0  0  0  0  0  0  0  0
    4.8625   -9.1793    0.9703 H   0  0  0  0  0  0  0  0  0  0  0  0
    5.3320   -8.4804    2.5239 H   0  0  0  0  0  0  0  0  0  0  0  0
    3.3654  -10.7101    2.0259 H   0  0  0  0  0  0  0  0  0  0  0  0
    4.3473  -10.3985    3.4614 H   0  0  0  0  0  0  0  0  0  0  0  0
    3.2243   -7.3210    3.8770 H   0  0  0  0  0  0  0  0  0  0  0  0
    0.7160   -7.2965    2.1281 H   0  0  0  0  0  0  0  0  0  0  0  0
    0.7790   -6.9339    3.8387 H   0  0  0  0  0  0  0  0  0  0  0  0
    0.8759   -4.8299    2.4845 H   0  0  0  0  0  0  0  0  0  0  0  0
    2.3098   -5.0251    3.4431 H   0  0  0  0  0  0  0  0  0  0  0  0
    2.0303   -5.7403    0.5081 H   0  0  0  0  0  0  0  0  0  0  0  0
    3.6163   -1.5349    2.7070 H   0  0  0  0  0  0  0  0  0  0  0  0
    5.3067   -1.5988    2.2773 H   0  0  0  0  0  0  0  0  0  0  0  0
    2.9268   -1.0056    0.4633 H   0  0  0  0  0  0  0  0  0  0  0  0
    4.3125    0.0085    0.7982 H   0  0  0  0  0  0  0  0  0  0  0  0
  2  1  1  6
  1 23  1  0
  1 24  1  0
  1 25  1  0
  2  4  1  0
  2 21  1  0
  2  3  1  0
  3  4  1  0
  3 26  1  0
  3 27  1  0
  4  5  1  0
  4 28  1  6
  5 18  1  0
  5  6  1  0
  5 29  1  6
  6  7  2  0
  6 19  1  0
  7  8  1  0
  7 30  1  0
  8  9  1  0
  8 31  1  0
  8 32  1  0
  9 18  1  0
  9 10  1  0
  9 33  1  6
 10 15  1  0
 10 11  1  0
 10 34  1  6
 11 12  1  0
 11 35  1  0
 11 36  1  0
 12 13  1  0
 12 37  1  0
 12 38  1  0
 13 14  2  0
 13 15  1  0
 15 16  1  0
 15 39  1  1
 16 17  1  0
 16 40  1  0
 16 41  1  0
 17 18  1  0
 17 42  1  0
 17 43  1  0
 18 44  1  6
 19 20  1  0
 19 45  1  0
 19 46  1  0
 20 21  1  0
 20 47  1  0
 20 48  1  0
 21 22  2  0
M  END
>  <i_m_ct_stereo_status>  (347) 
1

>  <s_m_source_file>  (347) 
/var/tmp/pbs.5076255.sched01/tmpg0s73j8k/135j_ekwz2c.sdf

>  <i_m_source_file_index>  (347) 
6

>  <i_lp_mmshare_version>  (347) 
48012

>  <i_f3d_flags>  (347) 
0

>  <s_epik_input>  (347) 
W0NIM11bQ0BAXTEyW0NAQEhdKFtDSDJdMSlbQ0BASF0zQyhbQ0gyXVtDSDJdQzI9Tyk9W0NIXVtDSDJdW0NASF00W0NAQEhdNVtDQEhdKEMoPU8pW0NIMl1bQ0gyXTUpW0NIMl1bQ0gyXVtDQEBIXTM0

>  <s_epik_cmdline>  (347) 
J2VwaWtfcHl0aG9uJywgJy1waHQnLCAnMi4wJywgJy1waCcsICc3LjAnLCAnLXRuJywgJzgnLCAnLW1hJywgJzIwMCcsICctaW1hZScsICc8aW5maWxlLm1hZT4nLCAnLW9tYWUnLCAnPG91dGZpbGUubWFlPic=

>  <r_lp_tautomer_probability>  (347) 
1

>  <r_epik_Ionization_Penalty>  (347) 
1.0722e-13

>  <r_epik_Ionization_Penalty_Charging>  (347) 
0

>  <r_epik_Ionization_Penalty_Neutral>  (347) 
1.0722e-13

>  <r_epik_State_Penalty>  (347) 
-0

>  <r_epik_Charging_Adjusted_Penalty>  (347) 
0

>  <i_epik_Tot_Q>  (347) 
0

>  <i_epik_Tot_abs_Q>  (347) 
0

>  <s_lp_Force_Field>  (347) 
OPLS3e

>  <r_lp_Energy>  (347) 
11.9212

>  <b_lp_Chiralities_Consistent>  (347) 
1

>  <s_lp_Variant>  (347) 
89:0-1

>  <s_i_glide_gridfile>  (347) 
pfpi4k_grid

>  <i_i_glide_lignum>  (347) 
6

>  <i_i_glide_rotatable_bonds>  (347) 
0

>  <r_i_docking_score>  (347) 
-3.10859

>  <r_i_glide_ligand_efficiency>  (347) 
-0.141299

>  <r_i_glide_ligand_efficiency_sa>  (347) 
-0.395927

>  <r_i_glide_ligand_efficiency_ln>  (347) 
-0.759852

>  <r_i_glide_gscore>  (347) 
-3.10859

>  <r_i_glide_lipo>  (347) 
-0.123847

>  <r_i_glide_hbond>  (347) 
-0.0510797

>  <r_i_glide_metal>  (347) 
-0

>  <r_i_glide_rewards>  (347) 
-1.37441

>  <r_i_glide_evdw>  (347) 
-24.926

>  <r_i_glide_ecoul>  (347) 
-1.82074

>  <r_i_glide_erotb>  (347) 
0

>  <r_i_glide_esite>  (347) 
-0.039835

>  <r_i_glide_emodel>  (347) 
-32.0099

>  <r_i_glide_energy>  (347) 
-26.7468

>  <r_i_glide_einternal>  (347) 
0

>  <r_i_glide_intrahb_reward>  (347) 
-0

>  <i_i_glide_confnum>  (347) 
2

>  <i_i_glide_posenum>  (347) 
19

>  <r_i_glide_eff_state_penalty>  (347) 
0

>  <ligand_id>  (347) 
89

>  <original_smiles>  (347) 
CC12CC1C1C(=CCC3C4CCC(=O)C4CCC31)CCC2=O

>  <smiles>  (347) 
[H]C1=C2C([H])([H])C([H])([H])C(=O)C3(C([H])([H])[H])C([H])([H])C3([H])C2([H])C2([H])C([H])([H])C([H])([H])C3([H])C(=O)C([H])([H])C([H])([H])C3([H])C2([H])C1([H])[H]

$$$$
90:0:0
     RDKit          3D

 30 32  0  0  1  0  0  0  0  0999 V2000
    3.5300    1.0412   -5.1189 C   0  0  0  0  0  0  0  0  0  0  0  0
    2.7174    0.0391   -4.3209 C   0  0  0  0  0  0  0  0  0  0  0  0
    3.4451   -0.4150   -3.1878 O   0  0  0  0  0  0  0  0  0  0  0  0
    4.1222   -1.5678   -3.2230 C   0  0  0  0  0  0  0  0  0  0  0  0
    4.2184   -2.3074   -4.2022 O   0  0  0  0  0  0  0  0  0  0  0  0
    4.7740   -1.8915   -1.8605 C   0  0  2  0  0  0  0  0  0  0  0  0
    5.4149   -3.2715   -1.7447 C   0  0  0  0  0  0  0  0  0  0  0  0
    4.4684   -4.0640   -1.1180 C   0  0  0  0  0  0  0  0  0  0  0  0
    3.1462   -3.3427   -1.1449 C   0  0  0  0  0  0  0  0  0  0  0  0
    3.8650   -2.0980   -0.6074 C   0  0  1  0  0  0  0  0  0  0  0  0
    4.7950   -2.6402    0.5826 C   0  0  0  0  0  0  0  0  0  0  0  0
    6.1096   -2.3435    0.4193 C   0  0  0  0  0  0  0  0  0  0  0  0
    6.6720   -2.9361   -0.9068 C   0  0  0  0  0  0  0  0  0  0  0  0
    4.6454   -4.1699    0.3999 C   0  0  0  0  0  0  0  0  0  0  0  0
    3.5062   -4.6990    1.1791 C   0  0  0  0  0  0  0  0  0  0  0  0
    2.6076   -5.1135    1.7844 N   0  0  0  0  0  0  0  0  0  0  0  0
    5.7810   -5.0327    0.7995 C   0  0  0  0  0  0  0  0  0  0  0  0
    6.6633   -5.7126    1.1164 N   0  0  0  0  0  0  0  0  0  0  0  0
    2.9424    1.4114   -5.9585 H   0  0  0  0  0  0  0  0  0  0  0  0
    4.4446    0.5991   -5.5038 H   0  0  0  0  0  0  0  0  0  0  0  0
    3.8072    1.8947   -4.4973 H   0  0  0  0  0  0  0  0  0  0  0  0
    1.8240    0.5426   -3.9638 H   0  0  0  0  0  0  0  0  0  0  0  0
    2.3860   -0.7800   -4.9599 H   0  0  0  0  0  0  0  0  0  0  0  0
    5.4912   -1.0863   -1.6978 H   0  0  0  0  0  0  0  0  0  0  0  0
    2.7051   -3.3111   -2.1389 H   0  0  0  0  0  0  0  0  0  0  0  0
    2.3334   -3.6927   -0.5147 H   0  0  0  0  0  0  0  0  0  0  0  0
    3.2258   -1.2458   -0.3648 H   0  0  0  0  0  0  0  0  0  0  0  0
    6.3858   -1.3034    0.5260 H   0  0  0  0  0  0  0  0  0  0  0  0
    7.2924   -3.8135   -0.7396 H   0  0  0  0  0  0  0  0  0  0  0  0
    7.2991   -2.2113   -1.4199 H   0  0  0  0  0  0  0  0  0  0  0  0
  1  2  1  0
  1 19  1  0
  1 20  1  0
  1 21  1  0
  2  3  1  0
  2 22  1  0
  2 23  1  0
  3  4  1  0
  4  5  2  0
  4  6  1  0
  6 10  1  0
  6  7  1  0
  6 24  1  1
  7 13  1  0
  7  8  2  0
  8 14  1  0
  8  9  1  0
  9 10  1  0
  9 25  1  0
  9 26  1  0
 10 11  1  0
 10 27  1  1
 11 12  2  0
 11 14  1  0
 12 13  1  0
 12 28  1  0
 13 29  1  0
 13 30  1  0
 14 15  1  0
 14 17  1  0
 15 16  3  0
 17 18  3  0
M  END
>  <i_m_ct_stereo_status>  (348) 
1

>  <s_m_source_file>  (348) 
/var/tmp/pbs.5076255.sched01/tmpg0s73j8k/135j_ekwz2c.sdf

>  <i_m_source_file_index>  (348) 
7

>  <i_lp_mmshare_version>  (348) 
48012

>  <i_f3d_flags>  (348) 
0

>  <s_epik_input>  (348) 
W0NIM11bQ0gyXU9DKD1PKVtDQEhdMVtDQEBIXShbQ0gyXUMyPUMxMylDKD1bQ0hdW0NIMl0zKUMyKEMjTilDI04=

>  <s_epik_cmdline>  (348) 
J2VwaWtfcHl0aG9uJywgJy1waHQnLCAnMi4wJywgJy1waCcsICc3LjAnLCAnLXRuJywgJzgnLCAnLW1hJywgJzIwMCcsICctaW1hZScsICc8aW5maWxlLm1hZT4nLCAnLW9tYWUnLCAnPG91dGZpbGUubWFlPic=

>  <r_lp_tautomer_probability>  (348) 
1

>  <r_epik_Ionization_Penalty>  (348) 
0

>  <r_epik_Ionization_Penalty_Charging>  (348) 
0

>  <r_epik_Ionization_Penalty_Neutral>  (348) 
0

>  <r_epik_State_Penalty>  (348) 
-0

>  <r_epik_Charging_Adjusted_Penalty>  (348) 
0

>  <i_epik_Tot_Q>  (348) 
0

>  <i_epik_Tot_abs_Q>  (348) 
0

>  <s_epik_Chemistry_Notes>  (348) 
This compound has an ester and may undergo hydrolysis at high or low pH.

>  <s_lp_Force_Field>  (348) 
OPLS3e

>  <r_lp_Energy>  (348) 
169.059

>  <b_lp_Chiralities_Consistent>  (348) 
1

>  <s_lp_Variant>  (348) 
90:0-1

>  <s_i_glide_gridfile>  (348) 
pfpi4k_grid

>  <i_i_glide_lignum>  (348) 
7

>  <i_i_glide_rotatable_bonds>  (348) 
5

>  <r_i_docking_score>  (348) 
-3.84188

>  <r_i_glide_ligand_efficiency>  (348) 
-0.213438

>  <r_i_glide_ligand_efficiency_sa>  (348) 
-0.559365

>  <r_i_glide_ligand_efficiency_ln>  (348) 
-0.987536

>  <r_i_glide_gscore>  (348) 
-3.84188

>  <r_i_glide_lipo>  (348) 
-0.394604

>  <r_i_glide_hbond>  (348) 
-0.32

>  <r_i_glide_metal>  (348) 
-0

>  <r_i_glide_rewards>  (348) 
-2.04419

>  <r_i_glide_evdw>  (348) 
-24.4556

>  <r_i_glide_ecoul>  (348) 
-3.06471

>  <r_i_glide_erotb>  (348) 
0.599394

>  <r_i_glide_esite>  (348) 
0

>  <r_i_glide_emodel>  (348) 
-31.9685

>  <r_i_glide_energy>  (348) 
-27.5203

>  <r_i_glide_einternal>  (348) 
4.0448

>  <r_i_glide_intrahb_reward>  (348) 
-0

>  <i_i_glide_confnum>  (348) 
1

>  <i_i_glide_posenum>  (348) 
2

>  <r_i_glide_eff_state_penalty>  (348) 
0

>  <ligand_id>  (348) 
90

>  <original_smiles>  (348) 
CCOC(=O)C1C2=C3CC1C(=CC2)C3(C#N)C#N

>  <smiles>  (348) 
[H]C1=C2C(C#N)(C#N)C3=C(C1([H])[H])C([H])(C(=O)OC([H])([H])C([H])([H])[H])C2([H])C3([H])[H]

$$$$
90:0:1
     RDKit          3D

 30 32  0  0  1  0  0  0  0  0999 V2000
    2.4268    0.6052   -5.1181 C   0  0  0  0  0  0  0  0  0  0  0  0
    3.8088    0.8190   -4.5159 C   0  0  0  0  0  0  0  0  0  0  0  0
    3.9839    0.1282   -3.2887 O   0  0  0  0  0  0  0  0  0  0  0  0
    4.2414   -1.1824   -3.2744 C   0  0  0  0  0  0  0  0  0  0  0  0
    4.2070   -1.9242   -4.2574 O   0  0  0  0  0  0  0  0  0  0  0  0
    4.7282   -1.6566   -1.8869 C   0  0  2  0  0  0  0  0  0  0  0  0
    5.3822   -3.0319   -1.8476 C   0  0  0  0  0  0  0  0  0  0  0  0
    4.3791   -3.8858   -1.4142 C   0  0  0  0  0  0  0  0  0  0  0  0
    3.0560   -3.1731   -1.5021 C   0  0  0  0  0  0  0  0  0  0  0  0
    3.6956   -1.9932   -0.7631 C   0  0  1  0  0  0  0  0  0  0  0  0
    4.4982   -2.6624    0.4596 C   0  0  0  0  0  0  0  0  0  0  0  0
    5.8236   -2.3439    0.4688 C   0  0  0  0  0  0  0  0  0  0  0  0
    6.5350   -2.7878   -0.8456 C   0  0  0  0  0  0  0  0  0  0  0  0
    4.3954   -4.1645    0.0980 C   0  0  0  0  0  0  0  0  0  0  0  0
    3.1856   -4.7882    0.6809 C   0  0  0  0  0  0  0  0  0  0  0  0
    2.2388   -5.2758    1.1350 N   0  0  0  0  0  0  0  0  0  0  0  0
    5.4899   -5.0596    0.5259 C   0  0  0  0  0  0  0  0  0  0  0  0
    6.3460   -5.7676    0.8699 N   0  0  0  0  0  0  0  0  0  0  0  0
    2.3364    1.1795   -6.0359 H   0  0  0  0  0  0  0  0  0  0  0  0
    1.6452    0.9461   -4.4440 H   0  0  0  0  0  0  0  0  0  0  0  0
    2.2411   -0.4452   -5.3203 H   0  0  0  0  0  0  0  0  0  0  0  0
    4.6010    0.5460   -5.2154 H   0  0  0  0  0  0  0  0  0  0  0  0
    3.9308    1.8788   -4.3043 H   0  0  0  0  0  0  0  0  0  0  0  0
    5.4105   -0.8718   -1.5562 H   0  0  0  0  0  0  0  0  0  0  0  0
    2.7145   -3.0401   -2.5270 H   0  0  0  0  0  0  0  0  0  0  0  0
    2.1901   -3.5964   -0.9989 H   0  0  0  0  0  0  0  0  0  0  0  0
    3.0235   -1.1729   -0.5018 H   0  0  0  0  0  0  0  0  0  0  0  0
    6.0721   -1.3222    0.7194 H   0  0  0  0  0  0  0  0  0  0  0  0
    7.1511   -3.6743   -0.7068 H   0  0  0  0  0  0  0  0  0  0  0  0
    7.2023   -2.0012   -1.1934 H   0  0  0  0  0  0  0  0  0  0  0  0
  1  2  1  0
  1 19  1  0
  1 20  1  0
  1 21  1  0
  2  3  1  0
  2 22  1  0
  2 23  1  0
  3  4  1  0
  4  5  2  0
  4  6  1  0
  6 10  1  0
  6  7  1  0
  6 24  1  1
  7 13  1  0
  7  8  2  0
  8 14  1  0
  8  9  1  0
  9 10  1  0
  9 25  1  0
  9 26  1  0
 10 11  1  0
 10 27  1  1
 11 12  2  0
 11 14  1  0
 12 13  1  0
 12 28  1  0
 13 29  1  0
 13 30  1  0
 14 15  1  0
 14 17  1  0
 15 16  3  0
 17 18  3  0
M  END
>  <i_m_ct_stereo_status>  (349) 
1

>  <s_m_source_file>  (349) 
/var/tmp/pbs.5076255.sched01/tmpg0s73j8k/135j_ekwz2c.sdf

>  <i_m_source_file_index>  (349) 
7

>  <i_lp_mmshare_version>  (349) 
48012

>  <i_f3d_flags>  (349) 
0

>  <s_epik_input>  (349) 
W0NIM11bQ0gyXU9DKD1PKVtDQEhdMVtDQEBIXShbQ0gyXUMyPUMxMylDKD1bQ0hdW0NIMl0zKUMyKEMjTilDI04=

>  <s_epik_cmdline>  (349) 
J2VwaWtfcHl0aG9uJywgJy1waHQnLCAnMi4wJywgJy1waCcsICc3LjAnLCAnLXRuJywgJzgnLCAnLW1hJywgJzIwMCcsICctaW1hZScsICc8aW5maWxlLm1hZT4nLCAnLW9tYWUnLCAnPG91dGZpbGUubWFlPic=

>  <r_lp_tautomer_probability>  (349) 
1

>  <r_epik_Ionization_Penalty>  (349) 
0

>  <r_epik_Ionization_Penalty_Charging>  (349) 
0

>  <r_epik_Ionization_Penalty_Neutral>  (349) 
0

>  <r_epik_State_Penalty>  (349) 
-0

>  <r_epik_Charging_Adjusted_Penalty>  (349) 
0

>  <i_epik_Tot_Q>  (349) 
0

>  <i_epik_Tot_abs_Q>  (349) 
0

>  <s_epik_Chemistry_Notes>  (349) 
This compound has an ester and may undergo hydrolysis at high or low pH.

>  <s_lp_Force_Field>  (349) 
OPLS3e

>  <r_lp_Energy>  (349) 
169.059

>  <b_lp_Chiralities_Consistent>  (349) 
1

>  <s_lp_Variant>  (349) 
90:0-1

>  <s_i_glide_gridfile>  (349) 
pfpi4k_grid

>  <i_i_glide_lignum>  (349) 
7

>  <i_i_glide_rotatable_bonds>  (349) 
5

>  <r_i_docking_score>  (349) 
-3.80404

>  <r_i_glide_ligand_efficiency>  (349) 
-0.211335

>  <r_i_glide_ligand_efficiency_sa>  (349) 
-0.553855

>  <r_i_glide_ligand_efficiency_ln>  (349) 
-0.977808

>  <r_i_glide_gscore>  (349) 
-3.80404

>  <r_i_glide_lipo>  (349) 
-0.247407

>  <r_i_glide_hbond>  (349) 
-0.322978

>  <r_i_glide_metal>  (349) 
-0

>  <r_i_glide_rewards>  (349) 
-2.04819

>  <r_i_glide_evdw>  (349) 
-24.169

>  <r_i_glide_ecoul>  (349) 
-3.76394

>  <r_i_glide_erotb>  (349) 
0.599394

>  <r_i_glide_esite>  (349) 
-0.0118158

>  <r_i_glide_emodel>  (349) 
-31.4409

>  <r_i_glide_energy>  (349) 
-27.933

>  <r_i_glide_einternal>  (349) 
5.68585

>  <r_i_glide_intrahb_reward>  (349) 
-0

>  <i_i_glide_confnum>  (349) 
5

>  <i_i_glide_posenum>  (349) 
34

>  <r_i_glide_eff_state_penalty>  (349) 
0

>  <ligand_id>  (349) 
90

>  <original_smiles>  (349) 
CCOC(=O)C1C2=C3CC1C(=CC2)C3(C#N)C#N

>  <smiles>  (349) 
[H]C1=C2C(C#N)(C#N)C3=C(C1([H])[H])C([H])(C(=O)OC([H])([H])C([H])([H])[H])C2([H])C3([H])[H]

$$$$
90:0:2
     RDKit          3D

 30 32  0  0  1  0  0  0  0  0999 V2000
    0.7158   -2.3730    8.1573 C   0  0  0  0  0  0  0  0  0  0  0  0
    0.6223   -3.0667    6.7945 C   0  0  0  0  0  0  0  0  0  0  0  0
    0.8281   -2.1243    5.7449 O   0  0  0  0  0  0  0  0  0  0  0  0
   -0.2247   -1.4744    5.2065 C   0  0  0  0  0  0  0  0  0  0  0  0
   -1.4002   -1.6550    5.5338 O   0  0  0  0  0  0  0  0  0  0  0  0
    0.1681   -0.4700    4.0950 C   0  0  2  0  0  0  0  0  0  0  0  0
    1.1543    0.6321    4.4893 C   0  0  0  0  0  0  0  0  0  0  0  0
    0.3781    1.7577    4.7344 C   0  0  0  0  0  0  0  0  0  0  0  0
   -1.0579    1.3287    4.8532 C   0  0  0  0  0  0  0  0  0  0  0  0
   -0.8778    0.5497    3.5451 C   0  0  1  0  0  0  0  0  0  0  0  0
   -0.1198    1.5641    2.5558 C   0  0  0  0  0  0  0  0  0  0  0  0
    1.0489    1.0667    2.0741 C   0  0  0  0  0  0  0  0  0  0  0  0
    2.0390    0.6932    3.2179 C   0  0  0  0  0  0  0  0  0  0  0  0
    0.2389    2.7113    3.5326 C   0  0  0  0  0  0  0  0  0  0  0  0
   -0.8290    3.7353    3.6036 C   0  0  0  0  0  0  0  0  0  0  0  0
   -1.6665    4.5340    3.6729 N   0  0  0  0  0  0  0  0  0  0  0  0
    1.4725    3.4946    3.2841 C   0  0  0  0  0  0  0  0  0  0  0  0
    2.4343    4.1148    3.1019 N   0  0  0  0  0  0  0  0  0  0  0  0
    0.5848   -3.0883    8.9670 H   0  0  0  0  0  0  0  0  0  0  0  0
   -0.0430   -1.5992    8.2674 H   0  0  0  0  0  0  0  0  0  0  0  0
    1.6889   -1.9020    8.2864 H   0  0  0  0  0  0  0  0  0  0  0  0
    1.3862   -3.8384    6.7177 H   0  0  0  0  0  0  0  0  0  0  0  0
   -0.3357   -3.5795    6.6911 H   0  0  0  0  0  0  0  0  0  0  0  0
    0.5542   -1.0987    3.2927 H   0  0  0  0  0  0  0  0  0  0  0  0
   -1.2452    0.7902    5.7788 H   0  0  0  0  0  0  0  0  0  0  0  0
   -1.8500    2.0733    4.8128 H   0  0  0  0  0  0  0  0  0  0  0  0
   -1.7820    0.1046    3.1402 H   0  0  0  0  0  0  0  0  0  0  0  0
    0.9779    0.2722    1.3418 H   0  0  0  0  0  0  0  0  0  0  0  0
    2.8481    1.4153    3.3180 H   0  0  0  0  0  0  0  0  0  0  0  0
    2.5034   -0.2705    3.0095 H   0  0  0  0  0  0  0  0  0  0  0  0
  1  2  1  0
  1 19  1  0
  1 20  1  0
  1 21  1  0
  2  3  1  0
  2 22  1  0
  2 23  1  0
  3  4  1  0
  4  5  2  0
  4  6  1  0
  6 10  1  0
  6  7  1  0
  6 24  1  6
  7 13  1  0
  7  8  2  0
  8 14  1  0
  8  9  1  0
  9 10  1  0
  9 25  1  0
  9 26  1  0
 10 11  1  0
 10 27  1  6
 11 12  2  0
 11 14  1  0
 12 13  1  0
 12 28  1  0
 13 29  1  0
 13 30  1  0
 14 15  1  0
 14 17  1  0
 15 16  3  0
 17 18  3  0
M  END
>  <i_m_ct_stereo_status>  (350) 
1

>  <s_m_source_file>  (350) 
/var/tmp/pbs.5076255.sched01/tmpg0s73j8k/135j_ekwz2c.sdf

>  <i_m_source_file_index>  (350) 
7

>  <i_lp_mmshare_version>  (350) 
48012

>  <i_f3d_flags>  (350) 
0

>  <s_epik_input>  (350) 
W0NIM11bQ0gyXU9DKD1PKVtDQEhdMVtDQEBIXShbQ0gyXUMyPUMxMylDKD1bQ0hdW0NIMl0zKUMyKEMjTilDI04=

>  <s_epik_cmdline>  (350) 
J2VwaWtfcHl0aG9uJywgJy1waHQnLCAnMi4wJywgJy1waCcsICc3LjAnLCAnLXRuJywgJzgnLCAnLW1hJywgJzIwMCcsICctaW1hZScsICc8aW5maWxlLm1hZT4nLCAnLW9tYWUnLCAnPG91dGZpbGUubWFlPic=

>  <r_lp_tautomer_probability>  (350) 
1

>  <r_epik_Ionization_Penalty>  (350) 
0

>  <r_epik_Ionization_Penalty_Charging>  (350) 
0

>  <r_epik_Ionization_Penalty_Neutral>  (350) 
0

>  <r_epik_State_Penalty>  (350) 
-0

>  <r_epik_Charging_Adjusted_Penalty>  (350) 
0

>  <i_epik_Tot_Q>  (350) 
0

>  <i_epik_Tot_abs_Q>  (350) 
0

>  <s_epik_Chemistry_Notes>  (350) 
This compound has an ester and may undergo hydrolysis at high or low pH.

>  <s_lp_Force_Field>  (350) 
OPLS3e

>  <r_lp_Energy>  (350) 
169.059

>  <b_lp_Chiralities_Consistent>  (350) 
1

>  <s_lp_Variant>  (350) 
90:0-1

>  <s_i_glide_gridfile>  (350) 
pfpi4k_grid

>  <i_i_glide_lignum>  (350) 
7

>  <i_i_glide_rotatable_bonds>  (350) 
5

>  <r_i_docking_score>  (350) 
-3.26827

>  <r_i_glide_ligand_efficiency>  (350) 
-0.18157

>  <r_i_glide_ligand_efficiency_sa>  (350) 
-0.475849

>  <r_i_glide_ligand_efficiency_ln>  (350) 
-0.840091

>  <r_i_glide_gscore>  (350) 
-3.26827

>  <r_i_glide_lipo>  (350) 
0

>  <r_i_glide_hbond>  (350) 
-0.16

>  <r_i_glide_metal>  (350) 
-0

>  <r_i_glide_rewards>  (350) 
-1.77097

>  <r_i_glide_evdw>  (350) 
-18.3769

>  <r_i_glide_ecoul>  (350) 
-5.53258

>  <r_i_glide_erotb>  (350) 
0.599394

>  <r_i_glide_esite>  (350) 
-0.187956

>  <r_i_glide_emodel>  (350) 
-27.1687

>  <r_i_glide_energy>  (350) 
-23.9094

>  <r_i_glide_einternal>  (350) 
4.45879

>  <r_i_glide_intrahb_reward>  (350) 
-0

>  <i_i_glide_confnum>  (350) 
6

>  <i_i_glide_posenum>  (350) 
11

>  <r_i_glide_eff_state_penalty>  (350) 
0

>  <ligand_id>  (350) 
90

>  <original_smiles>  (350) 
CCOC(=O)C1C2=C3CC1C(=CC2)C3(C#N)C#N

>  <smiles>  (350) 
[H]C1=C2C(C#N)(C#N)C3=C(C1([H])[H])C([H])(C(=O)OC([H])([H])C([H])([H])[H])C2([H])C3([H])[H]

$$$$
91:0:0
     RDKit          3D

 43 45  0  0  1  0  0  0  0  0999 V2000
    0.3144  -10.3842    3.7784 C   0  0  0  0  0  0  0  0  0  0  0  0
    0.0135   -9.0727    3.2217 N   0  0  0  0  0  0  0  0  0  0  0  0
   -1.2009   -8.5419    2.9930 C   0  0  0  0  0  0  0  0  0  0  0  0
   -1.1881   -7.3092    2.4865 N   0  0  0  0  0  0  0  0  0  0  0  0
    0.1513   -7.0035    2.3537 N   0  0  0  0  0  0  0  0  0  0  0  0
    0.8268   -8.0760    2.8031 C   0  0  0  0  0  0  0  0  0  0  0  0
    2.3338   -8.1564    2.8552 C   0  0  0  0  0  0  0  0  0  0  0  0
    2.9259   -7.0703    3.7568 C   0  0  0  0  0  0  0  0  0  0  0  0
    4.4652   -7.0785    3.7620 C   0  0  0  0  0  0  0  0  0  0  0  0
    5.0381   -7.0889    2.4003 N   0  0  0  0  0  0  0  0  0  0  0  0
    6.0897   -5.8223    1.8426 S   0  0  0  0  0  0  0  0  0  0  0  0
    6.5912   -5.1162    3.0249 O   0  0  0  0  0  0  0  0  0  0  0  0
    7.0410   -6.4037    0.8782 O   0  0  0  0  0  0  0  0  0  0  0  0
    5.0044   -4.7005    0.9729 C   0  0  0  0  0  0  0  0  0  0  0  0
    3.8597   -4.2183    1.6296 C   0  0  0  0  0  0  0  0  0  0  0  0
    2.9910   -3.3459    0.9580 C   0  0  0  0  0  0  0  0  0  0  0  0
    3.2798   -2.9357   -0.3507 C   0  0  0  0  0  0  0  0  0  0  0  0
    4.4246   -3.4208   -1.0320 C   0  0  0  0  0  0  0  0  0  0  0  0
    4.7633   -3.0637   -2.3175 O   0  0  0  0  0  0  0  0  0  0  0  0
    3.8519   -2.4924   -3.1575 C   0  0  0  0  0  0  0  0  0  0  0  0
    4.1950   -1.2093   -3.4104 F   0  0  0  0  0  0  0  0  0  0  0  0
    3.8685   -3.1567   -4.3276 F   0  0  0  0  0  0  0  0  0  0  0  0
    5.2956   -4.2978   -0.3462 C   0  0  0  0  0  0  0  0  0  0  0  0
    4.4915   -8.0829    1.4673 C   0  0  0  0  0  0  0  0  0  0  0  0
    2.9539   -8.0612    1.4567 C   0  0  0  0  0  0  0  0  0  0  0  0
   -0.5543  -11.0195    3.6726 H   0  0  0  0  0  0  0  0  0  0  0  0
    0.5566  -10.2930    4.8385 H   0  0  0  0  0  0  0  0  0  0  0  0
    1.1346  -10.8567    3.2429 H   0  0  0  0  0  0  0  0  0  0  0  0
   -2.1197   -9.0670    3.2220 H   0  0  0  0  0  0  0  0  0  0  0  0
    2.6219   -9.1192    3.2777 H   0  0  0  0  0  0  0  0  0  0  0  0
    2.5559   -6.1066    3.4155 H   0  0  0  0  0  0  0  0  0  0  0  0
    2.5596   -7.1889    4.7781 H   0  0  0  0  0  0  0  0  0  0  0  0
    4.8205   -6.2176    4.3249 H   0  0  0  0  0  0  0  0  0  0  0  0
    4.8337   -7.9565    4.2902 H   0  0  0  0  0  0  0  0  0  0  0  0
    3.6687   -4.4860    2.6536 H   0  0  0  0  0  0  0  0  0  0  0  0
    2.1040   -2.9657    1.4443 H   0  0  0  0  0  0  0  0  0  0  0  0
    2.6031   -2.2261   -0.7906 H   0  0  0  0  0  0  0  0  0  0  0  0
    2.8245   -2.5313   -2.8068 H   0  0  0  0  0  0  0  0  0  0  0  0
    6.2015   -4.6492   -0.8195 H   0  0  0  0  0  0  0  0  0  0  0  0
    4.8687   -7.8880    0.4642 H   0  0  0  0  0  0  0  0  0  0  0  0
    4.8577   -9.0675    1.7537 H   0  0  0  0  0  0  0  0  0  0  0  0
    2.5873   -8.9075    0.8797 H   0  0  0  0  0  0  0  0  0  0  0  0
    2.6138   -7.1468    0.9672 H   0  0  0  0  0  0  0  0  0  0  0  0
  1  2  1  0
  1 26  1  0
  1 27  1  0
  1 28  1  0
  2  6  1  0
  2  3  1  0
  3  4  2  0
  3 29  1  0
  4  5  1  0
  5  6  2  0
  6  7  1  0
  7 25  1  0
  7  8  1  0
  7 30  1  0
  8  9  1  0
  8 31  1  0
  8 32  1  0
  9 10  1  0
  9 33  1  0
  9 34  1  0
 10 11  1  0
 10 24  1  0
 11 12  2  0
 11 13  2  0
 11 14  1  0
 14 23  1  0
 14 15  2  0
 15 16  1  0
 15 35  1  0
 16 17  2  0
 16 36  1  0
 17 18  1  0
 17 37  1  0
 18 19  1  0
 18 23  2  0
 19 20  1  0
 20 21  1  0
 20 22  1  0
 20 38  1  0
 23 39  1  0
 24 25  1  0
 24 40  1  0
 24 41  1  0
 25 42  1  0
 25 43  1  0
M  END
>  <i_m_ct_stereo_status>  (351) 
1

>  <s_m_source_file>  (351) 
/var/tmp/pbs.5076255.sched01/tmpg0s73j8k/135j_ekwz2c.sdf

>  <i_m_source_file_index>  (351) 
8

>  <i_lp_mmshare_version>  (351) 
48012

>  <i_f3d_flags>  (351) 
0

>  <s_epik_input>  (351) 
W0NIM11uMVtjSF1ubmMxW0NIXTJbQ0gyXVtDSDJdTihbQ0gyXVtDSDJdMilTKD1PKSg9TyljM1tjSF1bY0hdW2NIXWMoW2NIXTMpT1tDSF0oRilG

>  <s_epik_cmdline>  (351) 
J2VwaWtfcHl0aG9uJywgJy1waHQnLCAnMi4wJywgJy1waCcsICc3LjAnLCAnLXRuJywgJzgnLCAnLW1hJywgJzIwMCcsICctaW1hZScsICc8aW5maWxlLm1hZT4nLCAnLW9tYWUnLCAnPG91dGZpbGUubWFlPic=

>  <r_lp_tautomer_probability>  (351) 
1

>  <r_epik_Ionization_Penalty>  (351) 
0.000169408

>  <r_epik_Ionization_Penalty_Charging>  (351) 
0

>  <r_epik_Ionization_Penalty_Neutral>  (351) 
0.000169408

>  <r_epik_State_Penalty>  (351) 
-0

>  <r_epik_Charging_Adjusted_Penalty>  (351) 
0

>  <i_epik_Tot_Q>  (351) 
0

>  <i_epik_Tot_abs_Q>  (351) 
0

>  <s_lp_Force_Field>  (351) 
OPLS3e

>  <r_lp_Energy>  (351) 
23.549

>  <b_lp_Chiralities_Consistent>  (351) 
1

>  <s_lp_Variant>  (351) 
91:0-1

>  <s_i_glide_gridfile>  (351) 
pfpi4k_grid

>  <i_i_glide_lignum>  (351) 
8

>  <i_i_glide_rotatable_bonds>  (351) 
5

>  <r_i_docking_score>  (351) 
-3.45831

>  <r_i_glide_ligand_efficiency>  (351) 
-0.138332

>  <r_i_glide_ligand_efficiency_sa>  (351) 
-0.404486

>  <r_i_glide_ligand_efficiency_ln>  (351) 
-0.819723

>  <r_i_glide_gscore>  (351) 
-3.45831

>  <r_i_glide_lipo>  (351) 
-0.27743

>  <r_i_glide_hbond>  (351) 
0

>  <r_i_glide_metal>  (351) 
-0

>  <r_i_glide_rewards>  (351) 
-1.16271

>  <r_i_glide_evdw>  (351) 
-24.9906

>  <r_i_glide_ecoul>  (351) 
-6.70294

>  <r_i_glide_erotb>  (351) 
0.557089

>  <r_i_glide_esite>  (351) 
-0.320289

>  <r_i_glide_emodel>  (351) 
-38.6849

>  <r_i_glide_energy>  (351) 
-31.6936

>  <r_i_glide_einternal>  (351) 
0.757958

>  <r_i_glide_intrahb_reward>  (351) 
-0

>  <i_i_glide_confnum>  (351) 
4

>  <i_i_glide_posenum>  (351) 
12

>  <r_i_glide_eff_state_penalty>  (351) 
0

>  <ligand_id>  (351) 
91

>  <original_smiles>  (351) 
Cn1cnnc1C1CCN(S(=O)(=O)c2cccc(OC(F)F)c2)CC1

>  <smiles>  (351) 
[H]c1c([H])c(OC([H])(F)F)c([H])c(S(=O)(=O)N2C([H])([H])C([H])([H])C([H])(c3nnc([H])n3C([H])([H])[H])C([H])([H])C2([H])[H])c1[H]

$$$$
91:0:1
     RDKit          3D

 43 45  0  0  1  0  0  0  0  0999 V2000
   -0.1260   -7.1193    4.8848 C   0  0  0  0  0  0  0  0  0  0  0  0
    0.3912   -6.8096    3.5603 N   0  0  0  0  0  0  0  0  0  0  0  0
    0.1994   -7.5046    2.4252 C   0  0  0  0  0  0  0  0  0  0  0  0
    0.7519   -6.9670    1.3369 N   0  0  0  0  0  0  0  0  0  0  0  0
    1.4046   -5.8484    1.8001 N   0  0  0  0  0  0  0  0  0  0  0  0
    1.1667   -5.7895    3.1211 C   0  0  0  0  0  0  0  0  0  0  0  0
    1.6777   -4.6716    4.0008 C   0  0  0  0  0  0  0  0  0  0  0  0
    1.0917   -3.3091    3.5965 C   0  0  0  0  0  0  0  0  0  0  0  0
    1.6344   -2.1440    4.4375 C   0  0  0  0  0  0  0  0  0  0  0  0
    3.1072   -2.1317    4.4912 N   0  0  0  0  0  0  0  0  0  0  0  0
    4.0341   -0.7756    3.9057 S   0  0  0  0  0  0  0  0  0  0  0  0
    3.1476    0.3966    3.8678 O   0  0  0  0  0  0  0  0  0  0  0  0
    5.2839   -0.7253    4.6793 O   0  0  0  0  0  0  0  0  0  0  0  0
    4.4319   -1.2289    2.2180 C   0  0  0  0  0  0  0  0  0  0  0  0
    3.3997   -1.3394    1.2676 C   0  0  0  0  0  0  0  0  0  0  0  0
    3.7169   -1.7006   -0.0574 C   0  0  0  0  0  0  0  0  0  0  0  0
    5.0521   -1.9524   -0.4291 C   0  0  0  0  0  0  0  0  0  0  0  0
    6.0909   -1.8454    0.5287 C   0  0  0  0  0  0  0  0  0  0  0  0
    7.4146   -2.0589    0.2220 O   0  0  0  0  0  0  0  0  0  0  0  0
    7.7320   -3.0550   -0.6455 C   0  0  0  0  0  0  0  0  0  0  0  0
    7.8210   -2.5633   -1.9017 F   0  0  0  0  0  0  0  0  0  0  0  0
    8.9348   -3.5873   -0.3209 F   0  0  0  0  0  0  0  0  0  0  0  0
    5.7715   -1.4659    1.8473 C   0  0  0  0  0  0  0  0  0  0  0  0
    3.7583   -3.4116    4.8245 C   0  0  0  0  0  0  0  0  0  0  0  0
    3.2124   -4.5791    3.9794 C   0  0  0  0  0  0  0  0  0  0  0  0
   -0.4139   -8.1708    4.9356 H   0  0  0  0  0  0  0  0  0  0  0  0
   -1.0004   -6.5023    5.0933 H   0  0  0  0  0  0  0  0  0  0  0  0
    0.6378   -6.9423    5.6387 H   0  0  0  0  0  0  0  0  0  0  0  0
   -0.3839   -8.4147    2.3838 H   0  0  0  0  0  0  0  0  0  0  0  0
    1.3695   -4.8663    5.0279 H   0  0  0  0  0  0  0  0  0  0  0  0
    1.3115   -3.1175    2.5466 H   0  0  0  0  0  0  0  0  0  0  0  0
    0.0078   -3.3259    3.6962 H   0  0  0  0  0  0  0  0  0  0  0  0
    1.2583   -1.2060    4.0322 H   0  0  0  0  0  0  0  0  0  0  0  0
    1.2572   -2.2070    5.4577 H   0  0  0  0  0  0  0  0  0  0  0  0
    2.3769   -1.1357    1.5501 H   0  0  0  0  0  0  0  0  0  0  0  0
    2.9254   -1.7789   -0.7901 H   0  0  0  0  0  0  0  0  0  0  0  0
    5.2652   -2.2166   -1.4555 H   0  0  0  0  0  0  0  0  0  0  0  0
    6.9899   -3.8507   -0.6245 H   0  0  0  0  0  0  0  0  0  0  0  0
    6.5661   -1.3489    2.5684 H   0  0  0  0  0  0  0  0  0  0  0  0
    4.8338   -3.3276    4.6743 H   0  0  0  0  0  0  0  0  0  0  0  0
    3.6079   -3.6108    5.8850 H   0  0  0  0  0  0  0  0  0  0  0  0
    3.6370   -5.5179    4.3378 H   0  0  0  0  0  0  0  0  0  0  0  0
    3.5509   -4.4584    2.9501 H   0  0  0  0  0  0  0  0  0  0  0  0
  1  2  1  0
  1 26  1  0
  1 27  1  0
  1 28  1  0
  2  6  1  0
  2  3  1  0
  3  4  2  0
  3 29  1  0
  4  5  1  0
  5  6  2  0
  6  7  1  0
  7 25  1  0
  7  8  1  0
  7 30  1  0
  8  9  1  0
  8 31  1  0
  8 32  1  0
  9 10  1  0
  9 33  1  0
  9 34  1  0
 10 11  1  0
 10 24  1  0
 11 12  2  0
 11 13  2  0
 11 14  1  0
 14 23  1  0
 14 15  2  0
 15 16  1  0
 15 35  1  0
 16 17  2  0
 16 36  1  0
 17 18  1  0
 17 37  1  0
 18 19  1  0
 18 23  2  0
 19 20  1  0
 20 21  1  0
 20 22  1  0
 20 38  1  0
 23 39  1  0
 24 25  1  0
 24 40  1  0
 24 41  1  0
 25 42  1  0
 25 43  1  0
M  END
>  <i_m_ct_stereo_status>  (352) 
1

>  <s_m_source_file>  (352) 
/var/tmp/pbs.5076255.sched01/tmpg0s73j8k/135j_ekwz2c.sdf

>  <i_m_source_file_index>  (352) 
8

>  <i_lp_mmshare_version>  (352) 
48012

>  <i_f3d_flags>  (352) 
0

>  <s_epik_input>  (352) 
W0NIM11uMVtjSF1ubmMxW0NIXTJbQ0gyXVtDSDJdTihbQ0gyXVtDSDJdMilTKD1PKSg9TyljM1tjSF1bY0hdW2NIXWMoW2NIXTMpT1tDSF0oRilG

>  <s_epik_cmdline>  (352) 
J2VwaWtfcHl0aG9uJywgJy1waHQnLCAnMi4wJywgJy1waCcsICc3LjAnLCAnLXRuJywgJzgnLCAnLW1hJywgJzIwMCcsICctaW1hZScsICc8aW5maWxlLm1hZT4nLCAnLW9tYWUnLCAnPG91dGZpbGUubWFlPic=

>  <r_lp_tautomer_probability>  (352) 
1

>  <r_epik_Ionization_Penalty>  (352) 
0.000169408

>  <r_epik_Ionization_Penalty_Charging>  (352) 
0

>  <r_epik_Ionization_Penalty_Neutral>  (352) 
0.000169408

>  <r_epik_State_Penalty>  (352) 
-0

>  <r_epik_Charging_Adjusted_Penalty>  (352) 
0

>  <i_epik_Tot_Q>  (352) 
0

>  <i_epik_Tot_abs_Q>  (352) 
0

>  <s_lp_Force_Field>  (352) 
OPLS3e

>  <r_lp_Energy>  (352) 
23.549

>  <b_lp_Chiralities_Consistent>  (352) 
1

>  <s_lp_Variant>  (352) 
91:0-1

>  <s_i_glide_gridfile>  (352) 
pfpi4k_grid

>  <i_i_glide_lignum>  (352) 
8

>  <i_i_glide_rotatable_bonds>  (352) 
5

>  <r_i_docking_score>  (352) 
-3.03186

>  <r_i_glide_ligand_efficiency>  (352) 
-0.121274

>  <r_i_glide_ligand_efficiency_sa>  (352) 
-0.354608

>  <r_i_glide_ligand_efficiency_ln>  (352) 
-0.718641

>  <r_i_glide_gscore>  (352) 
-3.03186

>  <r_i_glide_lipo>  (352) 
-0.410193

>  <r_i_glide_hbond>  (352) 
-0.0081171

>  <r_i_glide_metal>  (352) 
-0

>  <r_i_glide_rewards>  (352) 
-0.880338

>  <r_i_glide_evdw>  (352) 
-23.4026

>  <r_i_glide_ecoul>  (352) 
-4.74014

>  <r_i_glide_erotb>  (352) 
0.557089

>  <r_i_glide_esite>  (352) 
-0.409148

>  <r_i_glide_emodel>  (352) 
-34.21

>  <r_i_glide_energy>  (352) 
-28.1428

>  <r_i_glide_einternal>  (352) 
1.1408

>  <r_i_glide_intrahb_reward>  (352) 
-0

>  <i_i_glide_confnum>  (352) 
1

>  <i_i_glide_posenum>  (352) 
5

>  <r_i_glide_eff_state_penalty>  (352) 
0

>  <ligand_id>  (352) 
91

>  <original_smiles>  (352) 
Cn1cnnc1C1CCN(S(=O)(=O)c2cccc(OC(F)F)c2)CC1

>  <smiles>  (352) 
[H]c1c([H])c(OC([H])(F)F)c([H])c(S(=O)(=O)N2C([H])([H])C([H])([H])C([H])(c3nnc([H])n3C([H])([H])[H])C([H])([H])C2([H])[H])c1[H]

$$$$
91:0:2
     RDKit          3D

 43 45  0  0  1  0  0  0  0  0999 V2000
    0.6720  -10.2345    2.5500 C   0  0  0  0  0  0  0  0  0  0  0  0
   -0.0374   -8.9704    2.6747 N   0  0  0  0  0  0  0  0  0  0  0  0
   -1.3265   -8.7849    3.0109 C   0  0  0  0  0  0  0  0  0  0  0  0
   -1.7174   -7.5108    3.0714 N   0  0  0  0  0  0  0  0  0  0  0  0
   -0.5815   -6.7938    2.7504 N   0  0  0  0  0  0  0  0  0  0  0  0
    0.3780   -7.6973    2.5011 C   0  0  0  0  0  0  0  0  0  0  0  0
    1.7859   -7.3073    2.1319 C   0  0  0  0  0  0  0  0  0  0  0  0
    2.5277   -6.6888    3.3236 C   0  0  0  0  0  0  0  0  0  0  0  0
    3.9466   -6.2157    2.9520 C   0  0  0  0  0  0  0  0  0  0  0  0
    3.9546   -5.3551    1.7540 N   0  0  0  0  0  0  0  0  0  0  0  0
    4.5527   -3.7223    1.8146 S   0  0  0  0  0  0  0  0  0  0  0  0
    5.5637   -3.6631    2.8777 O   0  0  0  0  0  0  0  0  0  0  0  0
    4.9046   -3.3181    0.4440 O   0  0  0  0  0  0  0  0  0  0  0  0
    3.1580   -2.7358    2.3613 C   0  0  0  0  0  0  0  0  0  0  0  0
    2.7915   -1.5877    1.6343 C   0  0  0  0  0  0  0  0  0  0  0  0
    1.7144   -0.8018    2.0796 C   0  0  0  0  0  0  0  0  0  0  0  0
    1.0051   -1.1625    3.2388 C   0  0  0  0  0  0  0  0  0  0  0  0
    1.3812   -2.3065    3.9904 C   0  0  0  0  0  0  0  0  0  0  0  0
    0.7277   -2.7200    5.1333 O   0  0  0  0  0  0  0  0  0  0  0  0
   -0.0238   -1.8306    5.8408 C   0  0  0  0  0  0  0  0  0  0  0  0
   -1.3225   -1.8996    5.4647 F   0  0  0  0  0  0  0  0  0  0  0  0
    0.0217   -2.1266    7.1608 F   0  0  0  0  0  0  0  0  0  0  0  0
    2.4691   -3.0820    3.5421 C   0  0  0  0  0  0  0  0  0  0  0  0
    3.2196   -5.8524    0.5808 C   0  0  0  0  0  0  0  0  0  0  0  0
    1.8052   -6.3177    0.9552 C   0  0  0  0  0  0  0  0  0  0  0  0
   -0.0367  -11.0505    2.4103 H   0  0  0  0  0  0  0  0  0  0  0  0
    1.2631  -10.4169    3.4455 H   0  0  0  0  0  0  0  0  0  0  0  0
    1.3264  -10.2126    1.6856 H   0  0  0  0  0  0  0  0  0  0  0  0
   -1.9961   -9.6038    3.2395 H   0  0  0  0  0  0  0  0  0  0  0  0
    2.3310   -8.1979    1.8274 H   0  0  0  0  0  0  0  0  0  0  0  0
    1.9332   -5.8593    3.7017 H   0  0  0  0  0  0  0  0  0  0  0  0
    2.5936   -7.4070    4.1415 H   0  0  0  0  0  0  0  0  0  0  0  0
    4.3894   -5.6907    3.7959 H   0  0  0  0  0  0  0  0  0  0  0  0
    4.5915   -7.0723    2.7615 H   0  0  0  0  0  0  0  0  0  0  0  0
    3.3286   -1.3077    0.7379 H   0  0  0  0  0  0  0  0  0  0  0  0
    1.4138    0.0677    1.5053 H   0  0  0  0  0  0  0  0  0  0  0  0
    0.1569   -0.5562    3.5195 H   0  0  0  0  0  0  0  0  0  0  0  0
    0.3380   -0.8118    5.7164 H   0  0  0  0  0  0  0  0  0  0  0  0
    2.7948   -3.9305    4.1212 H   0  0  0  0  0  0  0  0  0  0  0  0
    3.1547   -5.0755   -0.1790 H   0  0  0  0  0  0  0  0  0  0  0  0
    3.7866   -6.6689    0.1390 H   0  0  0  0  0  0  0  0  0  0  0  0
    1.3165   -6.7556    0.0871 H   0  0  0  0  0  0  0  0  0  0  0  0
    1.2162   -5.4463    1.2227 H   0  0  0  0  0  0  0  0  0  0  0  0
  1  2  1  0
  1 26  1  0
  1 27  1  0
  1 28  1  0
  2  6  1  0
  2  3  1  0
  3  4  2  0
  3 29  1  0
  4  5  1  0
  5  6  2  0
  6  7  1  0
  7 25  1  0
  7  8  1  0
  7 30  1  0
  8  9  1  0
  8 31  1  0
  8 32  1  0
  9 10  1  0
  9 33  1  0
  9 34  1  0
 10 11  1  0
 10 24  1  0
 11 12  2  0
 11 13  2  0
 11 14  1  0
 14 23  1  0
 14 15  2  0
 15 16  1  0
 15 35  1  0
 16 17  2  0
 16 36  1  0
 17 18  1  0
 17 37  1  0
 18 19  1  0
 18 23  2  0
 19 20  1  0
 20 21  1  0
 20 22  1  0
 20 38  1  0
 23 39  1  0
 24 25  1  0
 24 40  1  0
 24 41  1  0
 25 42  1  0
 25 43  1  0
M  END
>  <i_m_ct_stereo_status>  (353) 
1

>  <s_m_source_file>  (353) 
/var/tmp/pbs.5076255.sched01/tmpg0s73j8k/135j_ekwz2c.sdf

>  <i_m_source_file_index>  (353) 
8

>  <i_lp_mmshare_version>  (353) 
48012

>  <i_f3d_flags>  (353) 
0

>  <s_epik_input>  (353) 
W0NIM11uMVtjSF1ubmMxW0NIXTJbQ0gyXVtDSDJdTihbQ0gyXVtDSDJdMilTKD1PKSg9TyljM1tjSF1bY0hdW2NIXWMoW2NIXTMpT1tDSF0oRilG

>  <s_epik_cmdline>  (353) 
J2VwaWtfcHl0aG9uJywgJy1waHQnLCAnMi4wJywgJy1waCcsICc3LjAnLCAnLXRuJywgJzgnLCAnLW1hJywgJzIwMCcsICctaW1hZScsICc8aW5maWxlLm1hZT4nLCAnLW9tYWUnLCAnPG91dGZpbGUubWFlPic=

>  <r_lp_tautomer_probability>  (353) 
1

>  <r_epik_Ionization_Penalty>  (353) 
0.000169408

>  <r_epik_Ionization_Penalty_Charging>  (353) 
0

>  <r_epik_Ionization_Penalty_Neutral>  (353) 
0.000169408

>  <r_epik_State_Penalty>  (353) 
-0

>  <r_epik_Charging_Adjusted_Penalty>  (353) 
0

>  <i_epik_Tot_Q>  (353) 
0

>  <i_epik_Tot_abs_Q>  (353) 
0

>  <s_lp_Force_Field>  (353) 
OPLS3e

>  <r_lp_Energy>  (353) 
23.549

>  <b_lp_Chiralities_Consistent>  (353) 
1

>  <s_lp_Variant>  (353) 
91:0-1

>  <s_i_glide_gridfile>  (353) 
pfpi4k_grid

>  <i_i_glide_lignum>  (353) 
8

>  <i_i_glide_rotatable_bonds>  (353) 
5

>  <r_i_docking_score>  (353) 
-2.92291

>  <r_i_glide_ligand_efficiency>  (353) 
-0.116916

>  <r_i_glide_ligand_efficiency_sa>  (353) 
-0.341865

>  <r_i_glide_ligand_efficiency_ln>  (353) 
-0.692816

>  <r_i_glide_gscore>  (353) 
-2.92291

>  <r_i_glide_lipo>  (353) 
-0.194774

>  <r_i_glide_hbond>  (353) 
0

>  <r_i_glide_metal>  (353) 
-0

>  <r_i_glide_rewards>  (353) 
-0.916706

>  <r_i_glide_evdw>  (353) 
-23.376

>  <r_i_glide_ecoul>  (353) 
-5.50587

>  <r_i_glide_erotb>  (353) 
0.557089

>  <r_i_glide_esite>  (353) 
-0.373837

>  <r_i_glide_emodel>  (353) 
-34.9731

>  <r_i_glide_energy>  (353) 
-28.8818

>  <r_i_glide_einternal>  (353) 
0.596153

>  <r_i_glide_intrahb_reward>  (353) 
-0

>  <i_i_glide_confnum>  (353) 
4

>  <i_i_glide_posenum>  (353) 
2

>  <r_i_glide_eff_state_penalty>  (353) 
0

>  <ligand_id>  (353) 
91

>  <original_smiles>  (353) 
Cn1cnnc1C1CCN(S(=O)(=O)c2cccc(OC(F)F)c2)CC1

>  <smiles>  (353) 
[H]c1c([H])c(OC([H])(F)F)c([H])c(S(=O)(=O)N2C([H])([H])C([H])([H])C([H])(c3nnc([H])n3C([H])([H])[H])C([H])([H])C2([H])[H])c1[H]

$$$$
92:0:0
     RDKit          3D

 29 31  0  0  1  0  0  0  0  0999 V2000
    6.3367   -2.7947   -1.2000 C   0  0  0  0  0  0  0  0  0  0  0  0
    5.0051   -2.8602   -0.4479 C   0  0  2  0  0  0  0  0  0  0  0  0
    4.8937   -4.1323    0.1945 O   0  0  0  0  0  0  0  0  0  0  0  0
    3.5860   -4.6257    0.0847 C   0  0  1  0  0  0  0  0  0  0  0  0
    3.0797   -5.0210    1.4446 N   0  0  0  0  0  0  0  0  0  0  0  0
    3.5620   -4.6803    2.6582 C   0  0  0  0  0  0  0  0  0  0  0  0
    2.9122   -5.1233    3.7351 N   0  0  0  0  0  0  0  0  0  0  0  0
    1.8856   -5.8457    3.1529 C   0  0  0  0  0  0  0  0  0  0  0  0
    0.8127   -6.5846    3.6967 C   0  0  0  0  0  0  0  0  0  0  0  0
    0.6096   -6.7532    5.4041 Cl  0  0  0  0  0  0  0  0  0  0  0  0
   -0.0675   -7.1587    2.8372 N   0  0  0  0  0  0  0  0  0  0  0  0
    0.1177   -7.0419    1.5213 C   0  0  0  0  0  0  0  0  0  0  0  0
    1.0394   -6.3236    0.8688 N   0  0  0  0  0  0  0  0  0  0  0  0
    1.9510   -5.7724    1.7339 C   0  0  0  0  0  0  0  0  0  0  0  0
    2.7448   -3.4989   -0.5233 C   0  0  1  0  0  0  0  0  0  0  0  0
    2.2125   -2.6514    0.4881 O   0  0  0  0  0  0  0  0  0  0  0  0
    3.7825   -2.7779   -1.3603 C   0  0  1  0  0  0  0  0  0  0  0  0
    3.4149   -1.4454   -1.6869 O   0  0  0  0  0  0  0  0  0  0  0  0
    6.4328   -1.8462   -1.7256 H   0  0  0  0  0  0  0  0  0  0  0  0
    6.3974   -3.5896   -1.9435 H   0  0  0  0  0  0  0  0  0  0  0  0
    7.1837   -2.9029   -0.5189 H   0  0  0  0  0  0  0  0  0  0  0  0
    4.9526   -2.0746    0.3126 H   0  0  0  0  0  0  0  0  0  0  0  0
    3.6017   -5.5426   -0.4954 H   0  0  0  0  0  0  0  0  0  0  0  0
    4.4205   -4.0340    2.7468 H   0  0  0  0  0  0  0  0  0  0  0  0
   -0.6073   -7.5557    0.9135 H   0  0  0  0  0  0  0  0  0  0  0  0
    1.9386   -3.9204   -1.1222 H   0  0  0  0  0  0  0  0  0  0  0  0
    1.7192   -1.9417    0.0704 H   0  0  0  0  0  0  0  0  0  0  0  0
    3.9556   -3.3512   -2.2710 H   0  0  0  0  0  0  0  0  0  0  0  0
    2.4969   -1.3056   -1.4776 H   0  0  0  0  0  0  0  0  0  0  0  0
  1  2  1  0
  1 19  1  0
  1 20  1  0
  1 21  1  0
  2 17  1  0
  2  3  1  0
  2 22  1  1
  3  4  1  0
  4  5  1  0
  4 15  1  0
  4 23  1  6
  5 14  1  0
  5  6  1  0
  6  7  2  0
  6 24  1  0
  7  8  1  0
  8 14  2  0
  8  9  1  0
  9 10  1  0
  9 11  2  0
 11 12  1  0
 12 13  2  0
 12 25  1  0
 13 14  1  0
 15 16  1  0
 15 17  1  0
 15 26  1  6
 16 27  1  0
 17 18  1  0
 17 28  1  6
 18 29  1  0
M  END
>  <i_m_ct_stereo_status>  (354) 
1

>  <s_m_source_file>  (354) 
/var/tmp/pbs.5076255.sched01/tmpg0s73j8k/135j_ekwz2c.sdf

>  <i_m_source_file_index>  (354) 
9

>  <i_lp_mmshare_version>  (354) 
48012

>  <i_f3d_flags>  (354) 
0

>  <s_epik_input>  (354) 
W0NIM11bQ0BASF0xT1tDQEhdKFtDQEBIXShbT0hdKVtDQEhdMVtPSF0pbihbY0hdbjIpYyhjMjMpbltjSF1uYzNDbA==

>  <s_epik_cmdline>  (354) 
J2VwaWtfcHl0aG9uJywgJy1waHQnLCAnMi4wJywgJy1waCcsICc3LjAnLCAnLXRuJywgJzgnLCAnLW1hJywgJzIwMCcsICctaW1hZScsICc8aW5maWxlLm1hZT4nLCAnLW9tYWUnLCAnPG91dGZpbGUubWFlPic=

>  <r_lp_tautomer_probability>  (354) 
1

>  <r_epik_Ionization_Penalty>  (354) 
1.84189e-06

>  <r_epik_Ionization_Penalty_Charging>  (354) 
0

>  <r_epik_Ionization_Penalty_Neutral>  (354) 
1.84189e-06

>  <r_epik_State_Penalty>  (354) 
-0

>  <r_epik_Charging_Adjusted_Penalty>  (354) 
0

>  <i_epik_Tot_Q>  (354) 
0

>  <i_epik_Tot_abs_Q>  (354) 
0

>  <s_epik_Chemistry_Notes>  (354) 
This compound contains an acetal/aminal-like group ( X-CH(R)-Y where X, Y are N, S, or O) that may be acid/base labile, releasing an aldehyde.

>  <s_lp_Force_Field>  (354) 
OPLS3e

>  <r_lp_Energy>  (354) 
18.5569

>  <b_lp_Chiralities_Consistent>  (354) 
1

>  <s_lp_Variant>  (354) 
92:0-1

>  <s_i_glide_gridfile>  (354) 
pfpi4k_grid

>  <i_i_glide_lignum>  (354) 
9

>  <i_i_glide_rotatable_bonds>  (354) 
3

>  <r_i_docking_score>  (354) 
-4.26443

>  <r_i_glide_ligand_efficiency>  (354) 
-0.236913

>  <r_i_glide_ligand_efficiency_sa>  (354) 
-0.620887

>  <r_i_glide_ligand_efficiency_ln>  (354) 
-1.09615

>  <r_i_glide_gscore>  (354) 
-4.26443

>  <r_i_glide_lipo>  (354) 
-0.0084211

>  <r_i_glide_hbond>  (354) 
-0.152

>  <r_i_glide_metal>  (354) 
-0

>  <r_i_glide_rewards>  (354) 
-1.5636

>  <r_i_glide_evdw>  (354) 
-18.2826

>  <r_i_glide_ecoul>  (354) 
-10.9342

>  <r_i_glide_erotb>  (354) 
0.170935

>  <r_i_glide_esite>  (354) 
-0.15709

>  <r_i_glide_emodel>  (354) 
-38.5386

>  <r_i_glide_energy>  (354) 
-29.2167

>  <r_i_glide_einternal>  (354) 
1.76275

>  <r_i_glide_intrahb_reward>  (354) 
-0

>  <i_i_glide_confnum>  (354) 
1

>  <i_i_glide_posenum>  (354) 
26

>  <r_i_glide_eff_state_penalty>  (354) 
0

>  <ligand_id>  (354) 
92

>  <original_smiles>  (354) 
CC1OC(n2cnc3c(Cl)ncnc32)C(O)C1O

>  <smiles>  (354) 
[H]OC1([H])C([H])(n2c([H])nc3c(Cl)nc([H])nc32)OC([H])(C([H])([H])[H])C1([H])O[H]

$$$$
92:0:1
     RDKit          3D

 29 31  0  0  1  0  0  0  0  0999 V2000
    1.2283    7.5033    5.1650 C   0  0  0  0  0  0  0  0  0  0  0  0
    0.5234    6.1494    4.9933 C   0  0  2  0  0  0  0  0  0  0  0  0
    1.2538    5.1753    5.7552 O   0  0  0  0  0  0  0  0  0  0  0  0
    1.9141    4.2572    4.9309 C   0  0  1  0  0  0  0  0  0  0  0  0
    1.1830    2.9232    4.9269 N   0  0  0  0  0  0  0  0  0  0  0  0
    1.5496    1.8006    4.2584 C   0  0  0  0  0  0  0  0  0  0  0  0
    0.7624    0.7293    4.3295 N   0  0  0  0  0  0  0  0  0  0  0  0
   -0.2322    1.1903    5.1603 C   0  0  0  0  0  0  0  0  0  0  0  0
   -1.3884    0.5693    5.6846 C   0  0  0  0  0  0  0  0  0  0  0  0
   -1.7943   -1.0568    5.2790 Cl  0  0  0  0  0  0  0  0  0  0  0  0
   -2.1565    1.2675    6.5482 N   0  0  0  0  0  0  0  0  0  0  0  0
   -1.8372    2.5337    6.8344 C   0  0  0  0  0  0  0  0  0  0  0  0
   -0.8026    3.2536    6.4030 N   0  0  0  0  0  0  0  0  0  0  0  0
    0.0029    2.5425    5.5625 C   0  0  0  0  0  0  0  0  0  0  0  0
    1.8898    4.8876    3.5362 C   0  0  1  0  0  0  0  0  0  0  0  0
    1.9769    3.9722    2.4772 O   0  0  0  0  0  0  0  0  0  0  0  0
    0.5773    5.6659    3.5450 C   0  0  1  0  0  0  0  0  0  0  0  0
   -0.5773    4.8784    3.2822 O   0  0  0  0  0  0  0  0  0  0  0  0
    0.7289    8.2823    4.5890 H   0  0  0  0  0  0  0  0  0  0  0  0
    2.2636    7.4693    4.8234 H   0  0  0  0  0  0  0  0  0  0  0  0
    1.2373    7.8090    6.2093 H   0  0  0  0  0  0  0  0  0  0  0  0
   -0.5122    6.2355    5.3429 H   0  0  0  0  0  0  0  0  0  0  0  0
    2.9042    4.0029    5.3099 H   0  0  0  0  0  0  0  0  0  0  0  0
    2.4308    1.7732    3.6307 H   0  0  0  0  0  0  0  0  0  0  0  0
   -2.5040    3.0522    7.4969 H   0  0  0  0  0  0  0  0  0  0  0  0
    2.7301    5.5773    3.4597 H   0  0  0  0  0  0  0  0  0  0  0  0
    1.2851    4.1474    1.8274 H   0  0  0  0  0  0  0  0  0  0  0  0
    0.5989    6.4763    2.8140 H   0  0  0  0  0  0  0  0  0  0  0  0
   -0.4882    4.5549    2.3730 H   0  0  0  0  0  0  0  0  0  0  0  0
  1  2  1  0
  1 19  1  0
  1 20  1  0
  1 21  1  0
  2 17  1  0
  2  3  1  0
  2 22  1  1
  3  4  1  0
  4  5  1  0
  4 15  1  0
  4 23  1  1
  5 14  1  0
  5  6  1  0
  6  7  2  0
  6 24  1  0
  7  8  1  0
  8 14  2  0
  8  9  1  0
  9 10  1  0
  9 11  2  0
 11 12  1  0
 12 13  2  0
 12 25  1  0
 13 14  1  0
 15 16  1  0
 15 17  1  0
 15 26  1  1
 16 27  1  0
 17 18  1  0
 17 28  1  6
 18 29  1  0
M  END
>  <i_m_ct_stereo_status>  (355) 
1

>  <s_m_source_file>  (355) 
/var/tmp/pbs.5076255.sched01/tmpg0s73j8k/135j_ekwz2c.sdf

>  <i_m_source_file_index>  (355) 
9

>  <i_lp_mmshare_version>  (355) 
48012

>  <i_f3d_flags>  (355) 
0

>  <s_epik_input>  (355) 
W0NIM11bQ0BASF0xT1tDQEhdKFtDQEBIXShbT0hdKVtDQEhdMVtPSF0pbihbY0hdbjIpYyhjMjMpbltjSF1uYzNDbA==

>  <s_epik_cmdline>  (355) 
J2VwaWtfcHl0aG9uJywgJy1waHQnLCAnMi4wJywgJy1waCcsICc3LjAnLCAnLXRuJywgJzgnLCAnLW1hJywgJzIwMCcsICctaW1hZScsICc8aW5maWxlLm1hZT4nLCAnLW9tYWUnLCAnPG91dGZpbGUubWFlPic=

>  <r_lp_tautomer_probability>  (355) 
1

>  <r_epik_Ionization_Penalty>  (355) 
1.84189e-06

>  <r_epik_Ionization_Penalty_Charging>  (355) 
0

>  <r_epik_Ionization_Penalty_Neutral>  (355) 
1.84189e-06

>  <r_epik_State_Penalty>  (355) 
-0

>  <r_epik_Charging_Adjusted_Penalty>  (355) 
0

>  <i_epik_Tot_Q>  (355) 
0

>  <i_epik_Tot_abs_Q>  (355) 
0

>  <s_epik_Chemistry_Notes>  (355) 
This compound contains an acetal/aminal-like group ( X-CH(R)-Y where X, Y are N, S, or O) that may be acid/base labile, releasing an aldehyde.

>  <s_lp_Force_Field>  (355) 
OPLS3e

>  <r_lp_Energy>  (355) 
18.5569

>  <b_lp_Chiralities_Consistent>  (355) 
1

>  <s_lp_Variant>  (355) 
92:0-1

>  <s_i_glide_gridfile>  (355) 
pfpi4k_grid

>  <i_i_glide_lignum>  (355) 
9

>  <i_i_glide_rotatable_bonds>  (355) 
3

>  <r_i_docking_score>  (355) 
-4.14611

>  <r_i_glide_ligand_efficiency>  (355) 
-0.230339

>  <r_i_glide_ligand_efficiency_sa>  (355) 
-0.603659

>  <r_i_glide_ligand_efficiency_ln>  (355) 
-1.06573

>  <r_i_glide_gscore>  (355) 
-4.14611

>  <r_i_glide_lipo>  (355) 
0

>  <r_i_glide_hbond>  (355) 
-0.0464127

>  <r_i_glide_metal>  (355) 
-0

>  <r_i_glide_rewards>  (355) 
-1.60866

>  <r_i_glide_evdw>  (355) 
-15.7551

>  <r_i_glide_ecoul>  (355) 
-12.8162

>  <r_i_glide_erotb>  (355) 
0.244193

>  <r_i_glide_esite>  (355) 
-0.0250415

>  <r_i_glide_emodel>  (355) 
-36.3495

>  <r_i_glide_energy>  (355) 
-28.5713

>  <r_i_glide_einternal>  (355) 
3.92638

>  <r_i_glide_intrahb_reward>  (355) 
-0

>  <i_i_glide_confnum>  (355) 
6

>  <i_i_glide_posenum>  (355) 
11

>  <r_i_glide_eff_state_penalty>  (355) 
0

>  <ligand_id>  (355) 
92

>  <original_smiles>  (355) 
CC1OC(n2cnc3c(Cl)ncnc32)C(O)C1O

>  <smiles>  (355) 
[H]OC1([H])C([H])(n2c([H])nc3c(Cl)nc([H])nc32)OC([H])(C([H])([H])[H])C1([H])O[H]

$$$$
92:0:2
     RDKit          3D

 29 31  0  0  1  0  0  0  0  0999 V2000
    3.9472   -0.5981   -4.0436 C   0  0  0  0  0  0  0  0  0  0  0  0
    3.4017   -1.3668   -2.8450 C   0  0  2  0  0  0  0  0  0  0  0  0
    4.1680   -1.0551   -1.6783 O   0  0  0  0  0  0  0  0  0  0  0  0
    4.3359   -2.2045   -0.8931 C   0  0  1  0  0  0  0  0  0  0  0  0
    3.9127   -1.9250    0.5184 N   0  0  0  0  0  0  0  0  0  0  0  0
    3.0769   -0.9711    0.9805 C   0  0  0  0  0  0  0  0  0  0  0  0
    2.8207   -0.9527    2.2904 N   0  0  0  0  0  0  0  0  0  0  0  0
    3.5899   -2.0151    2.7282 C   0  0  0  0  0  0  0  0  0  0  0  0
    3.8081   -2.5712    4.0099 C   0  0  0  0  0  0  0  0  0  0  0  0
    3.0617   -1.8887    5.4124 Cl  0  0  0  0  0  0  0  0  0  0  0  0
    4.6271   -3.6411    4.1193 N   0  0  0  0  0  0  0  0  0  0  0  0
    5.1893   -4.1459    3.0159 C   0  0  0  0  0  0  0  0  0  0  0  0
    5.0889   -3.7289    1.7479 N   0  0  0  0  0  0  0  0  0  0  0  0
    4.2660   -2.6450    1.6466 C   0  0  0  0  0  0  0  0  0  0  0  0
    3.5058   -3.3273   -1.5338 C   0  0  1  0  0  0  0  0  0  0  0  0
    2.1840   -3.4068   -1.0225 O   0  0  0  0  0  0  0  0  0  0  0  0
    3.5325   -2.8819   -2.9829 C   0  0  1  0  0  0  0  0  0  0  0  0
    2.5218   -3.4598   -3.7719 O   0  0  0  0  0  0  0  0  0  0  0  0
    3.4045   -0.8309   -4.9602 H   0  0  0  0  0  0  0  0  0  0  0  0
    4.9907   -0.8633   -4.2016 H   0  0  0  0  0  0  0  0  0  0  0  0
    3.8939    0.4802   -3.8780 H   0  0  0  0  0  0  0  0  0  0  0  0
    2.3608   -1.0967   -2.6691 H   0  0  0  0  0  0  0  0  0  0  0  0
    5.4000   -2.4336   -0.8396 H   0  0  0  0  0  0  0  0  0  0  0  0
    2.6013   -0.2704    0.3115 H   0  0  0  0  0  0  0  0  0  0  0  0
    5.8354   -4.9934    3.1898 H   0  0  0  0  0  0  0  0  0  0  0  0
    4.0047   -4.2807   -1.3744 H   0  0  0  0  0  0  0  0  0  0  0  0
    1.7811   -2.5391   -1.1032 H   0  0  0  0  0  0  0  0  0  0  0  0
    4.4974   -3.1407   -3.4117 H   0  0  0  0  0  0  0  0  0  0  0  0
    2.3865   -4.3574   -3.4611 H   0  0  0  0  0  0  0  0  0  0  0  0
  1  2  1  0
  1 19  1  0
  1 20  1  0
  1 21  1  0
  2 17  1  0
  2  3  1  0
  2 22  1  1
  3  4  1  0
  4  5  1  0
  4 15  1  0
  4 23  1  1
  5 14  1  0
  5  6  1  0
  6  7  2  0
  6 24  1  0
  7  8  1  0
  8 14  2  0
  8  9  1  0
  9 10  1  0
  9 11  2  0
 11 12  1  0
 12 13  2  0
 12 25  1  0
 13 14  1  0
 15 16  1  0
 15 17  1  0
 15 26  1  6
 16 27  1  0
 17 18  1  0
 17 28  1  6
 18 29  1  0
M  END
>  <i_m_ct_stereo_status>  (356) 
1

>  <s_m_source_file>  (356) 
/var/tmp/pbs.5076255.sched01/tmpg0s73j8k/135j_ekwz2c.sdf

>  <i_m_source_file_index>  (356) 
9

>  <i_lp_mmshare_version>  (356) 
48012

>  <i_f3d_flags>  (356) 
0

>  <s_epik_input>  (356) 
W0NIM11bQ0BASF0xT1tDQEhdKFtDQEBIXShbT0hdKVtDQEhdMVtPSF0pbihbY0hdbjIpYyhjMjMpbltjSF1uYzNDbA==

>  <s_epik_cmdline>  (356) 
J2VwaWtfcHl0aG9uJywgJy1waHQnLCAnMi4wJywgJy1waCcsICc3LjAnLCAnLXRuJywgJzgnLCAnLW1hJywgJzIwMCcsICctaW1hZScsICc8aW5maWxlLm1hZT4nLCAnLW9tYWUnLCAnPG91dGZpbGUubWFlPic=

>  <r_lp_tautomer_probability>  (356) 
1

>  <r_epik_Ionization_Penalty>  (356) 
1.84189e-06

>  <r_epik_Ionization_Penalty_Charging>  (356) 
0

>  <r_epik_Ionization_Penalty_Neutral>  (356) 
1.84189e-06

>  <r_epik_State_Penalty>  (356) 
-0

>  <r_epik_Charging_Adjusted_Penalty>  (356) 
0

>  <i_epik_Tot_Q>  (356) 
0

>  <i_epik_Tot_abs_Q>  (356) 
0

>  <s_epik_Chemistry_Notes>  (356) 
This compound contains an acetal/aminal-like group ( X-CH(R)-Y where X, Y are N, S, or O) that may be acid/base labile, releasing an aldehyde.

>  <s_lp_Force_Field>  (356) 
OPLS3e

>  <r_lp_Energy>  (356) 
18.5569

>  <b_lp_Chiralities_Consistent>  (356) 
1

>  <s_lp_Variant>  (356) 
92:0-1

>  <s_i_glide_gridfile>  (356) 
pfpi4k_grid

>  <i_i_glide_lignum>  (356) 
9

>  <i_i_glide_rotatable_bonds>  (356) 
3

>  <r_i_docking_score>  (356) 
-3.69573

>  <r_i_glide_ligand_efficiency>  (356) 
-0.205318

>  <r_i_glide_ligand_efficiency_sa>  (356) 
-0.538086

>  <r_i_glide_ligand_efficiency_ln>  (356) 
-0.949968

>  <r_i_glide_gscore>  (356) 
-3.69573

>  <r_i_glide_lipo>  (356) 
-0.305085

>  <r_i_glide_hbond>  (356) 
0

>  <r_i_glide_metal>  (356) 
-0

>  <r_i_glide_rewards>  (356) 
-1.60651

>  <r_i_glide_evdw>  (356) 
-21.382

>  <r_i_glide_ecoul>  (356) 
-5.67041

>  <r_i_glide_erotb>  (356) 
0.244193

>  <r_i_glide_esite>  (356) 
-0.108666

>  <r_i_glide_emodel>  (356) 
-35.5107

>  <r_i_glide_energy>  (356) 
-27.0524

>  <r_i_glide_einternal>  (356) 
0.650265

>  <r_i_glide_intrahb_reward>  (356) 
-0

>  <i_i_glide_confnum>  (356) 
1

>  <i_i_glide_posenum>  (356) 
24

>  <r_i_glide_eff_state_penalty>  (356) 
0

>  <ligand_id>  (356) 
92

>  <original_smiles>  (356) 
CC1OC(n2cnc3c(Cl)ncnc32)C(O)C1O

>  <smiles>  (356) 
[H]OC1([H])C([H])(n2c([H])nc3c(Cl)nc([H])nc32)OC([H])(C([H])([H])[H])C1([H])O[H]

$$$$
93:1:0
     RDKit          3D

 76 80  0  0  1  0  0  0  0  0999 V2000
   -3.6468  -12.3608   -6.8662 C   0  0  0  0  0  0  0  0  0  0  0  0
   -4.3482  -10.9966   -6.7122 C   0  0  2  0  0  0  0  0  0  0  0  0
   -4.4285  -10.5948   -5.2469 C   0  0  0  0  0  0  0  0  0  0  0  0
   -5.0615   -9.2001   -5.1466 C   0  0  0  0  0  0  0  0  0  0  0  0
   -6.3877   -8.9998   -5.9430 C   0  0  0  0  0  0  0  0  0  0  0  0
   -6.3036   -9.3728   -7.4694 C   0  0  1  0  0  0  0  0  0  0  0  0
   -5.3184   -8.3895   -8.0802 C   0  0  0  0  0  0  0  0  0  0  0  0
   -5.7169  -10.8586   -7.4637 C   0  0  2  0  0  0  0  0  0  0  0  0
   -6.7490  -11.9323   -6.9620 C   0  0  0  0  0  0  0  0  0  0  0  0
   -7.4886  -12.5334   -8.1284 C   0  0  0  0  0  0  0  0  0  0  0  0
   -8.7683  -12.3144   -8.4559 C   0  0  0  0  0  0  0  0  0  0  0  0
  -10.1327  -11.7348   -8.2453 C   0  0  1  0  0  0  0  0  0  0  0  0
  -11.1357  -12.8130   -7.8663 C   0  0  0  0  0  0  0  0  0  0  0  0
  -10.3883  -10.4624   -7.3887 C   0  0  0  0  0  0  0  0  0  0  0  0
  -10.9069   -9.0961   -7.9668 C   0  0  0  0  0  0  0  0  0  0  0  0
  -10.1072   -7.9899   -8.7614 C   0  0  1  0  0  0  0  0  0  0  0  0
  -10.4028   -8.2254  -10.2748 C   0  0  0  0  0  0  0  0  0  0  0  0
  -10.8611   -6.6019   -8.5603 C   0  0  0  0  0  0  0  0  0  0  0  0
  -10.4962   -5.6759   -7.3892 C   0  0  0  0  0  0  0  0  0  0  0  0
   -8.9613   -5.4985   -7.3733 C   0  0  0  0  0  0  0  0  0  0  0  0
   -8.5040   -4.7462   -8.6497 C   0  0  0  0  0  0  0  0  0  0  0  0
   -8.5077   -4.6854   -6.1448 C   0  0  0  0  0  0  0  0  0  0  0  0
   -8.2633   -6.8704   -7.2999 C   0  0  0  0  0  0  0  0  0  0  0  0
   -8.5229   -7.8808   -8.4501 C   0  0  1  0  0  0  0  0  0  0  0  0
   -7.6722   -9.2398   -8.3344 C   0  0  1  0  0  0  0  0  0  0  0  0
   -7.5867   -9.9024   -9.7405 C   0  0  0  0  0  0  0  0  0  0  0  0
   -8.7405  -10.7291  -10.3769 C   0  0  0  0  0  0  0  0  0  0  0  0
   -8.9846  -10.5559  -11.5639 O   0  0  0  0  0  0  0  0  0  0  0  0
   -9.4647  -11.8589   -9.6535 C   0  0  1  0  0  0  0  0  0  0  0  0
  -10.0185  -12.9281  -10.6116 C   0  0  0  0  0  0  0  0  0  0  0  0
   -4.1445  -13.1712   -6.3242 H   0  0  0  0  0  0  0  0  0  0  0  0
   -2.6453  -12.2906   -6.4371 H   0  0  0  0  0  0  0  0  0  0  0  0
   -3.5397  -12.6540   -7.9132 H   0  0  0  0  0  0  0  0  0  0  0  0
   -3.6876  -10.2623   -7.1408 H   0  0  0  0  0  0  0  0  0  0  0  0
   -4.9487  -11.4049   -4.7174 H   0  0  0  0  0  0  0  0  0  0  0  0
   -3.4502  -10.5661   -4.7448 H   0  0  0  0  0  0  0  0  0  0  0  0
   -5.2315   -8.9660   -4.1040 H   0  0  0  0  0  0  0  0  0  0  0  0
   -4.3266   -8.4445   -5.4452 H   0  0  0  0  0  0  0  0  0  0  0  0
   -7.2240   -9.5220   -5.4829 H   0  0  0  0  0  0  0  0  0  0  0  0
   -6.5822   -7.9469   -5.7868 H   0  0  0  0  0  0  0  0  0  0  0  0
   -5.0294   -8.7295   -9.0602 H   0  0  0  0  0  0  0  0  0  0  0  0
   -4.4512   -8.1645   -7.4460 H   0  0  0  0  0  0  0  0  0  0  0  0
   -5.7973   -7.4517   -8.2756 H   0  0  0  0  0  0  0  0  0  0  0  0
   -5.4232  -11.1216   -8.4836 H   0  0  0  0  0  0  0  0  0  0  0  0
   -6.2565  -12.7715   -6.4932 H   0  0  0  0  0  0  0  0  0  0  0  0
   -7.4558  -11.5314   -6.2203 H   0  0  0  0  0  0  0  0  0  0  0  0
   -6.8438  -12.8380   -8.9483 H   0  0  0  0  0  0  0  0  0  0  0  0
  -12.1458  -12.5115   -8.1466 H   0  0  0  0  0  0  0  0  0  0  0  0
  -11.0713  -13.0179   -6.7975 H   0  0  0  0  0  0  0  0  0  0  0  0
  -10.9031  -13.7700   -8.3382 H   0  0  0  0  0  0  0  0  0  0  0  0
  -11.2283  -10.7603   -6.7843 H   0  0  0  0  0  0  0  0  0  0  0  0
   -9.6525  -10.3659   -6.6011 H   0  0  0  0  0  0  0  0  0  0  0  0
  -11.8513   -9.2923   -8.4682 H   0  0  0  0  0  0  0  0  0  0  0  0
  -11.2298   -8.5434   -7.0930 H   0  0  0  0  0  0  0  0  0  0  0  0
   -9.5189   -8.0522  -10.9004 H   0  0  0  0  0  0  0  0  0  0  0  0
  -11.1925   -7.5797  -10.6693 H   0  0  0  0  0  0  0  0  0  0  0  0
  -10.8264   -9.2138  -10.4523 H   0  0  0  0  0  0  0  0  0  0  0  0
  -10.7951   -5.9837   -9.4645 H   0  0  0  0  0  0  0  0  0  0  0  0
  -11.9233   -6.8136   -8.4513 H   0  0  0  0  0  0  0  0  0  0  0  0
  -10.9325   -4.6814   -7.5871 H   0  0  0  0  0  0  0  0  0  0  0  0
  -10.9603   -6.0684   -6.4671 H   0  0  0  0  0  0  0  0  0  0  0  0
   -7.4196   -4.6399   -8.6595 H   0  0  0  0  0  0  0  0  0  0  0  0
   -8.9644   -3.7585   -8.7013 H   0  0  0  0  0  0  0  0  0  0  0  0
   -8.7755   -5.2812   -9.5615 H   0  0  0  0  0  0  0  0  0  0  0  0
   -7.4252   -4.5239   -6.1417 H   0  0  0  0  0  0  0  0  0  0  0  0
   -8.7625   -5.1863   -5.2080 H   0  0  0  0  0  0  0  0  0  0  0  0
   -8.9779   -3.7043   -6.1481 H   0  0  0  0  0  0  0  0  0  0  0  0
   -7.2103   -6.6364   -7.2468 H   0  0  0  0  0  0  0  0  0  0  0  0
   -8.5196   -7.3613   -6.3673 H   0  0  0  0  0  0  0  0  0  0  0  0
   -8.0798   -7.3788   -9.3218 H   0  0  0  0  0  0  0  0  0  0  0  0
   -8.1811   -9.9262   -7.7393 H   0  0  0  0  0  0  0  0  0  0  0  0
   -7.4087   -9.1105  -10.4636 H   0  0  0  0  0  0  0  0  0  0  0  0
   -6.7315  -10.5561   -9.8197 H   0  0  0  0  0  0  0  0  0  0  0  0
   -9.5649  -12.9034  -11.6014 H   0  0  0  0  0  0  0  0  0  0  0  0
  -11.0947  -12.7648  -10.7256 H   0  0  0  0  0  0  0  0  0  0  0  0
   -9.8522  -13.9378  -10.2185 H   0  0  0  0  0  0  0  0  0  0  0  0
  1  2  1  0
  1 31  1  0
  1 32  1  0
  1 33  1  0
  2  8  1  0
  2  3  1  0
  2 34  1  6
  3  4  1  0
  3 35  1  0
  3 36  1  0
  4  5  1  0
  4 37  1  0
  4 38  1  0
  5  6  1  0
  5 39  1  0
  5 40  1  0
  6 25  1  0
  6  7  1  6
  6  8  1  0
  7 41  1  0
  7 42  1  0
  7 43  1  0
  8  9  1  0
  8 44  1  6
  9 10  1  0
  9 45  1  0
  9 46  1  0
 10 11  2  3
 10 47  1  0
 11 29  1  0
 11 12  1  0
 12 29  1  0
 12 13  1  6
 12 14  1  0
 13 48  1  0
 13 49  1  0
 13 50  1  0
 14 15  1  0
 14 51  1  0
 14 52  1  0
 15 16  1  0
 15 53  1  0
 15 54  1  0
 16 24  1  0
 16 17  1  6
 16 18  1  0
 17 55  1  0
 17 56  1  0
 17 57  1  0
 18 19  1  0
 18 58  1  0
 18 59  1  0
 19 20  1  0
 19 60  1  0
 19 61  1  0
 20 21  1  0
 20 22  1  0
 20 23  1  0
 21 62  1  0
 21 63  1  0
 21 64  1  0
 22 65  1  0
 22 66  1  0
 22 67  1  0
 23 24  1  0
 23 68  1  0
 23 69  1  0
 24 25  1  0
 24 70  1  6
 25 26  1  0
 25 71  1  1
 26 27  1  0
 26 72  1  0
 26 73  1  0
 27 28  2  0
 27 29  1  0
 29 30  1  6
 30 74  1  0
 30 75  1  0
 30 76  1  0
M  END
>  <i_m_ct_stereo_status>  (357) 
1

>  <s_m_source_file>  (357) 
/var/tmp/pbs.5076255.sched01/tmpg0s73j8k/135j_ekwz2c.sdf

>  <i_m_source_file_index>  (357) 
11

>  <i_lp_mmshare_version>  (357) 
48012

>  <i_f3d_flags>  (357) 
0

>  <s_epik_input>  (357) 
W0NIMl0xW0NIMl1bQ0gyXVtDQEBIXShbQ0gzXSlbQ0BIXShbQ0BdMTJbQ0gzXSlbQ0gyXS9bQ0hdPUMzL0M0KFtDSDNdKUMzKFtDSDNdKUMoPU8pW0NIMl1bQ0BASF0yW0NASF01W0NAQF0oW0NIM10pKFtDSDJdW0NIMl00KVtDSDJdW0NIMl1DKFtDSDNdKShbQ0gzXSlbQ0gyXTU=

>  <s_epik_cmdline>  (357) 
J2VwaWtfcHl0aG9uJywgJy1waHQnLCAnMi4wJywgJy1waCcsICc3LjAnLCAnLXRuJywgJzgnLCAnLW1hJywgJzIwMCcsICctaW1hZScsICc8aW5maWxlLm1hZT4nLCAnLW9tYWUnLCAnPG91dGZpbGUubWFlPic=

>  <r_lp_tautomer_probability>  (357) 
1

>  <r_epik_Ionization_Penalty>  (357) 
8.52498e-14

>  <r_epik_Ionization_Penalty_Charging>  (357) 
0

>  <r_epik_Ionization_Penalty_Neutral>  (357) 
8.52498e-14

>  <r_epik_State_Penalty>  (357) 
-0

>  <r_epik_Charging_Adjusted_Penalty>  (357) 
0

>  <i_epik_Tot_Q>  (357) 
0

>  <i_epik_Tot_abs_Q>  (357) 
0

>  <s_lp_Force_Field>  (357) 
OPLS3e

>  <r_lp_Energy>  (357) 
141.422

>  <b_lp_Chiralities_Consistent>  (357) 
1

>  <s_lp_Variant>  (357) 
93:0-2

>  <s_i_glide_gridfile>  (357) 
pfpi4k_grid

>  <i_i_glide_lignum>  (357) 
11

>  <i_i_glide_rotatable_bonds>  (357) 
0

>  <r_i_docking_score>  (357) 
-2.97301

>  <r_i_glide_ligand_efficiency>  (357) 
-0.0991003

>  <r_i_glide_ligand_efficiency_sa>  (357) 
-0.307928

>  <r_i_glide_ligand_efficiency_ln>  (357) 
-0.6755

>  <r_i_glide_gscore>  (357) 
-2.97301

>  <r_i_glide_lipo>  (357) 
-1.86251

>  <r_i_glide_hbond>  (357) 
0

>  <r_i_glide_metal>  (357) 
-0

>  <r_i_glide_rewards>  (357) 
-1.19979

>  <r_i_glide_evdw>  (357) 
-3.24424

>  <r_i_glide_ecoul>  (357) 
1.67669

>  <r_i_glide_erotb>  (357) 
0

>  <r_i_glide_esite>  (357) 
0

>  <r_i_glide_emodel>  (357) 
-9.66881

>  <r_i_glide_energy>  (357) 
-1.56755

>  <r_i_glide_einternal>  (357) 
0

>  <r_i_glide_intrahb_reward>  (357) 
-0

>  <i_i_glide_confnum>  (357) 
1

>  <i_i_glide_posenum>  (357) 
1

>  <r_i_glide_eff_state_penalty>  (357) 
0

>  <ligand_id>  (357) 
93

>  <original_smiles>  (357) 
CC1CCCC2(C)C1CC=C1C3(C)CCC4(C)CCC(C)(C)CC4C2CC(=O)C13C

>  <smiles>  (357) 
[H]C1=C2C3(C([H])([H])[H])C(=O)C([H])([H])C([H])(C4([H])C([H])([H])C(C([H])([H])[H])(C([H])([H])[H])C([H])([H])C([H])([H])C4(C([H])([H])[H])C([H])([H])C([H])([H])C23C([H])([H])[H])C2(C([H])([H])[H])C([H])([H])C([H])([H])C([H])([H])C([H])(C([H])([H])[H])C2([H])C1([H])[H]

$$$$
93:3:0
     RDKit          3D

 76 80  0  0  1  0  0  0  0  0999 V2000
    0.4957   -1.3876    3.6543 C   0  0  0  0  0  0  0  0  0  0  0  0
    1.6344   -0.7166    4.4341 C   0  0  2  0  0  0  0  0  0  0  0  0
    1.6680    0.7776    4.0972 C   0  0  0  0  0  0  0  0  0  0  0  0
    2.2327    0.9963    2.6982 C   0  0  0  0  0  0  0  0  0  0  0  0
    3.6489    0.4480    2.6404 C   0  0  0  0  0  0  0  0  0  0  0  0
    3.8664   -1.0563    2.9989 C   0  0  1  0  0  0  0  0  0  0  0  0
    5.3789   -1.0070    3.4025 C   0  0  0  0  0  0  0  0  0  0  0  0
    3.0480   -1.3729    4.3268 C   0  0  2  0  0  0  0  0  0  0  0  0
    3.0539   -2.8088    4.9679 C   0  0  0  0  0  0  0  0  0  0  0  0
    4.2648   -3.6807    4.6733 C   0  0  0  0  0  0  0  0  0  0  0  0
    4.2554   -4.6632    3.7643 C   0  0  0  0  0  0  0  0  0  0  0  0
    4.9989   -5.6626    2.9744 C   0  0  2  0  0  0  0  0  0  0  0  0
    5.4555   -6.9271    3.6675 C   0  0  0  0  0  0  0  0  0  0  0  0
    5.9055   -5.2875    1.7936 C   0  0  0  0  0  0  0  0  0  0  0  0
    6.1756   -3.7679    1.5525 C   0  0  0  0  0  0  0  0  0  0  0  0
    5.7156   -3.0126    0.2515 C   0  0  1  0  0  0  0  0  0  0  0  0
    6.9845   -2.2144   -0.1876 C   0  0  0  0  0  0  0  0  0  0  0  0
    5.3789   -3.9734   -0.8998 C   0  0  0  0  0  0  0  0  0  0  0  0
    5.1035   -3.2761   -2.2302 C   0  0  0  0  0  0  0  0  0  0  0  0
    3.9239   -2.2968   -2.1502 C   0  0  0  0  0  0  0  0  0  0  0  0
    4.0204   -1.3756   -3.3958 C   0  0  0  0  0  0  0  0  0  0  0  0
    2.5870   -3.0472   -2.2775 C   0  0  0  0  0  0  0  0  0  0  0  0
    4.0328   -1.3690   -0.8963 C   0  0  0  0  0  0  0  0  0  0  0  0
    4.5673   -1.9539    0.4602 C   0  0  1  0  0  0  0  0  0  0  0  0
    3.5640   -1.9746    1.6940 C   0  0  1  0  0  0  0  0  0  0  0  0
    2.5577   -3.1637    1.7614 C   0  0  0  0  0  0  0  0  0  0  0  0
    2.9220   -4.6488    1.6353 C   0  0  0  0  0  0  0  0  0  0  0  0
    2.5698   -5.2613    0.6282 O   0  0  0  0  0  0  0  0  0  0  0  0
    3.4254   -5.3908    2.8269 C   0  0  2  0  0  0  0  0  0  0  0  0
    2.4244   -6.4099    3.3367 C   0  0  0  0  0  0  0  0  0  0  0  0
    0.6674   -1.3620    2.5732 H   0  0  0  0  0  0  0  0  0  0  0  0
   -0.4476   -0.8619    3.8141 H   0  0  0  0  0  0  0  0  0  0  0  0
    0.3249   -2.4262    3.9387 H   0  0  0  0  0  0  0  0  0  0  0  0
    1.3290   -0.7900    5.4780 H   0  0  0  0  0  0  0  0  0  0  0  0
    0.6777    1.2262    4.1893 H   0  0  0  0  0  0  0  0  0  0  0  0
    2.2988    1.2892    4.8277 H   0  0  0  0  0  0  0  0  0  0  0  0
    1.5984    0.5686    1.9280 H   0  0  0  0  0  0  0  0  0  0  0  0
    2.2575    2.0689    2.4935 H   0  0  0  0  0  0  0  0  0  0  0  0
    4.0373    0.6522    1.6431 H   0  0  0  0  0  0  0  0  0  0  0  0
    4.2173    1.0944    3.2999 H   0  0  0  0  0  0  0  0  0  0  0  0
    5.7761   -1.8885    3.8871 H   0  0  0  0  0  0  0  0  0  0  0  0
    5.5657   -0.2447    4.1661 H   0  0  0  0  0  0  0  0  0  0  0  0
    6.0535   -0.7543    2.5858 H   0  0  0  0  0  0  0  0  0  0  0  0
    3.5958   -0.8041    5.0797 H   0  0  0  0  0  0  0  0  0  0  0  0
    2.9796   -2.7019    6.0530 H   0  0  0  0  0  0  0  0  0  0  0  0
    2.1650   -3.3713    4.6897 H   0  0  0  0  0  0  0  0  0  0  0  0
    5.1833   -3.4312    5.1853 H   0  0  0  0  0  0  0  0  0  0  0  0
    5.3564   -7.7852    2.9989 H   0  0  0  0  0  0  0  0  0  0  0  0
    4.8457   -7.1205    4.5549 H   0  0  0  0  0  0  0  0  0  0  0  0
    6.4906   -6.8417    3.9889 H   0  0  0  0  0  0  0  0  0  0  0  0
    6.8729   -5.7592    1.9680 H   0  0  0  0  0  0  0  0  0  0  0  0
    5.5201   -5.7988    0.9095 H   0  0  0  0  0  0  0  0  0  0  0  0
    5.8229   -3.2312    2.4078 H   0  0  0  0  0  0  0  0  0  0  0  0
    7.2596   -3.6780    1.6398 H   0  0  0  0  0  0  0  0  0  0  0  0
    6.7427   -1.5258   -0.9956 H   0  0  0  0  0  0  0  0  0  0  0  0
    7.7802   -2.8723   -0.5526 H   0  0  0  0  0  0  0  0  0  0  0  0
    7.4013   -1.6004    0.6161 H   0  0  0  0  0  0  0  0  0  0  0  0
    6.2105   -4.6571   -1.0115 H   0  0  0  0  0  0  0  0  0  0  0  0
    4.5206   -4.5794   -0.6581 H   0  0  0  0  0  0  0  0  0  0  0  0
    5.9990   -2.7982   -2.6250 H   0  0  0  0  0  0  0  0  0  0  0  0
    4.8677   -4.0619   -2.9561 H   0  0  0  0  0  0  0  0  0  0  0  0
    3.2198   -0.6261   -3.4136 H   0  0  0  0  0  0  0  0  0  0  0  0
    3.9857   -1.9393   -4.3358 H   0  0  0  0  0  0  0  0  0  0  0  0
    4.9728   -0.8259   -3.3828 H   0  0  0  0  0  0  0  0  0  0  0  0
    1.7550   -2.3568   -2.3244 H   0  0  0  0  0  0  0  0  0  0  0  0
    2.4100   -3.7169   -1.4495 H   0  0  0  0  0  0  0  0  0  0  0  0
    2.5334   -3.6402   -3.1862 H   0  0  0  0  0  0  0  0  0  0  0  0
    4.6080   -0.4948   -1.1505 H   0  0  0  0  0  0  0  0  0  0  0  0
    3.0240   -0.9810   -0.7530 H   0  0  0  0  0  0  0  0  0  0  0  0
    5.1332   -1.0692    0.7552 H   0  0  0  0  0  0  0  0  0  0  0  0
    2.8171   -1.2964    1.2952 H   0  0  0  0  0  0  0  0  0  0  0  0
    1.9519   -3.0940    2.6545 H   0  0  0  0  0  0  0  0  0  0  0  0
    1.8632   -2.9945    0.9421 H   0  0  0  0  0  0  0  0  0  0  0  0
    1.4008   -6.0902    3.1800 H   0  0  0  0  0  0  0  0  0  0  0  0
    2.5708   -6.5788    4.4039 H   0  0  0  0  0  0  0  0  0  0  0  0
    2.5756   -7.3633    2.8267 H   0  0  0  0  0  0  0  0  0  0  0  0
  1  2  1  0
  1 31  1  0
  1 32  1  0
  1 33  1  0
  2  8  1  0
  2  3  1  0
  2 34  1  1
  3  4  1  0
  3 35  1  0
  3 36  1  0
  4  5  1  0
  4 37  1  0
  4 38  1  0
  5  6  1  0
  5 39  1  0
  5 40  1  0
  6 25  1  0
  6  7  1  1
  6  8  1  0
  7 41  1  0
  7 42  1  0
  7 43  1  0
  8  9  1  0
  8 44  1  1
  9 10  1  0
  9 45  1  0
  9 46  1  0
 10 11  2  3
 10 47  1  0
 11 29  1  0
 11 12  1  0
 12 29  1  0
 12 13  1  1
 12 14  1  0
 13 48  1  0
 13 49  1  0
 13 50  1  0
 14 15  1  0
 14 51  1  0
 14 52  1  0
 15 16  1  0
 15 53  1  0
 15 54  1  0
 16 24  1  0
 16 17  1  6
 16 18  1  0
 17 55  1  0
 17 56  1  0
 17 57  1  0
 18 19  1  0
 18 58  1  0
 18 59  1  0
 19 20  1  0
 19 60  1  0
 19 61  1  0
 20 21  1  0
 20 22  1  0
 20 23  1  0
 21 62  1  0
 21 63  1  0
 21 64  1  0
 22 65  1  0
 22 66  1  0
 22 67  1  0
 23 24  1  0
 23 68  1  0
 23 69  1  0
 24 25  1  0
 24 70  1  1
 25 26  1  0
 25 71  1  6
 26 27  1  0
 26 72  1  0
 26 73  1  0
 27 28  2  0
 27 29  1  0
 29 30  1  1
 30 74  1  0
 30 75  1  0
 30 76  1  0
M  END
>  <i_m_ct_stereo_status>  (358) 
1

>  <s_m_source_file>  (358) 
/var/tmp/pbs.5076255.sched01/tmpg0s73j8k/135j_ekwz2c.sdf

>  <i_m_source_file_index>  (358) 
13

>  <i_lp_mmshare_version>  (358) 
48012

>  <i_f3d_flags>  (358) 
0

>  <s_epik_input>  (358) 
W0NIMl0xW0NIMl1bQ0gyXVtDQEBIXShbQ0gzXSlbQ0BIXShbQ0BdMTJbQ0gzXSlbQ0gyXS9bQ0hdPUMzL0M0KFtDSDNdKUMzKFtDSDNdKUMoPU8pW0NIMl1bQ0BASF0yW0NASF01W0NAQF0oW0NIM10pKFtDSDJdW0NIMl00KVtDSDJdW0NIMl1DKFtDSDNdKShbQ0gzXSlbQ0gyXTU=

>  <s_epik_cmdline>  (358) 
J2VwaWtfcHl0aG9uJywgJy1waHQnLCAnMi4wJywgJy1waCcsICc3LjAnLCAnLXRuJywgJzgnLCAnLW1hJywgJzIwMCcsICctaW1hZScsICc8aW5maWxlLm1hZT4nLCAnLW9tYWUnLCAnPG91dGZpbGUubWFlPic=

>  <r_lp_tautomer_probability>  (358) 
1

>  <r_epik_Ionization_Penalty>  (358) 
8.52498e-14

>  <r_epik_Ionization_Penalty_Charging>  (358) 
0

>  <r_epik_Ionization_Penalty_Neutral>  (358) 
8.52498e-14

>  <r_epik_State_Penalty>  (358) 
-0

>  <r_epik_Charging_Adjusted_Penalty>  (358) 
0

>  <i_epik_Tot_Q>  (358) 
0

>  <i_epik_Tot_abs_Q>  (358) 
0

>  <s_lp_Force_Field>  (358) 
OPLS3e

>  <r_lp_Energy>  (358) 
126.077

>  <b_lp_Chiralities_Consistent>  (358) 
1

>  <s_lp_Variant>  (358) 
93:0-4

>  <s_i_glide_gridfile>  (358) 
pfpi4k_grid

>  <i_i_glide_lignum>  (358) 
13

>  <i_i_glide_rotatable_bonds>  (358) 
0

>  <r_i_docking_score>  (358) 
-2.83931

>  <r_i_glide_ligand_efficiency>  (358) 
-0.0946436

>  <r_i_glide_ligand_efficiency_sa>  (358) 
-0.29408

>  <r_i_glide_ligand_efficiency_ln>  (358) 
-0.645122

>  <r_i_glide_gscore>  (358) 
-2.83931

>  <r_i_glide_lipo>  (358) 
-0.651407

>  <r_i_glide_hbond>  (358) 
0

>  <r_i_glide_metal>  (358) 
-0

>  <r_i_glide_rewards>  (358) 
-0.609034

>  <r_i_glide_evdw>  (358) 
-30.4818

>  <r_i_glide_ecoul>  (358) 
-0.327411

>  <r_i_glide_erotb>  (358) 
0

>  <r_i_glide_esite>  (358) 
-0.00566278

>  <r_i_glide_emodel>  (358) 
-35.016

>  <r_i_glide_energy>  (358) 
-30.8092

>  <r_i_glide_einternal>  (358) 
0

>  <r_i_glide_intrahb_reward>  (358) 
-0

>  <i_i_glide_confnum>  (358) 
1

>  <i_i_glide_posenum>  (358) 
1

>  <r_i_glide_eff_state_penalty>  (358) 
0

>  <ligand_id>  (358) 
93

>  <original_smiles>  (358) 
CC1CCCC2(C)C1CC=C1C3(C)CCC4(C)CCC(C)(C)CC4C2CC(=O)C13C

>  <smiles>  (358) 
[H]C1=C2C3(C([H])([H])[H])C(=O)C([H])([H])C([H])(C4([H])C([H])([H])C(C([H])([H])[H])(C([H])([H])[H])C([H])([H])C([H])([H])C4(C([H])([H])[H])C([H])([H])C([H])([H])C23C([H])([H])[H])C2(C([H])([H])[H])C([H])([H])C([H])([H])C([H])([H])C([H])(C([H])([H])[H])C2([H])C1([H])[H]

$$$$
93:3:1
     RDKit          3D

 76 80  0  0  1  0  0  0  0  0999 V2000
    3.4097   -1.4658   -1.6061 C   0  0  0  0  0  0  0  0  0  0  0  0
    4.9236   -1.5110   -1.5319 C   0  0  2  0  0  0  0  0  0  0  0  0
    5.4142   -2.5213   -2.5602 C   0  0  0  0  0  0  0  0  0  0  0  0
    5.0788   -3.9228   -2.0927 C   0  0  0  0  0  0  0  0  0  0  0  0
    5.7995   -4.2084   -0.7741 C   0  0  0  0  0  0  0  0  0  0  0  0
    5.4906   -3.2610    0.4342 C   0  0  1  0  0  0  0  0  0  0  0  0
    6.8070   -3.4750    1.2557 C   0  0  0  0  0  0  0  0  0  0  0  0
    5.5340   -1.7607   -0.1101 C   0  0  2  0  0  0  0  0  0  0  0  0
    5.2385   -0.5570    0.8555 C   0  0  0  0  0  0  0  0  0  0  0  0
    5.5440   -0.7765    2.3155 C   0  0  0  0  0  0  0  0  0  0  0  0
    4.5855   -1.0408    3.2219 C   0  0  0  0  0  0  0  0  0  0  0  0
    4.2069   -1.4517    4.5912 C   0  0  2  0  0  0  0  0  0  0  0  0
    4.3550   -0.4356    5.7090 C   0  0  0  0  0  0  0  0  0  0  0  0
    4.3618   -2.9008    5.1024 C   0  0  0  0  0  0  0  0  0  0  0  0
    5.0968   -3.9124    4.1746 C   0  0  0  0  0  0  0  0  0  0  0  0
    4.4039   -5.1836    3.5636 C   0  0  1  0  0  0  0  0  0  0  0  0
    5.4025   -6.3549    3.8279 C   0  0  0  0  0  0  0  0  0  0  0  0
    3.0962   -5.5483    4.3027 C   0  0  0  0  0  0  0  0  0  0  0  0
    2.4623   -6.8588    3.8373 C   0  0  0  0  0  0  0  0  0  0  0  0
    2.1318   -6.8924    2.3348 C   0  0  0  0  0  0  0  0  0  0  0  0
    1.9268   -8.3688    1.9414 C   0  0  0  0  0  0  0  0  0  0  0  0
    0.7888   -6.1849    2.0792 C   0  0  0  0  0  0  0  0  0  0  0  0
    3.2875   -6.3124    1.4613 C   0  0  0  0  0  0  0  0  0  0  0  0
    4.1783   -5.1301    1.9959 C   0  0  1  0  0  0  0  0  0  0  0  0
    4.1280   -3.7750    1.1545 C   0  0  1  0  0  0  0  0  0  0  0  0
    2.9197   -2.8033    1.3837 C   0  0  0  0  0  0  0  0  0  0  0  0
    2.4605   -2.3352    2.7679 C   0  0  0  0  0  0  0  0  0  0  0  0
    1.4130   -2.7751    3.2527 O   0  0  0  0  0  0  0  0  0  0  0  0
    3.1506   -1.1833    3.4386 C   0  0  2  0  0  0  0  0  0  0  0  0
    2.2834    0.0693    3.4787 C   0  0  0  0  0  0  0  0  0  0  0  0
    2.9253   -2.3968   -1.3042 H   0  0  0  0  0  0  0  0  0  0  0  0
    3.0546   -1.2525   -2.6161 H   0  0  0  0  0  0  0  0  0  0  0  0
    3.0313   -0.6717   -0.9672 H   0  0  0  0  0  0  0  0  0  0  0  0
    5.2442   -0.5217   -1.8583 H   0  0  0  0  0  0  0  0  0  0  0  0
    4.9612   -2.3246   -3.5333 H   0  0  0  0  0  0  0  0  0  0  0  0
    6.4887   -2.4192   -2.6861 H   0  0  0  0  0  0  0  0  0  0  0  0
    4.0131   -4.1041   -2.0142 H   0  0  0  0  0  0  0  0  0  0  0  0
    5.4125   -4.6199   -2.8562 H   0  0  0  0  0  0  0  0  0  0  0  0
    5.6265   -5.2447   -0.5023 H   0  0  0  0  0  0  0  0  0  0  0  0
    6.8536   -4.1465   -1.0231 H   0  0  0  0  0  0  0  0  0  0  0  0
    6.9423   -2.7876    2.0716 H   0  0  0  0  0  0  0  0  0  0  0  0
    7.6979   -3.2798    0.6592 H   0  0  0  0  0  0  0  0  0  0  0  0
    6.9345   -4.4843    1.6389 H   0  0  0  0  0  0  0  0  0  0  0  0
    6.5919   -1.6133   -0.3193 H   0  0  0  0  0  0  0  0  0  0  0  0
    5.8371    0.2908    0.5221 H   0  0  0  0  0  0  0  0  0  0  0  0
    4.2092   -0.2114    0.7680 H   0  0  0  0  0  0  0  0  0  0  0  0
    6.5699   -0.7903    2.6167 H   0  0  0  0  0  0  0  0  0  0  0  0
    3.5358   -0.5389    6.4225 H   0  0  0  0  0  0  0  0  0  0  0  0
    4.3376    0.5788    5.3108 H   0  0  0  0  0  0  0  0  0  0  0  0
    5.2995   -0.5707    6.2363 H   0  0  0  0  0  0  0  0  0  0  0  0
    4.9300   -2.8559    6.0349 H   0  0  0  0  0  0  0  0  0  0  0  0
    3.3765   -3.2423    5.4147 H   0  0  0  0  0  0  0  0  0  0  0  0
    5.5593   -3.3607    3.3859 H   0  0  0  0  0  0  0  0  0  0  0  0
    5.9557   -4.2408    4.7630 H   0  0  0  0  0  0  0  0  0  0  0  0
    5.1124   -7.2728    3.3166 H   0  0  0  0  0  0  0  0  0  0  0  0
    5.4669   -6.5886    4.8945 H   0  0  0  0  0  0  0  0  0  0  0  0
    6.4125   -6.1224    3.4798 H   0  0  0  0  0  0  0  0  0  0  0  0
    3.2890   -5.6057    5.3748 H   0  0  0  0  0  0  0  0  0  0  0  0
    2.3590   -4.7679    4.1811 H   0  0  0  0  0  0  0  0  0  0  0  0
    3.1036   -7.7029    4.1010 H   0  0  0  0  0  0  0  0  0  0  0  0
    1.5514   -7.0034    4.4099 H   0  0  0  0  0  0  0  0  0  0  0  0
    1.6839   -8.4711    0.8868 H   0  0  0  0  0  0  0  0  0  0  0  0
    1.1226   -8.8373    2.5201 H   0  0  0  0  0  0  0  0  0  0  0  0
    2.8432   -8.9411    2.1270 H   0  0  0  0  0  0  0  0  0  0  0  0
    0.4799   -6.2650    1.0411 H   0  0  0  0  0  0  0  0  0  0  0  0
    0.8357   -5.1362    2.3424 H   0  0  0  0  0  0  0  0  0  0  0  0
   -0.0106   -6.6261    2.6719 H   0  0  0  0  0  0  0  0  0  0  0  0
    3.9630   -7.1419    1.2115 H   0  0  0  0  0  0  0  0  0  0  0  0
    2.8575   -6.0622    0.4984 H   0  0  0  0  0  0  0  0  0  0  0  0
    5.1296   -5.4936    1.6313 H   0  0  0  0  0  0  0  0  0  0  0  0
    3.6897   -4.1711    0.2461 H   0  0  0  0  0  0  0  0  0  0  0  0
    3.0413   -1.9073    0.7968 H   0  0  0  0  0  0  0  0  0  0  0  0
    2.0462   -3.2847    0.9560 H   0  0  0  0  0  0  0  0  0  0  0  0
    1.6172    0.1299    2.6180 H   0  0  0  0  0  0  0  0  0  0  0  0
    2.8982    0.9655    3.4917 H   0  0  0  0  0  0  0  0  0  0  0  0
    1.6761    0.0562    4.3816 H   0  0  0  0  0  0  0  0  0  0  0  0
  1  2  1  0
  1 31  1  0
  1 32  1  0
  1 33  1  0
  2  8  1  0
  2  3  1  0
  2 34  1  6
  3  4  1  0
  3 35  1  0
  3 36  1  0
  4  5  1  0
  4 37  1  0
  4 38  1  0
  5  6  1  0
  5 39  1  0
  5 40  1  0
  6 25  1  0
  6  7  1  1
  6  8  1  0
  7 41  1  0
  7 42  1  0
  7 43  1  0
  8  9  1  0
  8 44  1  6
  9 10  1  0
  9 45  1  0
  9 46  1  0
 10 11  2  3
 10 47  1  0
 11 29  1  0
 11 12  1  0
 12 29  1  0
 12 13  1  1
 12 14  1  0
 13 48  1  0
 13 49  1  0
 13 50  1  0
 14 15  1  0
 14 51  1  0
 14 52  1  0
 15 16  1  0
 15 53  1  0
 15 54  1  0
 16 24  1  0
 16 17  1  6
 16 18  1  0
 17 55  1  0
 17 56  1  0
 17 57  1  0
 18 19  1  0
 18 58  1  0
 18 59  1  0
 19 20  1  0
 19 60  1  0
 19 61  1  0
 20 21  1  0
 20 22  1  0
 20 23  1  0
 21 62  1  0
 21 63  1  0
 21 64  1  0
 22 65  1  0
 22 66  1  0
 22 67  1  0
 23 24  1  0
 23 68  1  0
 23 69  1  0
 24 25  1  0
 24 70  1  6
 25 26  1  0
 25 71  1  6
 26 27  1  0
 26 72  1  0
 26 73  1  0
 27 28  2  0
 27 29  1  0
 29 30  1  1
 30 74  1  0
 30 75  1  0
 30 76  1  0
M  END
>  <i_m_ct_stereo_status>  (359) 
1

>  <s_m_source_file>  (359) 
/var/tmp/pbs.5076255.sched01/tmpg0s73j8k/135j_ekwz2c.sdf

>  <i_m_source_file_index>  (359) 
13

>  <i_lp_mmshare_version>  (359) 
48012

>  <i_f3d_flags>  (359) 
0

>  <s_epik_input>  (359) 
W0NIMl0xW0NIMl1bQ0gyXVtDQEBIXShbQ0gzXSlbQ0BIXShbQ0BdMTJbQ0gzXSlbQ0gyXS9bQ0hdPUMzL0M0KFtDSDNdKUMzKFtDSDNdKUMoPU8pW0NIMl1bQ0BASF0yW0NASF01W0NAQF0oW0NIM10pKFtDSDJdW0NIMl00KVtDSDJdW0NIMl1DKFtDSDNdKShbQ0gzXSlbQ0gyXTU=

>  <s_epik_cmdline>  (359) 
J2VwaWtfcHl0aG9uJywgJy1waHQnLCAnMi4wJywgJy1waCcsICc3LjAnLCAnLXRuJywgJzgnLCAnLW1hJywgJzIwMCcsICctaW1hZScsICc8aW5maWxlLm1hZT4nLCAnLW9tYWUnLCAnPG91dGZpbGUubWFlPic=

>  <r_lp_tautomer_probability>  (359) 
1

>  <r_epik_Ionization_Penalty>  (359) 
8.52498e-14

>  <r_epik_Ionization_Penalty_Charging>  (359) 
0

>  <r_epik_Ionization_Penalty_Neutral>  (359) 
8.52498e-14

>  <r_epik_State_Penalty>  (359) 
-0

>  <r_epik_Charging_Adjusted_Penalty>  (359) 
0

>  <i_epik_Tot_Q>  (359) 
0

>  <i_epik_Tot_abs_Q>  (359) 
0

>  <s_lp_Force_Field>  (359) 
OPLS3e

>  <r_lp_Energy>  (359) 
126.077

>  <b_lp_Chiralities_Consistent>  (359) 
1

>  <s_lp_Variant>  (359) 
93:0-4

>  <s_i_glide_gridfile>  (359) 
pfpi4k_grid

>  <i_i_glide_lignum>  (359) 
13

>  <i_i_glide_rotatable_bonds>  (359) 
0

>  <r_i_docking_score>  (359) 
-2.42853

>  <r_i_glide_ligand_efficiency>  (359) 
-0.080951

>  <r_i_glide_ligand_efficiency_sa>  (359) 
-0.251534

>  <r_i_glide_ligand_efficiency_ln>  (359) 
-0.551789

>  <r_i_glide_gscore>  (359) 
-2.42853

>  <r_i_glide_lipo>  (359) 
-0.66331

>  <r_i_glide_hbond>  (359) 
0

>  <r_i_glide_metal>  (359) 
-0

>  <r_i_glide_rewards>  (359) 
-0.609034

>  <r_i_glide_evdw>  (359) 
-25.6121

>  <r_i_glide_ecoul>  (359) 
0.860324

>  <r_i_glide_erotb>  (359) 
0

>  <r_i_glide_esite>  (359) 
-0.00463275

>  <r_i_glide_emodel>  (359) 
-28.379

>  <r_i_glide_energy>  (359) 
-24.7517

>  <r_i_glide_einternal>  (359) 
0

>  <r_i_glide_intrahb_reward>  (359) 
-0

>  <i_i_glide_confnum>  (359) 
1

>  <i_i_glide_posenum>  (359) 
26

>  <r_i_glide_eff_state_penalty>  (359) 
0

>  <ligand_id>  (359) 
93

>  <original_smiles>  (359) 
CC1CCCC2(C)C1CC=C1C3(C)CCC4(C)CCC(C)(C)CC4C2CC(=O)C13C

>  <smiles>  (359) 
[H]C1=C2C3(C([H])([H])[H])C(=O)C([H])([H])C([H])(C4([H])C([H])([H])C(C([H])([H])[H])(C([H])([H])[H])C([H])([H])C([H])([H])C4(C([H])([H])[H])C([H])([H])C([H])([H])C23C([H])([H])[H])C2(C([H])([H])[H])C([H])([H])C([H])([H])C([H])([H])C([H])(C([H])([H])[H])C2([H])C1([H])[H]

$$$$
94:0:0
     RDKit          3D

 55 60  0  0  1  0  0  0  0  0999 V2000
    4.8212    0.1631    4.9137 C   0  0  0  0  0  0  0  0  0  0  0  0
    4.3285    0.1392    3.4746 C   0  0  0  0  0  0  0  0  0  0  0  0
    3.4150    0.8714    3.0983 O   0  0  0  0  0  0  0  0  0  0  0  0
    4.9949   -0.7633    2.7192 O   0  0  0  0  0  0  0  0  0  0  0  0
    4.7756   -0.8740    1.3103 C   0  0  2  0  0  0  0  0  0  0  0  0
    3.3839   -1.3019    0.8779 C   0  0  0  0  0  0  0  0  0  0  0  0
    3.2610   -2.8066    0.4999 C   0  0  1  0  0  0  0  0  0  0  0  0
    2.4650   -3.2996   -0.5351 N   0  0  1  0  0  0  0  0  0  0  0  0
    2.9863   -2.7771   -1.8602 C   0  0  0  0  0  0  0  0  0  0  0  0
    4.0921   -1.6008   -1.8605 C   0  0  0  0  0  0  0  0  0  0  0  0
    5.4647   -1.4878   -0.9855 C   0  0  0  0  0  0  0  0  0  0  0  0
    5.7118   -1.8582    0.6052 C   0  0  1  0  0  0  0  0  0  0  0  0
    6.9951   -1.2855    0.8098 O   0  0  0  0  0  0  0  0  0  0  0  0
    5.8921   -3.4169    1.2334 C   0  0  1  0  0  0  0  0  0  0  0  0
    6.6151   -3.9503   -0.0918 C   0  0  0  0  0  0  0  0  0  0  0  0
    5.3654   -4.2564   -1.0395 C   0  0  0  0  0  0  0  0  0  0  0  0
    4.2100   -4.1117    0.0109 C   0  0  1  0  0  0  0  0  0  0  0  0
    5.1929   -4.7476    0.8575 C   0  0  0  0  0  0  0  0  0  0  0  0
    2.8702   -4.6870    0.0471 C   0  0  1  0  0  0  0  0  0  0  0  0
    2.6196   -5.0537    1.6080 C   0  0  0  0  0  0  0  0  0  0  0  0
    1.4472   -5.7845    1.9260 C   0  0  0  0  0  0  0  0  0  0  0  0
    0.6342   -6.2573    0.9366 O   0  0  0  0  0  0  0  0  0  0  0  0
    1.0694   -5.9882    3.2666 C   0  0  0  0  0  0  0  0  0  0  0  0
    1.8431   -5.4588    4.3132 C   0  0  0  0  0  0  0  0  0  0  0  0
    3.0239   -4.7484    4.0381 C   0  0  0  0  0  0  0  0  0  0  0  0
    3.4777   -4.5309    2.7177 C   0  0  0  0  0  0  0  0  0  0  0  0
    4.9683   -3.7960    2.6126 C   0  0  0  0  0  0  0  0  0  0  0  0
    5.8752    0.4329    4.9488 H   0  0  0  0  0  0  0  0  0  0  0  0
    4.6879   -0.8141    5.3768 H   0  0  0  0  0  0  0  0  0  0  0  0
    4.2589    0.8974    5.4870 H   0  0  0  0  0  0  0  0  0  0  0  0
    4.9503    0.1305    0.9138 H   0  0  0  0  0  0  0  0  0  0  0  0
    2.6989   -1.0706    1.6946 H   0  0  0  0  0  0  0  0  0  0  0  0
    2.9819   -0.6225    0.1372 H   0  0  0  0  0  0  0  0  0  0  0  0
    2.4884   -2.8888    1.2653 H   0  0  0  0  0  0  0  0  0  0  0  0
    3.2536   -3.6026   -2.5176 H   0  0  0  0  0  0  0  0  0  0  0  0
    2.1096   -2.3510   -2.3476 H   0  0  0  0  0  0  0  0  0  0  0  0
    4.4182   -1.5428   -2.9019 H   0  0  0  0  0  0  0  0  0  0  0  0
    3.5547   -0.6573   -1.7828 H   0  0  0  0  0  0  0  0  0  0  0  0
    6.2704   -1.8556   -1.6172 H   0  0  0  0  0  0  0  0  0  0  0  0
    5.6778   -0.4204   -1.0532 H   0  0  0  0  0  0  0  0  0  0  0  0
    6.8965   -0.4142    1.1702 H   0  0  0  0  0  0  0  0  0  0  0  0
    7.3119   -3.2564   -0.5595 H   0  0  0  0  0  0  0  0  0  0  0  0
    7.3283   -4.7743    0.0506 H   0  0  0  0  0  0  0  0  0  0  0  0
    5.3334   -3.6957   -1.9630 H   0  0  0  0  0  0  0  0  0  0  0  0
    5.3915   -5.2646   -1.4620 H   0  0  0  0  0  0  0  0  0  0  0  0
    5.6530   -5.7101    0.5103 H   0  0  0  0  0  0  0  0  0  0  0  0
    4.9774   -5.6107    1.5026 H   0  0  0  0  0  0  0  0  0  0  0  0
    2.7207   -5.5184   -0.6302 H   0  0  0  0  0  0  0  0  0  0  0  0
    1.1334   -6.6287    0.2213 H   0  0  0  0  0  0  0  0  0  0  0  0
    0.1728   -6.5431    3.5025 H   0  0  0  0  0  0  0  0  0  0  0  0
    1.5324   -5.6092    5.3369 H   0  0  0  0  0  0  0  0  0  0  0  0
    3.6095   -4.3824    4.8672 H   0  0  0  0  0  0  0  0  0  0  0  0
    5.6099   -4.4455    3.2152 H   0  0  0  0  0  0  0  0  0  0  0  0
    4.9094   -2.9486    3.2776 H   0  0  0  0  0  0  0  0  0  0  0  0
    1.4942   -3.0676   -0.4200 H   0  0  0  0  0  0  0  0  0  0  0  0
  1  2  1  0
  1 28  1  0
  1 29  1  0
  1 30  1  0
  2  3  2  0
  2  4  1  0
  4  5  1  0
  5 12  1  0
  5  6  1  0
  5 31  1  6
  6  7  1  0
  6 32  1  0
  6 33  1  0
  7 17  1  0
  7  8  1  0
  7 34  1  1
  8 19  1  0
  8  9  1  0
  8 55  1  1
  9 10  1  0
  9 35  1  0
  9 36  1  0
 10 11  1  0
 10 37  1  0
 10 38  1  0
 11 12  1  0
 11 39  1  0
 11 40  1  0
 12 13  1  1
 12 14  1  0
 13 41  1  0
 14 18  1  0
 14 27  1  1
 14 15  1  0
 15 16  1  0
 15 42  1  0
 15 43  1  0
 17 16  1  6
 16 44  1  0
 16 45  1  0
 17 18  1  0
 17 19  1  0
 18 46  1  0
 18 47  1  0
 19 20  1  0
 19 48  1  6
 20 26  2  0
 20 21  1  0
 21 22  1  0
 21 23  2  0
 22 49  1  0
 23 24  1  0
 23 50  1  0
 24 25  2  0
 24 51  1  0
 25 26  1  0
 25 52  1  0
 26 27  1  0
 27 53  1  0
 27 54  1  0
M  CHG  1   8   1
M  END
>  <i_m_ct_stereo_status>  (360) 
1

>  <s_m_source_file>  (360) 
/var/tmp/pbs.5076255.sched01/tmpg0s73j8k/135j_ekwz2c.sdf

>  <i_m_source_file_index>  (360) 
14

>  <i_lp_mmshare_version>  (360) 
48012

>  <i_f3d_flags>  (360) 
0

>  <s_epik_input>  (360) 
W0NIM11DKD1PKU9bQ0BASF0oW0NAXTEoW0NAXTIzNClbT0hdKVtDSDJdW0NAQEhdNUMoW0NIMl0zKShbQ0gyXVtDSDJdMilbQ0BIXShONVtDSDJdW0NIMl1bQ0gyXTEpYzZjKFtDSDJdNClbY0hdW2NIXVtjSF1jNltPSF0=

>  <s_epik_cmdline>  (360) 
J2VwaWtfcHl0aG9uJywgJy1waHQnLCAnMi4wJywgJy1waCcsICc3LjAnLCAnLXRuJywgJzgnLCAnLW1hJywgJzIwMCcsICctaW1hZScsICc8aW5maWxlLm1hZT4nLCAnLW9tYWUnLCAnPG91dGZpbGUubWFlPic=

>  <r_lp_tautomer_probability>  (360) 
1

>  <r_epik_Ionization_Penalty>  (360) 
0.0280273

>  <r_epik_Ionization_Penalty_Charging>  (360) 
0.014413

>  <r_epik_Ionization_Penalty_Neutral>  (360) 
0.0136143

>  <r_epik_State_Penalty>  (360) 
0.0216789

>  <r_epik_Charging_Adjusted_Penalty>  (360) 
0.0360918

>  <i_epik_Tot_Q>  (360) 
1

>  <i_epik_Tot_abs_Q>  (360) 
1

>  <s_epik_Chemistry_Notes>  (360) 
This compound has an ester and may undergo hydrolysis at high or low pH.

>  <s_lp_Force_Field>  (360) 
OPLS3e

>  <r_lp_Energy>  (360) 
452.792

>  <b_lp_Chiralities_Consistent>  (360) 
1

>  <s_lp_Variant>  (360) 
94:0-1

>  <s_i_glide_gridfile>  (360) 
pfpi4k_grid

>  <i_i_glide_lignum>  (360) 
14

>  <i_i_glide_rotatable_bonds>  (360) 
4

>  <r_i_docking_score>  (360) 
-3.73774

>  <r_i_glide_ligand_efficiency>  (360) 
-0.138435

>  <r_i_glide_ligand_efficiency_sa>  (360) 
-0.415304

>  <r_i_glide_ligand_efficiency_ln>  (360) 
-0.870084

>  <r_i_glide_gscore>  (360) 
-3.73774

>  <r_i_glide_lipo>  (360) 
-0.489309

>  <r_i_glide_hbond>  (360) 
-0.209173

>  <r_i_glide_metal>  (360) 
-0

>  <r_i_glide_rewards>  (360) 
-0.90172

>  <r_i_glide_evdw>  (360) 
-24.7453

>  <r_i_glide_ecoul>  (360) 
-6.66864

>  <r_i_glide_erotb>  (360) 
0.140572

>  <r_i_glide_esite>  (360) 
-0.0405446

>  <r_i_glide_emodel>  (360) 
-37.1191

>  <r_i_glide_energy>  (360) 
-31.414

>  <r_i_glide_einternal>  (360) 
2.9923

>  <r_i_glide_intrahb_reward>  (360) 
-0

>  <i_i_glide_confnum>  (360) 
3

>  <i_i_glide_posenum>  (360) 
23

>  <r_i_glide_eff_state_penalty>  (360) 
0

>  <ligand_id>  (360) 
94

>  <original_smiles>  (360) 
CC(=O)OC1CC2N3CCCC1(O)C14CCC2(C1)C3c1c(O)cccc1C4

>  <smiles>  (360) 
[H]Oc1c([H])c([H])c([H])c2c1C1([H])C34C([H])([H])C([H])([H])C(C2([H])[H])(C3([H])[H])C2(O[H])C([H])([H])C([H])([H])C([H])([H])[N+]1([H])C4([H])C([H])([H])C2([H])OC(=O)C([H])([H])[H]

$$$$
94:0:1
     RDKit          3D

 55 60  0  0  1  0  0  0  0  0999 V2000
    4.7221    0.1819    4.8617 C   0  0  0  0  0  0  0  0  0  0  0  0
    4.2404    0.1423    3.4199 C   0  0  0  0  0  0  0  0  0  0  0  0
    3.3156    0.8596    3.0385 O   0  0  0  0  0  0  0  0  0  0  0  0
    4.9297   -0.7397    2.6656 O   0  0  0  0  0  0  0  0  0  0  0  0
    4.6979   -0.8650    1.2596 C   0  0  2  0  0  0  0  0  0  0  0  0
    3.3149   -1.3285    0.8430 C   0  0  0  0  0  0  0  0  0  0  0  0
    3.2187   -2.8408    0.4775 C   0  0  1  0  0  0  0  0  0  0  0  0
    2.4228   -3.3637   -0.5438 N   0  0  1  0  0  0  0  0  0  0  0  0
    2.9213   -2.8383   -1.8769 C   0  0  0  0  0  0  0  0  0  0  0  0
    4.0010   -1.6325   -1.8981 C   0  0  0  0  0  0  0  0  0  0  0  0
    5.3807   -1.4853   -1.0405 C   0  0  0  0  0  0  0  0  0  0  0  0
    5.6464   -1.8347    0.5535 C   0  0  1  0  0  0  0  0  0  0  0  0
    6.8999   -1.2078    0.7508 O   0  0  0  0  0  0  0  0  0  0  0  0
    5.8718   -3.3822    1.1968 C   0  0  1  0  0  0  0  0  0  0  0  0
    6.5951   -3.9108   -0.1316 C   0  0  0  0  0  0  0  0  0  0  0  0
    5.3433   -4.2567   -1.0641 C   0  0  0  0  0  0  0  0  0  0  0  0
    4.1943   -4.1304   -0.0052 C   0  0  1  0  0  0  0  0  0  0  0  0
    5.1992   -4.7346    0.8417 C   0  0  0  0  0  0  0  0  0  0  0  0
    2.8632   -4.7341    0.0541 C   0  0  1  0  0  0  0  0  0  0  0  0
    2.6331   -5.0860    1.6187 C   0  0  0  0  0  0  0  0  0  0  0  0
    1.4892   -5.8497    1.9593 C   0  0  0  0  0  0  0  0  0  0  0  0
    0.6782   -6.3634    0.9848 O   0  0  0  0  0  0  0  0  0  0  0  0
    1.1341   -6.0546    3.3040 C   0  0  0  0  0  0  0  0  0  0  0  0
    1.9017   -5.4894    4.3324 C   0  0  0  0  0  0  0  0  0  0  0  0
    3.0608   -4.7503    4.0391 C   0  0  0  0  0  0  0  0  0  0  0  0
    3.4911   -4.5332    2.7143 C   0  0  0  0  0  0  0  0  0  0  0  0
    4.9669   -3.7679    2.5872 C   0  0  0  0  0  0  0  0  0  0  0  0
    5.7657    0.4912    4.9002 H   0  0  0  0  0  0  0  0  0  0  0  0
    4.6219   -0.7997    5.3246 H   0  0  0  0  0  0  0  0  0  0  0  0
    4.1297    0.8965    5.4328 H   0  0  0  0  0  0  0  0  0  0  0  0
    4.8510    0.1381    0.8527 H   0  0  0  0  0  0  0  0  0  0  0  0
    2.6285   -1.1016    1.6602 H   0  0  0  0  0  0  0  0  0  0  0  0
    2.8947   -0.6631    0.0993 H   0  0  0  0  0  0  0  0  0  0  0  0
    2.4580   -2.9292    1.2522 H   0  0  0  0  0  0  0  0  0  0  0  0
    3.2051   -3.6626   -2.5292 H   0  0  0  0  0  0  0  0  0  0  0  0
    2.0293   -2.4402   -2.3614 H   0  0  0  0  0  0  0  0  0  0  0  0
    4.3180   -1.5809   -2.9409 H   0  0  0  0  0  0  0  0  0  0  0  0
    3.4542   -0.6920   -1.8294 H   0  0  0  0  0  0  0  0  0  0  0  0
    6.1932   -1.8371   -1.6748 H   0  0  0  0  0  0  0  0  0  0  0  0
    5.5707   -0.4138   -1.1178 H   0  0  0  0  0  0  0  0  0  0  0  0
    6.9523   -0.9526    1.6622 H   0  0  0  0  0  0  0  0  0  0  0  0
    7.2711   -3.2041   -0.6095 H   0  0  0  0  0  0  0  0  0  0  0  0
    7.3297   -4.7158    0.0097 H   0  0  0  0  0  0  0  0  0  0  0  0
    5.2907   -3.7045   -1.9916 H   0  0  0  0  0  0  0  0  0  0  0  0
    5.3905   -5.2699   -1.4783 H   0  0  0  0  0  0  0  0  0  0  0  0
    5.6827   -5.6880    0.4997 H   0  0  0  0  0  0  0  0  0  0  0  0
    5.0042   -5.5952    1.4986 H   0  0  0  0  0  0  0  0  0  0  0  0
    2.7256   -5.5826   -0.6039 H   0  0  0  0  0  0  0  0  0  0  0  0
    0.2830   -7.1863    1.2509 H   0  0  0  0  0  0  0  0  0  0  0  0
    0.2524   -6.6230    3.5633 H   0  0  0  0  0  0  0  0  0  0  0  0
    1.6049   -5.6323    5.3629 H   0  0  0  0  0  0  0  0  0  0  0  0
    3.6457   -4.3609    4.8591 H   0  0  0  0  0  0  0  0  0  0  0  0
    5.6288   -4.3980    3.1912 H   0  0  0  0  0  0  0  0  0  0  0  0
    4.8960   -2.9183    3.2469 H   0  0  0  0  0  0  0  0  0  0  0  0
    1.4454   -3.1552   -0.4192 H   0  0  0  0  0  0  0  0  0  0  0  0
  1  2  1  0
  1 28  1  0
  1 29  1  0
  1 30  1  0
  2  3  2  0
  2  4  1  0
  4  5  1  0
  5 12  1  0
  5  6  1  0
  5 31  1  6
  6  7  1  0
  6 32  1  0
  6 33  1  0
  7 17  1  0
  7  8  1  0
  7 34  1  1
  8 19  1  0
  8  9  1  0
  8 55  1  1
  9 10  1  0
  9 35  1  0
  9 36  1  0
 10 11  1  0
 10 37  1  0
 10 38  1  0
 11 12  1  0
 11 39  1  0
 11 40  1  0
 12 13  1  1
 12 14  1  0
 13 41  1  0
 14 18  1  0
 14 27  1  1
 14 15  1  0
 15 16  1  0
 15 42  1  0
 15 43  1  0
 17 16  1  6
 16 44  1  0
 16 45  1  0
 17 18  1  0
 17 19  1  0
 18 46  1  0
 18 47  1  0
 19 20  1  0
 19 48  1  6
 20 26  2  0
 20 21  1  0
 21 22  1  0
 21 23  2  0
 22 49  1  0
 23 24  1  0
 23 50  1  0
 24 25  2  0
 24 51  1  0
 25 26  1  0
 25 52  1  0
 26 27  1  0
 27 53  1  0
 27 54  1  0
M  CHG  1   8   1
M  END
>  <i_m_ct_stereo_status>  (361) 
1

>  <s_m_source_file>  (361) 
/var/tmp/pbs.5076255.sched01/tmpg0s73j8k/135j_ekwz2c.sdf

>  <i_m_source_file_index>  (361) 
14

>  <i_lp_mmshare_version>  (361) 
48012

>  <i_f3d_flags>  (361) 
0

>  <s_epik_input>  (361) 
W0NIM11DKD1PKU9bQ0BASF0oW0NAXTEoW0NAXTIzNClbT0hdKVtDSDJdW0NAQEhdNUMoW0NIMl0zKShbQ0gyXVtDSDJdMilbQ0BIXShONVtDSDJdW0NIMl1bQ0gyXTEpYzZjKFtDSDJdNClbY0hdW2NIXVtjSF1jNltPSF0=

>  <s_epik_cmdline>  (361) 
J2VwaWtfcHl0aG9uJywgJy1waHQnLCAnMi4wJywgJy1waCcsICc3LjAnLCAnLXRuJywgJzgnLCAnLW1hJywgJzIwMCcsICctaW1hZScsICc8aW5maWxlLm1hZT4nLCAnLW9tYWUnLCAnPG91dGZpbGUubWFlPic=

>  <r_lp_tautomer_probability>  (361) 
1

>  <r_epik_Ionization_Penalty>  (361) 
0.0280273

>  <r_epik_Ionization_Penalty_Charging>  (361) 
0.014413

>  <r_epik_Ionization_Penalty_Neutral>  (361) 
0.0136143

>  <r_epik_State_Penalty>  (361) 
0.0216789

>  <r_epik_Charging_Adjusted_Penalty>  (361) 
0.0360918

>  <i_epik_Tot_Q>  (361) 
1

>  <i_epik_Tot_abs_Q>  (361) 
1

>  <s_epik_Chemistry_Notes>  (361) 
This compound has an ester and may undergo hydrolysis at high or low pH.

>  <s_lp_Force_Field>  (361) 
OPLS3e

>  <r_lp_Energy>  (361) 
452.792

>  <b_lp_Chiralities_Consistent>  (361) 
1

>  <s_lp_Variant>  (361) 
94:0-1

>  <s_i_glide_gridfile>  (361) 
pfpi4k_grid

>  <i_i_glide_lignum>  (361) 
14

>  <i_i_glide_rotatable_bonds>  (361) 
4

>  <r_i_docking_score>  (361) 
-3.66937

>  <r_i_glide_ligand_efficiency>  (361) 
-0.135903

>  <r_i_glide_ligand_efficiency_sa>  (361) 
-0.407708

>  <r_i_glide_ligand_efficiency_ln>  (361) 
-0.854169

>  <r_i_glide_gscore>  (361) 
-3.66937

>  <r_i_glide_lipo>  (361) 
-0.46976

>  <r_i_glide_hbond>  (361) 
-0.189668

>  <r_i_glide_metal>  (361) 
-0

>  <r_i_glide_rewards>  (361) 
-0.890733

>  <r_i_glide_evdw>  (361) 
-24.9871

>  <r_i_glide_ecoul>  (361) 
-6.45584

>  <r_i_glide_erotb>  (361) 
0.140572

>  <r_i_glide_esite>  (361) 
-0.0420487

>  <r_i_glide_emodel>  (361) 
-37.4128

>  <r_i_glide_energy>  (361) 
-31.443

>  <r_i_glide_einternal>  (361) 
2.68909

>  <r_i_glide_intrahb_reward>  (361) 
-0

>  <i_i_glide_confnum>  (361) 
1

>  <i_i_glide_posenum>  (361) 
15

>  <r_i_glide_eff_state_penalty>  (361) 
0

>  <ligand_id>  (361) 
94

>  <original_smiles>  (361) 
CC(=O)OC1CC2N3CCCC1(O)C14CCC2(C1)C3c1c(O)cccc1C4

>  <smiles>  (361) 
[H]Oc1c([H])c([H])c([H])c2c1C1([H])C34C([H])([H])C([H])([H])C(C2([H])[H])(C3([H])[H])C2(O[H])C([H])([H])C([H])([H])C([H])([H])[N+]1([H])C4([H])C([H])([H])C2([H])OC(=O)C([H])([H])[H]

$$$$
94:0:2
     RDKit          3D

 55 60  0  0  1  0  0  0  0  0999 V2000
    3.1720   -2.9830   -3.9832 C   0  0  0  0  0  0  0  0  0  0  0  0
    3.2436   -1.6468   -3.2579 C   0  0  0  0  0  0  0  0  0  0  0  0
    3.1200   -0.5942   -3.8886 O   0  0  0  0  0  0  0  0  0  0  0  0
    3.4386   -1.6870   -1.9197 O   0  0  0  0  0  0  0  0  0  0  0  0
    3.7758   -2.8837   -1.2110 C   0  0  2  0  0  0  0  0  0  0  0  0
    2.6747   -3.4734   -0.3776 C   0  0  0  0  0  0  0  0  0  0  0  0
    2.8359   -3.2037    1.1436 C   0  0  1  0  0  0  0  0  0  0  0  0
    2.5263   -4.1203    2.1494 N   0  0  1  0  0  0  0  0  0  0  0  0
    3.4462   -5.3202    2.0192 C   0  0  0  0  0  0  0  0  0  0  0  0
    4.3654   -5.4781    0.6924 C   0  0  0  0  0  0  0  0  0  0  0  0
    5.3157   -4.3665   -0.0394 C   0  0  0  0  0  0  0  0  0  0  0  0
    4.9966   -2.7654   -0.3262 C   0  0  1  0  0  0  0  0  0  0  0  0
    6.0205   -2.4182   -1.2530 O   0  0  0  0  0  0  0  0  0  0  0  0
    5.0628   -1.5212    0.7984 C   0  0  1  0  0  0  0  0  0  0  0  0
    6.2612   -2.2185    1.5754 C   0  0  0  0  0  0  0  0  0  0  0  0
    5.4944   -3.2751    2.5027 C   0  0  0  0  0  0  0  0  0  0  0  0
    4.0242   -2.7928    2.2721 C   0  0  1  0  0  0  0  0  0  0  0  0
    4.6831   -1.5024    2.2973 C   0  0  0  0  0  0  0  0  0  0  0  0
    2.8318   -2.9352    3.1064 C   0  0  1  0  0  0  0  0  0  0  0  0
    2.0662   -1.5160    2.9263 C   0  0  0  0  0  0  0  0  0  0  0  0
    0.9343   -1.2868    3.7489 C   0  0  0  0  0  0  0  0  0  0  0  0
    0.5944   -2.1712    4.7208 O   0  0  0  0  0  0  0  0  0  0  0  0
    0.1164   -0.1518    3.5517 C   0  0  0  0  0  0  0  0  0  0  0  0
    0.3850    0.7452    2.5135 C   0  0  0  0  0  0  0  0  0  0  0  0
    1.5108    0.5652    1.6867 C   0  0  0  0  0  0  0  0  0  0  0  0
    2.3923   -0.5262    1.8658 C   0  0  0  0  0  0  0  0  0  0  0  0
    3.7320   -0.4736    0.8683 C   0  0  0  0  0  0  0  0  0  0  0  0
    2.3675   -3.5885   -3.5613 H   0  0  0  0  0  0  0  0  0  0  0  0
    4.1204   -3.5126   -3.9174 H   0  0  0  0  0  0  0  0  0  0  0  0
    2.9907   -2.8512   -5.0476 H   0  0  0  0  0  0  0  0  0  0  0  0
    4.0165   -3.6720   -1.9134 H   0  0  0  0  0  0  0  0  0  0  0  0
    1.7488   -3.0564   -0.7742 H   0  0  0  0  0  0  0  0  0  0  0  0
    2.5037   -4.5104   -0.6413 H   0  0  0  0  0  0  0  0  0  0  0  0
    1.8557   -2.7371    1.1165 H   0  0  0  0  0  0  0  0  0  0  0  0
    4.0394   -5.4477    2.9254 H   0  0  0  0  0  0  0  0  0  0  0  0
    2.7988   -6.1922    2.0315 H   0  0  0  0  0  0  0  0  0  0  0  0
    5.0505   -6.2948    0.9401 H   0  0  0  0  0  0  0  0  0  0  0  0
    3.7676   -5.9783   -0.0724 H   0  0  0  0  0  0  0  0  0  0  0  0
    6.3346   -4.5237    0.3110 H   0  0  0  0  0  0  0  0  0  0  0  0
    5.4328   -4.8194   -1.0270 H   0  0  0  0  0  0  0  0  0  0  0  0
    6.0082   -3.0442   -1.9632 H   0  0  0  0  0  0  0  0  0  0  0  0
    7.0072   -2.7054    0.9481 H   0  0  0  0  0  0  0  0  0  0  0  0
    6.9452   -1.5206    2.0760 H   0  0  0  0  0  0  0  0  0  0  0  0
    5.7588   -4.3064    2.3244 H   0  0  0  0  0  0  0  0  0  0  0  0
    5.7857   -3.1974    3.5553 H   0  0  0  0  0  0  0  0  0  0  0  0
    5.3339   -1.2484    3.1716 H   0  0  0  0  0  0  0  0  0  0  0  0
    4.3379   -0.6493    2.8955 H   0  0  0  0  0  0  0  0  0  0  0  0
    3.0514   -3.2064    4.1369 H   0  0  0  0  0  0  0  0  0  0  0  0
   -0.1260   -1.8536    5.2497 H   0  0  0  0  0  0  0  0  0  0  0  0
   -0.7548    0.0161    4.1722 H   0  0  0  0  0  0  0  0  0  0  0  0
   -0.2704    1.5913    2.3328 H   0  0  0  0  0  0  0  0  0  0  0  0
    1.6915    1.2797    0.9095 H   0  0  0  0  0  0  0  0  0  0  0  0
    4.1548    0.5139    1.0637 H   0  0  0  0  0  0  0  0  0  0  0  0
    3.3379   -0.3046   -0.1156 H   0  0  0  0  0  0  0  0  0  0  0  0
    1.5516   -4.3721    2.1776 H   0  0  0  0  0  0  0  0  0  0  0  0
  1  2  1  0
  1 28  1  0
  1 29  1  0
  1 30  1  0
  2  3  2  0
  2  4  1  0
  4  5  1  0
  5 12  1  0
  5  6  1  0
  5 31  1  6
  6  7  1  0
  6 32  1  0
  6 33  1  0
  7 17  1  0
  7  8  1  0
  7 34  1  1
  8 19  1  0
  8  9  1  0
  8 55  1  6
  9 10  1  0
  9 35  1  0
  9 36  1  0
 10 11  1  0
 10 37  1  0
 10 38  1  0
 11 12  1  0
 11 39  1  0
 11 40  1  0
 12 13  1  6
 12 14  1  0
 13 41  1  0
 14 18  1  0
 14 27  1  6
 14 15  1  0
 15 16  1  0
 15 42  1  0
 15 43  1  0
 17 16  1  1
 16 44  1  0
 16 45  1  0
 17 18  1  0
 17 19  1  0
 18 46  1  0
 18 47  1  0
 19 20  1  0
 19 48  1  1
 20 26  2  0
 20 21  1  0
 21 22  1  0
 21 23  2  0
 22 49  1  0
 23 24  1  0
 23 50  1  0
 24 25  2  0
 24 51  1  0
 25 26  1  0
 25 52  1  0
 26 27  1  0
 27 53  1  0
 27 54  1  0
M  CHG  1   8   1
M  END
>  <i_m_ct_stereo_status>  (362) 
1

>  <s_m_source_file>  (362) 
/var/tmp/pbs.5076255.sched01/tmpg0s73j8k/135j_ekwz2c.sdf

>  <i_m_source_file_index>  (362) 
14

>  <i_lp_mmshare_version>  (362) 
48012

>  <i_f3d_flags>  (362) 
0

>  <s_epik_input>  (362) 
W0NIM11DKD1PKU9bQ0BASF0oW0NAXTEoW0NAXTIzNClbT0hdKVtDSDJdW0NAQEhdNUMoW0NIMl0zKShbQ0gyXVtDSDJdMilbQ0BIXShONVtDSDJdW0NIMl1bQ0gyXTEpYzZjKFtDSDJdNClbY0hdW2NIXVtjSF1jNltPSF0=

>  <s_epik_cmdline>  (362) 
J2VwaWtfcHl0aG9uJywgJy1waHQnLCAnMi4wJywgJy1waCcsICc3LjAnLCAnLXRuJywgJzgnLCAnLW1hJywgJzIwMCcsICctaW1hZScsICc8aW5maWxlLm1hZT4nLCAnLW9tYWUnLCAnPG91dGZpbGUubWFlPic=

>  <r_lp_tautomer_probability>  (362) 
1

>  <r_epik_Ionization_Penalty>  (362) 
0.0280273

>  <r_epik_Ionization_Penalty_Charging>  (362) 
0.014413

>  <r_epik_Ionization_Penalty_Neutral>  (362) 
0.0136143

>  <r_epik_State_Penalty>  (362) 
0.0216789

>  <r_epik_Charging_Adjusted_Penalty>  (362) 
0.0360918

>  <i_epik_Tot_Q>  (362) 
1

>  <i_epik_Tot_abs_Q>  (362) 
1

>  <s_epik_Chemistry_Notes>  (362) 
This compound has an ester and may undergo hydrolysis at high or low pH.

>  <s_lp_Force_Field>  (362) 
OPLS3e

>  <r_lp_Energy>  (362) 
452.792

>  <b_lp_Chiralities_Consistent>  (362) 
1

>  <s_lp_Variant>  (362) 
94:0-1

>  <s_i_glide_gridfile>  (362) 
pfpi4k_grid

>  <i_i_glide_lignum>  (362) 
14

>  <i_i_glide_rotatable_bonds>  (362) 
4

>  <r_i_docking_score>  (362) 
-3.22891

>  <r_i_glide_ligand_efficiency>  (362) 
-0.119589

>  <r_i_glide_ligand_efficiency_sa>  (362) 
-0.358768

>  <r_i_glide_ligand_efficiency_ln>  (362) 
-0.751637

>  <r_i_glide_gscore>  (362) 
-3.22891

>  <r_i_glide_lipo>  (362) 
-0.440831

>  <r_i_glide_hbond>  (362) 
0

>  <r_i_glide_metal>  (362) 
-0

>  <r_i_glide_rewards>  (362) 
-1.00106

>  <r_i_glide_evdw>  (362) 
-30.9619

>  <r_i_glide_ecoul>  (362) 
-2.47229

>  <r_i_glide_erotb>  (362) 
0.140572

>  <r_i_glide_esite>  (362) 
-0.00864881

>  <r_i_glide_emodel>  (362) 
-37.6703

>  <r_i_glide_energy>  (362) 
-33.4342

>  <r_i_glide_einternal>  (362) 
5.54444

>  <r_i_glide_intrahb_reward>  (362) 
-0

>  <i_i_glide_confnum>  (362) 
3

>  <i_i_glide_posenum>  (362) 
7

>  <r_i_glide_eff_state_penalty>  (362) 
0

>  <ligand_id>  (362) 
94

>  <original_smiles>  (362) 
CC(=O)OC1CC2N3CCCC1(O)C14CCC2(C1)C3c1c(O)cccc1C4

>  <smiles>  (362) 
[H]Oc1c([H])c([H])c([H])c2c1C1([H])C34C([H])([H])C([H])([H])C(C2([H])[H])(C3([H])[H])C2(O[H])C([H])([H])C([H])([H])C([H])([H])[N+]1([H])C4([H])C([H])([H])C2([H])OC(=O)C([H])([H])[H]

$$$$
94:1:0
     RDKit          3D

 54 59  0  0  1  0  0  0  0  0999 V2000
    4.2054   -1.8377   -3.1640 C   0  0  0  0  0  0  0  0  0  0  0  0
    4.6286   -3.3151   -3.2078 C   0  0  0  0  0  0  0  0  0  0  0  0
    4.6112   -3.9164   -4.2839 O   0  0  0  0  0  0  0  0  0  0  0  0
    4.9773   -3.9250   -2.0398 O   0  0  0  0  0  0  0  0  0  0  0  0
    4.9771   -3.3029   -0.7593 C   0  0  2  0  0  0  0  0  0  0  0  0
    5.5652   -4.3294    0.3312 C   0  0  0  0  0  0  0  0  0  0  0  0
    5.2135   -3.8560    1.7530 C   0  0  1  0  0  0  0  0  0  0  0  0
    4.1471   -4.2457    2.6789 N   0  0  0  0  0  0  0  0  0  0  0  0
    2.8908   -4.7987    2.0515 C   0  0  0  0  0  0  0  0  0  0  0  0
    2.6508   -4.8995    0.4901 C   0  0  0  0  0  0  0  0  0  0  0  0
    2.6144   -3.6004   -0.4861 C   0  0  0  0  0  0  0  0  0  0  0  0
    3.6861   -2.3518   -0.3679 C   0  0  2  0  0  0  0  0  0  0  0  0
    2.6296   -2.3973    0.4760 O   0  0  0  0  0  0  0  0  0  0  0  0
    4.1164   -1.1203    0.7728 C   0  0  2  0  0  0  0  0  0  0  0  0
    5.4974   -0.6582    0.3435 C   0  0  0  0  0  0  0  0  0  0  0  0
    6.3817   -1.6589    1.2481 C   0  0  0  0  0  0  0  0  0  0  0  0
    5.5442   -2.4758    2.4191 C   0  0  2  0  0  0  0  0  0  0  0  0
    4.8967   -1.1604    2.2031 C   0  0  0  0  0  0  0  0  0  0  0  0
    4.0969   -2.8397    3.1749 C   0  0  1  0  0  0  0  0  0  0  0  0
    2.6640   -2.0711    3.3302 C   0  0  0  0  0  0  0  0  0  0  0  0
    1.8142   -2.5547    4.3653 C   0  0  0  0  0  0  0  0  0  0  0  0
    2.1734   -3.6399    5.1125 O   0  0  0  0  0  0  0  0  0  0  0  0
    0.5892   -1.9263    4.6532 C   0  0  0  0  0  0  0  0  0  0  0  0
    0.1837   -0.7891    3.9520 C   0  0  0  0  0  0  0  0  0  0  0  0
    0.9919   -0.2592    2.9386 C   0  0  0  0  0  0  0  0  0  0  0  0
    2.2190   -0.8699    2.6071 C   0  0  0  0  0  0  0  0  0  0  0  0
    2.9849   -0.1787    1.4043 C   0  0  0  0  0  0  0  0  0  0  0  0
    3.2809   -1.7419   -2.5809 H   0  0  0  0  0  0  0  0  0  0  0  0
    4.0156   -1.4210   -4.1672 H   0  0  0  0  0  0  0  0  0  0  0  0
    4.9999   -1.2430   -2.6987 H   0  0  0  0  0  0  0  0  0  0  0  0
    5.8128   -2.6660   -0.9490 H   0  0  0  0  0  0  0  0  0  0  0  0
    5.2655   -5.3749    0.1544 H   0  0  0  0  0  0  0  0  0  0  0  0
    6.6549   -4.4021    0.2035 H   0  0  0  0  0  0  0  0  0  0  0  0
    4.4131   -3.5008    1.2451 H   0  0  0  0  0  0  0  0  0  0  0  0
    2.8596   -5.8204    2.4040 H   0  0  0  0  0  0  0  0  0  0  0  0
    2.0295   -4.3250    2.4904 H   0  0  0  0  0  0  0  0  0  0  0  0
    3.2762   -5.6711    0.0511 H   0  0  0  0  0  0  0  0  0  0  0  0
    1.6689   -5.3598    0.3676 H   0  0  0  0  0  0  0  0  0  0  0  0
    2.8204   -4.1073   -1.4082 H   0  0  0  0  0  0  0  0  0  0  0  0
    1.5767   -3.4300   -0.8951 H   0  0  0  0  0  0  0  0  0  0  0  0
    1.9588   -1.8149    0.1396 H   0  0  0  0  0  0  0  0  0  0  0  0
    5.6706   -0.7380   -0.7210 H   0  0  0  0  0  0  0  0  0  0  0  0
    5.6930    0.3912    0.5572 H   0  0  0  0  0  0  0  0  0  0  0  0
    7.0074   -2.2981    0.6404 H   0  0  0  0  0  0  0  0  0  0  0  0
    7.1754   -1.0646    1.7126 H   0  0  0  0  0  0  0  0  0  0  0  0
    5.4611   -0.2420    2.5055 H   0  0  0  0  0  0  0  0  0  0  0  0
    4.5010   -0.7068    3.1250 H   0  0  0  0  0  0  0  0  0  0  0  0
    4.4041   -2.8860    4.2195 H   0  0  0  0  0  0  0  0  0  0  0  0
    3.0065   -4.0107    4.8555 H   0  0  0  0  0  0  0  0  0  0  0  0
   -0.0388   -2.3371    5.4287 H   0  0  0  0  0  0  0  0  0  0  0  0
   -0.7637   -0.3218    4.1619 H   0  0  0  0  0  0  0  0  0  0  0  0
    0.6710    0.5997    2.3764 H   0  0  0  0  0  0  0  0  0  0  0  0
    3.4187    0.7621    1.7511 H   0  0  0  0  0  0  0  0  0  0  0  0
    2.2851    0.1096    0.6210 H   0  0  0  0  0  0  0  0  0  0  0  0
  1  2  1  0
  1 28  1  0
  1 29  1  0
  1 30  1  0
  2  3  2  0
  2  4  1  0
  4  5  1  0
  5 12  1  0
  5  6  1  0
  5 31  1  6
  6  7  1  0
  6 32  1  0
  6 33  1  0
  7 17  1  0
  7  8  1  0
  7 34  1  1
  8 19  1  0
  8  9  1  0
  9 10  1  0
  9 35  1  0
  9 36  1  0
 10 11  1  0
 10 37  1  0
 10 38  1  0
 11 12  1  0
 11 39  1  0
 11 40  1  0
 12 13  1  1
 12 14  1  0
 13 41  1  0
 14 18  1  0
 14 27  1  1
 14 15  1  0
 15 16  1  0
 15 42  1  0
 15 43  1  0
 17 16  1  1
 16 44  1  0
 16 45  1  0
 17 18  1  0
 17 19  1  0
 18 46  1  0
 18 47  1  0
 19 20  1  0
 19 48  1  1
 20 26  2  0
 20 21  1  0
 21 22  1  0
 21 23  2  0
 22 49  1  0
 23 24  1  0
 23 50  1  0
 24 25  2  0
 24 51  1  0
 25 26  1  0
 25 52  1  0
 26 27  1  0
 27 53  1  0
 27 54  1  0
M  END
>  <i_m_ct_stereo_status>  (363) 
1

>  <s_m_source_file>  (363) 
/var/tmp/pbs.5076255.sched01/tmpg0s73j8k/135j_ekwz2c.sdf

>  <i_m_source_file_index>  (363) 
15

>  <i_lp_mmshare_version>  (363) 
48012

>  <i_f3d_flags>  (363) 
0

>  <s_epik_input>  (363) 
W0NIM11DKD1PKU9bQ0BASF0oW0NAXTEoW0NAXTIzNClbT0hdKVtDSDJdW0NAQEhdNUMoW0NIMl0zKShbQ0gyXVtDSDJdMilbQ0BIXShONVtDSDJdW0NIMl1bQ0gyXTEpYzZjKFtDSDJdNClbY0hdW2NIXVtjSF1jNltPSF0=

>  <s_epik_cmdline>  (363) 
J2VwaWtfcHl0aG9uJywgJy1waHQnLCAnMi4wJywgJy1waCcsICc3LjAnLCAnLXRuJywgJzgnLCAnLW1hJywgJzIwMCcsICctaW1hZScsICc8aW5maWxlLm1hZT4nLCAnLW9tYWUnLCAnPG91dGZpbGUubWFlPic=

>  <r_lp_tautomer_probability>  (363) 
1

>  <r_epik_Ionization_Penalty>  (363) 
2.20912

>  <r_epik_Ionization_Penalty_Charging>  (363) 
0

>  <r_epik_Ionization_Penalty_Neutral>  (363) 
2.20912

>  <r_epik_State_Penalty>  (363) 
2.36347

>  <r_epik_Charging_Adjusted_Penalty>  (363) 
2.36347

>  <i_epik_Tot_Q>  (363) 
0

>  <i_epik_Tot_abs_Q>  (363) 
0

>  <s_epik_Chemistry_Notes>  (363) 
This compound has an ester and may undergo hydrolysis at high or low pH.

>  <s_lp_Force_Field>  (363) 
OPLS3e

>  <r_lp_Energy>  (363) 
507.23

>  <b_lp_Chiralities_Consistent>  (363) 
1

>  <s_lp_Variant>  (363) 
94:0-2

>  <s_i_glide_gridfile>  (363) 
pfpi4k_grid

>  <i_i_glide_lignum>  (363) 
15

>  <i_i_glide_rotatable_bonds>  (363) 
4

>  <r_i_docking_score>  (363) 
-3.85547

>  <r_i_glide_ligand_efficiency>  (363) 
-0.142795

>  <r_i_glide_ligand_efficiency_sa>  (363) 
-0.428386

>  <r_i_glide_ligand_efficiency_ln>  (363) 
-0.89749

>  <r_i_glide_gscore>  (363) 
-3.85547

>  <r_i_glide_lipo>  (363) 
-0.645636

>  <r_i_glide_hbond>  (363) 
-0.169546

>  <r_i_glide_metal>  (363) 
-0

>  <r_i_glide_rewards>  (363) 
-1.12312

>  <r_i_glide_evdw>  (363) 
-30.7175

>  <r_i_glide_ecoul>  (363) 
-3.48369

>  <r_i_glide_erotb>  (363) 
0.141258

>  <r_i_glide_esite>  (363) 
0

>  <r_i_glide_emodel>  (363) 
-39.2231

>  <r_i_glide_energy>  (363) 
-34.2012

>  <r_i_glide_einternal>  (363) 
6.55032

>  <r_i_glide_intrahb_reward>  (363) 
-0

>  <i_i_glide_confnum>  (363) 
1

>  <i_i_glide_posenum>  (363) 
33

>  <r_i_glide_eff_state_penalty>  (363) 
0

>  <ligand_id>  (363) 
94

>  <original_smiles>  (363) 
CC(=O)OC1CC2N3CCCC1(O)C14CCC2(C1)C3c1c(O)cccc1C4

>  <smiles>  (363) 
[H]Oc1c([H])c([H])c([H])c2c1C1([H])N3C([H])([H])C([H])([H])C([H])([H])C4(O[H])C([H])(OC(=O)C([H])([H])[H])C([H])([H])C3([H])C13C([H])([H])C([H])([H])C4(C2([H])[H])C3([H])[H]

$$$$
94:1:1
     RDKit          3D

 54 59  0  0  1  0  0  0  0  0999 V2000
    1.0456   -4.2973    4.9783 C   0  0  0  0  0  0  0  0  0  0  0  0
    1.4417   -2.9455    5.5911 C   0  0  0  0  0  0  0  0  0  0  0  0
    0.8242   -2.4997    6.5538 O   0  0  0  0  0  0  0  0  0  0  0  0
    2.4878   -2.2509    5.0449 O   0  0  0  0  0  0  0  0  0  0  0  0
    3.2514   -2.6772    3.9093 C   0  0  2  0  0  0  0  0  0  0  0  0
    4.6149   -1.8663    3.8561 C   0  0  0  0  0  0  0  0  0  0  0  0
    5.2227   -2.0324    2.4715 C   0  0  1  0  0  0  0  0  0  0  0  0
    5.2483   -1.1654    1.3107 N   0  0  0  0  0  0  0  0  0  0  0  0
    4.0532   -0.2537    1.1731 C   0  0  0  0  0  0  0  0  0  0  0  0
    2.8137   -0.2039    2.1815 C   0  0  0  0  0  0  0  0  0  0  0  0
    1.8278   -1.4512    2.4125 C   0  0  0  0  0  0  0  0  0  0  0  0
    2.4104   -2.9993    2.5189 C   0  0  2  0  0  0  0  0  0  0  0  0
    2.2396   -2.4491    1.2771 O   0  0  0  0  0  0  0  0  0  0  0  0
    3.2310   -4.1684    1.5204 C   0  0  2  0  0  0  0  0  0  0  0  0
    3.7855   -5.1911    2.5131 C   0  0  0  0  0  0  0  0  0  0  0  0
    5.2439   -4.5420    2.7318 C   0  0  0  0  0  0  0  0  0  0  0  0
    5.5749   -3.3137    1.6966 C   0  0  2  0  0  0  0  0  0  0  0  0
    4.7247   -4.2890    0.9918 C   0  0  0  0  0  0  0  0  0  0  0  0
    5.2327   -2.3591    0.3968 C   0  0  1  0  0  0  0  0  0  0  0  0
    4.1894   -2.4444   -0.8317 C   0  0  0  0  0  0  0  0  0  0  0  0
    4.4140   -1.5664   -1.9119 C   0  0  0  0  0  0  0  0  0  0  0  0
    5.4170   -0.6561   -1.8371 O   0  0  0  0  0  0  0  0  0  0  0  0
    3.6403   -1.5913   -3.0896 C   0  0  0  0  0  0  0  0  0  0  0  0
    2.6060   -2.5452   -3.2327 C   0  0  0  0  0  0  0  0  0  0  0  0
    2.3406   -3.4287   -2.1789 C   0  0  0  0  0  0  0  0  0  0  0  0
    3.1085   -3.4478   -0.9967 C   0  0  0  0  0  0  0  0  0  0  0  0
    2.6649   -4.5164    0.0877 C   0  0  0  0  0  0  0  0  0  0  0  0
    0.7253   -4.1879    3.9481 H   0  0  0  0  0  0  0  0  0  0  0  0
    0.1981   -4.7516    5.4800 H   0  0  0  0  0  0  0  0  0  0  0  0
    1.8849   -4.9804    5.0646 H   0  0  0  0  0  0  0  0  0  0  0  0
    3.5716   -3.6213    4.3191 H   0  0  0  0  0  0  0  0  0  0  0  0
    4.5223   -0.8296    4.1580 H   0  0  0  0  0  0  0  0  0  0  0  0
    5.2829   -2.2624    4.6197 H   0  0  0  0  0  0  0  0  0  0  0  0
    4.2688   -2.1255    2.1904 H   0  0  0  0  0  0  0  0  0  0  0  0
    4.4789    0.7497    1.2398 H   0  0  0  0  0  0  0  0  0  0  0  0
    3.6512   -0.2878    0.1595 H   0  0  0  0  0  0  0  0  0  0  0  0
    3.1334    0.2085    3.1348 H   0  0  0  0  0  0  0  0  0  0  0  0
    2.1732    0.5992    1.8140 H   0  0  0  0  0  0  0  0  0  0  0  0
    1.4418   -1.1820    3.3856 H   0  0  0  0  0  0  0  0  0  0  0  0
    0.7967   -1.2326    2.0278 H   0  0  0  0  0  0  0  0  0  0  0  0
    1.7109   -1.6743    1.3035 H   0  0  0  0  0  0  0  0  0  0  0  0
    3.1823   -5.3319    3.4128 H   0  0  0  0  0  0  0  0  0  0  0  0
    3.8197   -6.2089    2.0924 H   0  0  0  0  0  0  0  0  0  0  0  0
    5.3826   -4.2859    3.7921 H   0  0  0  0  0  0  0  0  0  0  0  0
    5.9915   -5.3481    2.6795 H   0  0  0  0  0  0  0  0  0  0  0  0
    5.1290   -5.3160    0.7834 H   0  0  0  0  0  0  0  0  0  0  0  0
    4.9898   -4.4382   -0.0529 H   0  0  0  0  0  0  0  0  0  0  0  0
    6.1785   -2.2996   -0.1512 H   0  0  0  0  0  0  0  0  0  0  0  0
    5.0604    0.2243   -1.7181 H   0  0  0  0  0  0  0  0  0  0  0  0
    3.8265   -0.8972   -3.8923 H   0  0  0  0  0  0  0  0  0  0  0  0
    1.9945   -2.5765   -4.1313 H   0  0  0  0  0  0  0  0  0  0  0  0
    1.5322   -4.1593   -2.2878 H   0  0  0  0  0  0  0  0  0  0  0  0
    3.0184   -5.4863   -0.2533 H   0  0  0  0  0  0  0  0  0  0  0  0
    1.5805   -4.6296    0.0873 H   0  0  0  0  0  0  0  0  0  0  0  0
  1  2  1  0
  1 28  1  0
  1 29  1  0
  1 30  1  0
  2  3  2  0
  2  4  1  0
  4  5  1  0
  5 12  1  0
  5  6  1  0
  5 31  1  1
  6  7  1  0
  6 32  1  0
  6 33  1  0
  7 17  1  0
  7  8  1  0
  7 34  1  1
  8 19  1  0
  8  9  1  0
  9 10  1  0
  9 35  1  0
  9 36  1  0
 10 11  1  0
 10 37  1  0
 10 38  1  0
 11 12  1  0
 11 39  1  0
 11 40  1  0
 12 13  1  6
 12 14  1  0
 13 41  1  0
 14 18  1  0
 14 27  1  6
 14 15  1  0
 15 16  1  0
 15 42  1  0
 15 43  1  0
 17 16  1  6
 16 44  1  0
 16 45  1  0
 17 18  1  0
 17 19  1  0
 18 46  1  0
 18 47  1  0
 19 20  1  0
 19 48  1  6
 20 26  2  0
 20 21  1  0
 21 22  1  0
 21 23  2  0
 22 49  1  0
 23 24  1  0
 23 50  1  0
 24 25  2  0
 24 51  1  0
 25 26  1  0
 25 52  1  0
 26 27  1  0
 27 53  1  0
 27 54  1  0
M  END
>  <i_m_ct_stereo_status>  (364) 
1

>  <s_m_source_file>  (364) 
/var/tmp/pbs.5076255.sched01/tmpg0s73j8k/135j_ekwz2c.sdf

>  <i_m_source_file_index>  (364) 
15

>  <i_lp_mmshare_version>  (364) 
48012

>  <i_f3d_flags>  (364) 
0

>  <s_epik_input>  (364) 
W0NIM11DKD1PKU9bQ0BASF0oW0NAXTEoW0NAXTIzNClbT0hdKVtDSDJdW0NAQEhdNUMoW0NIMl0zKShbQ0gyXVtDSDJdMilbQ0BIXShONVtDSDJdW0NIMl1bQ0gyXTEpYzZjKFtDSDJdNClbY0hdW2NIXVtjSF1jNltPSF0=

>  <s_epik_cmdline>  (364) 
J2VwaWtfcHl0aG9uJywgJy1waHQnLCAnMi4wJywgJy1waCcsICc3LjAnLCAnLXRuJywgJzgnLCAnLW1hJywgJzIwMCcsICctaW1hZScsICc8aW5maWxlLm1hZT4nLCAnLW9tYWUnLCAnPG91dGZpbGUubWFlPic=

>  <r_lp_tautomer_probability>  (364) 
1

>  <r_epik_Ionization_Penalty>  (364) 
2.20912

>  <r_epik_Ionization_Penalty_Charging>  (364) 
0

>  <r_epik_Ionization_Penalty_Neutral>  (364) 
2.20912

>  <r_epik_State_Penalty>  (364) 
2.36347

>  <r_epik_Charging_Adjusted_Penalty>  (364) 
2.36347

>  <i_epik_Tot_Q>  (364) 
0

>  <i_epik_Tot_abs_Q>  (364) 
0

>  <s_epik_Chemistry_Notes>  (364) 
This compound has an ester and may undergo hydrolysis at high or low pH.

>  <s_lp_Force_Field>  (364) 
OPLS3e

>  <r_lp_Energy>  (364) 
507.23

>  <b_lp_Chiralities_Consistent>  (364) 
1

>  <s_lp_Variant>  (364) 
94:0-2

>  <s_i_glide_gridfile>  (364) 
pfpi4k_grid

>  <i_i_glide_lignum>  (364) 
15

>  <i_i_glide_rotatable_bonds>  (364) 
4

>  <r_i_docking_score>  (364) 
-3.73813

>  <r_i_glide_ligand_efficiency>  (364) 
-0.138449

>  <r_i_glide_ligand_efficiency_sa>  (364) 
-0.415347

>  <r_i_glide_ligand_efficiency_ln>  (364) 
-0.870174

>  <r_i_glide_gscore>  (364) 
-3.73813

>  <r_i_glide_lipo>  (364) 
-0.728033

>  <r_i_glide_hbond>  (364) 
-0.282138

>  <r_i_glide_metal>  (364) 
-0

>  <r_i_glide_rewards>  (364) 
-0.890086

>  <r_i_glide_evdw>  (364) 
-25.5092

>  <r_i_glide_ecoul>  (364) 
-4.69096

>  <r_i_glide_erotb>  (364) 
0.141258

>  <r_i_glide_esite>  (364) 
-2.55696e-05

>  <r_i_glide_emodel>  (364) 
-33.5931

>  <r_i_glide_energy>  (364) 
-30.2001

>  <r_i_glide_einternal>  (364) 
8.95627

>  <r_i_glide_intrahb_reward>  (364) 
-0

>  <i_i_glide_confnum>  (364) 
1

>  <i_i_glide_posenum>  (364) 
5

>  <r_i_glide_eff_state_penalty>  (364) 
0

>  <ligand_id>  (364) 
94

>  <original_smiles>  (364) 
CC(=O)OC1CC2N3CCCC1(O)C14CCC2(C1)C3c1c(O)cccc1C4

>  <smiles>  (364) 
[H]Oc1c([H])c([H])c([H])c2c1C1([H])N3C([H])([H])C([H])([H])C([H])([H])C4(O[H])C([H])(OC(=O)C([H])([H])[H])C([H])([H])C3([H])C13C([H])([H])C([H])([H])C4(C2([H])[H])C3([H])[H]

$$$$
94:1:2
     RDKit          3D

 54 59  0  0  1  0  0  0  0  0999 V2000
    3.8179   -2.5721   -3.9429 C   0  0  0  0  0  0  0  0  0  0  0  0
    4.2081   -1.8931   -2.6417 C   0  0  0  0  0  0  0  0  0  0  0  0
    4.2154   -0.6680   -2.5257 O   0  0  0  0  0  0  0  0  0  0  0  0
    4.5280   -2.7923   -1.6998 O   0  0  0  0  0  0  0  0  0  0  0  0
    4.5805   -2.4619   -0.3064 C   0  0  2  0  0  0  0  0  0  0  0  0
    5.8530   -3.1421    0.3534 C   0  0  0  0  0  0  0  0  0  0  0  0
    5.6692   -3.2174    1.8493 C   0  0  1  0  0  0  0  0  0  0  0  0
    5.2871   -4.3025    2.7548 N   0  0  0  0  0  0  0  0  0  0  0  0
    4.3916   -5.3630    2.1430 C   0  0  0  0  0  0  0  0  0  0  0  0
    3.8436   -5.3150    0.6490 C   0  0  0  0  0  0  0  0  0  0  0  0
    2.8848   -4.1339    0.0911 C   0  0  0  0  0  0  0  0  0  0  0  0
    3.1227   -2.5256    0.4724 C   0  0  2  0  0  0  0  0  0  0  0  0
    2.5097   -3.3538    1.3963 O   0  0  0  0  0  0  0  0  0  0  0  0
    3.1125   -1.5089    1.8927 C   0  0  2  0  0  0  0  0  0  0  0  0
    3.8822   -0.2676    1.4518 C   0  0  0  0  0  0  0  0  0  0  0  0
    5.3570   -0.7119    1.9442 C   0  0  0  0  0  0  0  0  0  0  0  0
    5.3688   -2.0779    2.8532 C   0  0  2  0  0  0  0  0  0  0  0  0
    4.1192   -1.3501    3.1320 C   0  0  0  0  0  0  0  0  0  0  0  0
    4.6240   -3.3146    3.6640 C   0  0  1  0  0  0  0  0  0  0  0  0
    3.1233   -3.5707    4.1930 C   0  0  0  0  0  0  0  0  0  0  0  0
    2.9653   -4.6336    5.1314 C   0  0  0  0  0  0  0  0  0  0  0  0
    4.0192   -5.4125    5.4916 O   0  0  0  0  0  0  0  0  0  0  0  0
    1.7133   -4.9063    5.7326 C   0  0  0  0  0  0  0  0  0  0  0  0
    0.5884   -4.1163    5.4393 C   0  0  0  0  0  0  0  0  0  0  0  0
    0.7036   -3.0402    4.5347 C   0  0  0  0  0  0  0  0  0  0  0  0
    1.9373   -2.7401    3.9044 C   0  0  0  0  0  0  0  0  0  0  0  0
    1.8684   -1.5316    2.8787 C   0  0  0  0  0  0  0  0  0  0  0  0
    4.6412   -3.1750   -4.3246 H   0  0  0  0  0  0  0  0  0  0  0  0
    3.5422   -1.8309   -4.6942 H   0  0  0  0  0  0  0  0  0  0  0  0
    2.9616   -3.2285   -3.7822 H   0  0  0  0  0  0  0  0  0  0  0  0
    4.8791   -1.4297   -0.3759 H   0  0  0  0  0  0  0  0  0  0  0  0
    6.1064   -4.1032   -0.0813 H   0  0  0  0  0  0  0  0  0  0  0  0
    6.7399   -2.5488    0.1159 H   0  0  0  0  0  0  0  0  0  0  0  0
    4.7004   -3.2974    1.6142 H   0  0  0  0  0  0  0  0  0  0  0  0
    5.0044   -6.2692    2.1847 H   0  0  0  0  0  0  0  0  0  0  0  0
    3.5625   -5.6011    2.8031 H   0  0  0  0  0  0  0  0  0  0  0  0
    4.6546   -5.5090   -0.0540 H   0  0  0  0  0  0  0  0  0  0  0  0
    3.2562   -6.2275    0.5305 H   0  0  0  0  0  0  0  0  0  0  0  0
    3.0436   -4.2556   -0.9753 H   0  0  0  0  0  0  0  0  0  0  0  0
    1.8545   -4.5369   -0.1013 H   0  0  0  0  0  0  0  0  0  0  0  0
    1.8681   -2.8632    1.8683 H   0  0  0  0  0  0  0  0  0  0  0  0
    3.7724   -0.0264    0.3957 H   0  0  0  0  0  0  0  0  0  0  0  0
    3.5261    0.6484    1.9385 H   0  0  0  0  0  0  0  0  0  0  0  0
    6.0512   -0.7428    1.1023 H   0  0  0  0  0  0  0  0  0  0  0  0
    5.8187    0.1244    2.4675 H   0  0  0  0  0  0  0  0  0  0  0  0
    4.1742   -0.3461    3.6266 H   0  0  0  0  0  0  0  0  0  0  0  0
    3.8095   -1.3914    4.1782 H   0  0  0  0  0  0  0  0  0  0  0  0
    5.2011   -3.3906    4.5934 H   0  0  0  0  0  0  0  0  0  0  0  0
    4.8039   -5.2161    5.0203 H   0  0  0  0  0  0  0  0  0  0  0  0
    1.6220   -5.7259    6.4255 H   0  0  0  0  0  0  0  0  0  0  0  0
   -0.3609   -4.3359    5.8986 H   0  0  0  0  0  0  0  0  0  0  0  0
   -0.1627   -2.4406    4.3218 H   0  0  0  0  0  0  0  0  0  0  0  0
    1.8212   -0.6037    3.4641 H   0  0  0  0  0  0  0  0  0  0  0  0
    0.9325   -1.5392    2.3261 H   0  0  0  0  0  0  0  0  0  0  0  0
  1  2  1  0
  1 28  1  0
  1 29  1  0
  1 30  1  0
  2  3  2  0
  2  4  1  0
  4  5  1  0
  5 12  1  0
  5  6  1  0
  5 31  1  6
  6  7  1  0
  6 32  1  0
  6 33  1  0
  7 17  1  0
  7  8  1  0
  7 34  1  1
  8 19  1  0
  8  9  1  0
  9 10  1  0
  9 35  1  0
  9 36  1  0
 10 11  1  0
 10 37  1  0
 10 38  1  0
 11 12  1  0
 11 39  1  0
 11 40  1  0
 12 13  1  1
 12 14  1  0
 13 41  1  0
 14 18  1  0
 14 27  1  1
 14 15  1  0
 15 16  1  0
 15 42  1  0
 15 43  1  0
 17 16  1  1
 16 44  1  0
 16 45  1  0
 17 18  1  0
 17 19  1  0
 18 46  1  0
 18 47  1  0
 19 20  1  0
 19 48  1  1
 20 26  2  0
 20 21  1  0
 21 22  1  0
 21 23  2  0
 22 49  1  0
 23 24  1  0
 23 50  1  0
 24 25  2  0
 24 51  1  0
 25 26  1  0
 25 52  1  0
 26 27  1  0
 27 53  1  0
 27 54  1  0
M  END
>  <i_m_ct_stereo_status>  (365) 
1

>  <s_m_source_file>  (365) 
/var/tmp/pbs.5076255.sched01/tmpg0s73j8k/135j_ekwz2c.sdf

>  <i_m_source_file_index>  (365) 
15

>  <i_lp_mmshare_version>  (365) 
48012

>  <i_f3d_flags>  (365) 
0

>  <s_epik_input>  (365) 
W0NIM11DKD1PKU9bQ0BASF0oW0NAXTEoW0NAXTIzNClbT0hdKVtDSDJdW0NAQEhdNUMoW0NIMl0zKShbQ0gyXVtDSDJdMilbQ0BIXShONVtDSDJdW0NIMl1bQ0gyXTEpYzZjKFtDSDJdNClbY0hdW2NIXVtjSF1jNltPSF0=

>  <s_epik_cmdline>  (365) 
J2VwaWtfcHl0aG9uJywgJy1waHQnLCAnMi4wJywgJy1waCcsICc3LjAnLCAnLXRuJywgJzgnLCAnLW1hJywgJzIwMCcsICctaW1hZScsICc8aW5maWxlLm1hZT4nLCAnLW9tYWUnLCAnPG91dGZpbGUubWFlPic=

>  <r_lp_tautomer_probability>  (365) 
1

>  <r_epik_Ionization_Penalty>  (365) 
2.20912

>  <r_epik_Ionization_Penalty_Charging>  (365) 
0

>  <r_epik_Ionization_Penalty_Neutral>  (365) 
2.20912

>  <r_epik_State_Penalty>  (365) 
2.36347

>  <r_epik_Charging_Adjusted_Penalty>  (365) 
2.36347

>  <i_epik_Tot_Q>  (365) 
0

>  <i_epik_Tot_abs_Q>  (365) 
0

>  <s_epik_Chemistry_Notes>  (365) 
This compound has an ester and may undergo hydrolysis at high or low pH.

>  <s_lp_Force_Field>  (365) 
OPLS3e

>  <r_lp_Energy>  (365) 
507.23

>  <b_lp_Chiralities_Consistent>  (365) 
1

>  <s_lp_Variant>  (365) 
94:0-2

>  <s_i_glide_gridfile>  (365) 
pfpi4k_grid

>  <i_i_glide_lignum>  (365) 
15

>  <i_i_glide_rotatable_bonds>  (365) 
4

>  <r_i_docking_score>  (365) 
-2.79866

>  <r_i_glide_ligand_efficiency>  (365) 
-0.103654

>  <r_i_glide_ligand_efficiency_sa>  (365) 
-0.310962

>  <r_i_glide_ligand_efficiency_ln>  (365) 
-0.651481

>  <r_i_glide_gscore>  (365) 
-2.79866

>  <r_i_glide_lipo>  (365) 
-0.449043

>  <r_i_glide_hbond>  (365) 
0

>  <r_i_glide_metal>  (365) 
-0

>  <r_i_glide_rewards>  (365) 
-0.897797

>  <r_i_glide_evdw>  (365) 
-28.3365

>  <r_i_glide_ecoul>  (365) 
-1.17501

>  <r_i_glide_erotb>  (365) 
0.141258

>  <r_i_glide_esite>  (365) 
0

>  <r_i_glide_emodel>  (365) 
-34.4151

>  <r_i_glide_energy>  (365) 
-29.5115

>  <r_i_glide_einternal>  (365) 
2.55378

>  <r_i_glide_intrahb_reward>  (365) 
-0

>  <i_i_glide_confnum>  (365) 
1

>  <i_i_glide_posenum>  (365) 
2

>  <r_i_glide_eff_state_penalty>  (365) 
0

>  <ligand_id>  (365) 
94

>  <original_smiles>  (365) 
CC(=O)OC1CC2N3CCCC1(O)C14CCC2(C1)C3c1c(O)cccc1C4

>  <smiles>  (365) 
[H]Oc1c([H])c([H])c([H])c2c1C1([H])N3C([H])([H])C([H])([H])C([H])([H])C4(O[H])C([H])(OC(=O)C([H])([H])[H])C([H])([H])C3([H])C13C([H])([H])C([H])([H])C4(C2([H])[H])C3([H])[H]

$$$$
94:2:0
     RDKit          3D

 54 59  0  0  1  0  0  0  0  0999 V2000
    3.0173    0.9273    2.8137 C   0  0  0  0  0  0  0  0  0  0  0  0
    4.1946    0.1553    3.4655 C   0  0  0  0  0  0  0  0  0  0  0  0
    4.5081    0.3693    4.6297 O   0  0  0  0  0  0  0  0  0  0  0  0
    4.8761   -0.7681    2.6981 O   0  0  0  0  0  0  0  0  0  0  0  0
    4.7208   -0.9181    1.2958 C   0  0  2  0  0  0  0  0  0  0  0  0
    3.3703   -1.3650    0.8095 C   0  0  0  0  0  0  0  0  0  0  0  0
    3.2498   -2.8567    0.4267 C   0  0  1  0  0  0  0  0  0  0  0  0
    2.4500   -3.3453   -0.5981 N   0  0  1  0  0  0  0  0  0  0  0  0
    3.0068   -2.7819   -1.9006 C   0  0  0  0  0  0  0  0  0  0  0  0
    4.1148   -1.6096   -1.8806 C   0  0  0  0  0  0  0  0  0  0  0  0
    5.4604   -1.5007   -0.9788 C   0  0  0  0  0  0  0  0  0  0  0  0
    5.6850   -1.8756    0.6165 C   0  0  1  0  0  0  0  0  0  0  0  0
    6.9619   -1.2943    0.8503 O   0  0  0  0  0  0  0  0  0  0  0  0
    5.8442   -3.4300    1.2493 C   0  0  1  0  0  0  0  0  0  0  0  0
    6.5911   -3.9631   -0.0628 C   0  0  0  0  0  0  0  0  0  0  0  0
    5.3613   -4.2739   -1.0333 C   0  0  0  0  0  0  0  0  0  0  0  0
    4.1889   -4.1537   -0.0132 C   0  0  1  0  0  0  0  0  0  0  0  0
    5.1487   -4.7574    0.8643 C   0  0  0  0  0  0  0  0  0  0  0  0
    2.8494   -4.7415    0.0046 C   0  0  1  0  0  0  0  0  0  0  0  0
    2.5624   -5.0943    1.5773 C   0  0  0  0  0  0  0  0  0  0  0  0
    1.3661   -5.8155    1.8576 C   0  0  0  0  0  0  0  0  0  0  0  0
    0.5616   -6.2479    0.8576 O   0  0  0  0  0  0  0  0  0  0  0  0
    0.9857   -5.9846    3.2196 C   0  0  0  0  0  0  0  0  0  0  0  0
    1.7294   -5.4517    4.2722 C   0  0  0  0  0  0  0  0  0  0  0  0
    2.9227   -4.7435    4.0247 C   0  0  0  0  0  0  0  0  0  0  0  0
    3.3900   -4.5472    2.6915 C   0  0  0  0  0  0  0  0  0  0  0  0
    4.8886   -3.8082    2.6170 C   0  0  0  0  0  0  0  0  0  0  0  0
    2.1518    0.2851    2.6595 H   0  0  0  0  0  0  0  0  0  0  0  0
    3.3487    1.3492    1.8597 H   0  0  0  0  0  0  0  0  0  0  0  0
    2.6135    1.7123    3.4682 H   0  0  0  0  0  0  0  0  0  0  0  0
    4.9230    0.0745    0.9159 H   0  0  0  0  0  0  0  0  0  0  0  0
    2.6874   -1.2332    1.6200 H   0  0  0  0  0  0  0  0  0  0  0  0
    2.9427   -0.6767    0.0976 H   0  0  0  0  0  0  0  0  0  0  0  0
    2.4395   -2.9540    1.1341 H   0  0  0  0  0  0  0  0  0  0  0  0
    3.2581   -3.6010   -2.5574 H   0  0  0  0  0  0  0  0  0  0  0  0
    2.1306   -2.3684   -2.3898 H   0  0  0  0  0  0  0  0  0  0  0  0
    4.4410   -1.5442   -2.9177 H   0  0  0  0  0  0  0  0  0  0  0  0
    3.5690   -0.6749   -1.8207 H   0  0  0  0  0  0  0  0  0  0  0  0
    6.2775   -1.8575   -1.5923 H   0  0  0  0  0  0  0  0  0  0  0  0
    5.6700   -0.4380   -1.0327 H   0  0  0  0  0  0  0  0  0  0  0  0
    6.8470   -0.4043    1.1666 H   0  0  0  0  0  0  0  0  0  0  0  0
    7.2888   -3.2588   -0.5048 H   0  0  0  0  0  0  0  0  0  0  0  0
    7.2966   -4.7876    0.0922 H   0  0  0  0  0  0  0  0  0  0  0  0
    5.3395   -3.7061   -1.9410 H   0  0  0  0  0  0  0  0  0  0  0  0
    5.4003   -5.2733   -1.4592 H   0  0  0  0  0  0  0  0  0  0  0  0
    5.6203   -5.7100    0.5236 H   0  0  0  0  0  0  0  0  0  0  0  0
    4.9190   -5.6199    1.4965 H   0  0  0  0  0  0  0  0  0  0  0  0
    2.6885   -5.5703   -0.6714 H   0  0  0  0  0  0  0  0  0  0  0  0
    0.0803   -6.5233    3.4373 H   0  0  0  0  0  0  0  0  0  0  0  0
    1.3989   -5.5905    5.2990 H   0  0  0  0  0  0  0  0  0  0  0  0
    3.4953   -4.3663    4.8694 H   0  0  0  0  0  0  0  0  0  0  0  0
    5.5197   -4.4628    3.2342 H   0  0  0  0  0  0  0  0  0  0  0  0
    4.8258   -2.9598    3.2848 H   0  0  0  0  0  0  0  0  0  0  0  0
    1.4871   -3.1150   -0.4736 H   0  0  0  0  0  0  0  0  0  0  0  0
  1  2  1  0
  1 28  1  0
  1 29  1  0
  1 30  1  0
  2  3  2  0
  2  4  1  0
  4  5  1  0
  5 12  1  0
  5  6  1  0
  5 31  1  6
  6  7  1  0
  6 32  1  0
  6 33  1  0
  7 17  1  0
  7  8  1  0
  7 34  1  1
  8 19  1  0
  8  9  1  0
  8 54  1  1
  9 10  1  0
  9 35  1  0
  9 36  1  0
 10 11  1  0
 10 37  1  0
 10 38  1  0
 11 12  1  0
 11 39  1  0
 11 40  1  0
 12 13  1  1
 12 14  1  0
 13 41  1  0
 14 18  1  0
 14 27  1  1
 14 15  1  0
 15 16  1  0
 15 42  1  0
 15 43  1  0
 17 16  1  6
 16 44  1  0
 16 45  1  0
 17 18  1  0
 17 19  1  0
 18 46  1  0
 18 47  1  0
 19 20  1  0
 19 48  1  6
 20 26  2  0
 20 21  1  0
 21 22  1  0
 21 23  2  0
 23 24  1  0
 23 49  1  0
 24 25  2  0
 24 50  1  0
 25 26  1  0
 25 51  1  0
 26 27  1  0
 27 52  1  0
 27 53  1  0
M  CHG  2   8   1  22  -1
M  END
>  <i_m_ct_stereo_status>  (366) 
1

>  <s_m_source_file>  (366) 
/var/tmp/pbs.5076255.sched01/tmpg0s73j8k/135j_ekwz2c.sdf

>  <i_m_source_file_index>  (366) 
16

>  <i_lp_mmshare_version>  (366) 
48012

>  <i_f3d_flags>  (366) 
0

>  <s_epik_input>  (366) 
W0NIM11DKD1PKU9bQ0BASF0oW0NAXTEoW0NAXTIzNClbT0hdKVtDSDJdW0NAQEhdNUMoW0NIMl0zKShbQ0gyXVtDSDJdMilbQ0BIXShONVtDSDJdW0NIMl1bQ0gyXTEpYzZjKFtDSDJdNClbY0hdW2NIXVtjSF1jNltPSF0=

>  <s_epik_cmdline>  (366) 
J2VwaWtfcHl0aG9uJywgJy1waHQnLCAnMi4wJywgJy1waCcsICc3LjAnLCAnLXRuJywgJzgnLCAnLW1hJywgJzIwMCcsICctaW1hZScsICc8aW5maWxlLm1hZT4nLCAnLW9tYWUnLCAnPG91dGZpbGUubWFlPic=

>  <r_epik_Ionization_Penalty>  (366) 
2.25168

>  <r_epik_Ionization_Penalty_Charging>  (366) 
2.25168

>  <r_epik_Ionization_Penalty_Neutral>  (366) 
1.40316e-07

>  <r_epik_State_Penalty>  (366) 
2.39994

>  <r_epik_Charging_Adjusted_Penalty>  (366) 
4.65162

>  <i_epik_Tot_Q>  (366) 
0

>  <i_epik_Tot_abs_Q>  (366) 
2

>  <s_epik_Chemistry_Notes>  (366) 
This compound has an ester and may undergo hydrolysis at high or low pH.

>  <s_lp_Force_Field>  (366) 
OPLS3e

>  <r_lp_Energy>  (366) 
446.739

>  <b_lp_Chiralities_Consistent>  (366) 
1

>  <s_lp_Variant>  (366) 
94:0-3

>  <s_i_glide_gridfile>  (366) 
pfpi4k_grid

>  <i_i_glide_lignum>  (366) 
16

>  <i_i_glide_rotatable_bonds>  (366) 
3

>  <r_i_docking_score>  (366) 
-3.7169

>  <r_i_glide_ligand_efficiency>  (366) 
-0.137663

>  <r_i_glide_ligand_efficiency_sa>  (366) 
-0.412989

>  <r_i_glide_ligand_efficiency_ln>  (366) 
-0.865233

>  <r_i_glide_gscore>  (366) 
-3.7169

>  <r_i_glide_lipo>  (366) 
-0.435112

>  <r_i_glide_hbond>  (366) 
-0.241191

>  <r_i_glide_metal>  (366) 
-0

>  <r_i_glide_rewards>  (366) 
-0.89199

>  <r_i_glide_evdw>  (366) 
-23.1573

>  <r_i_glide_ecoul>  (366) 
-7.28067

>  <r_i_glide_erotb>  (366) 
0.141258

>  <r_i_glide_esite>  (366) 
-0.0399017

>  <r_i_glide_emodel>  (366) 
-35.811

>  <r_i_glide_energy>  (366) 
-30.4379

>  <r_i_glide_einternal>  (366) 
7.20642

>  <r_i_glide_intrahb_reward>  (366) 
-0

>  <i_i_glide_confnum>  (366) 
2

>  <i_i_glide_posenum>  (366) 
28

>  <r_i_glide_eff_state_penalty>  (366) 
0

>  <ligand_id>  (366) 
94

>  <original_smiles>  (366) 
CC(=O)OC1CC2N3CCCC1(O)C14CCC2(C1)C3c1c(O)cccc1C4

>  <smiles>  (366) 
[H]OC12C([H])([H])C([H])([H])C([H])([H])[N+]3([H])C4([H])c5c([O-])c([H])c([H])c([H])c5C([H])([H])C15C([H])([H])C([H])([H])C4(C5([H])[H])C3([H])C([H])([H])C2([H])OC(=O)C([H])([H])[H]

$$$$
94:2:1
     RDKit          3D

 54 59  0  0  1  0  0  0  0  0999 V2000
    4.8026    0.1083    4.9441 C   0  0  0  0  0  0  0  0  0  0  0  0
    4.3171    0.1027    3.5032 C   0  0  0  0  0  0  0  0  0  0  0  0
    3.4194    0.8548    3.1269 O   0  0  0  0  0  0  0  0  0  0  0  0
    4.9746   -0.8026    2.7454 O   0  0  0  0  0  0  0  0  0  0  0  0
    4.7641   -0.9025    1.3353 C   0  0  2  0  0  0  0  0  0  0  0  0
    3.3754   -1.3181    0.8838 C   0  0  0  0  0  0  0  0  0  0  0  0
    3.2465   -2.8190    0.4975 C   0  0  1  0  0  0  0  0  0  0  0  0
    2.4551   -3.3063   -0.5480 N   0  0  1  0  0  0  0  0  0  0  0  0
    2.9921   -2.7716   -1.8652 C   0  0  0  0  0  0  0  0  0  0  0  0
    4.1063   -1.6035   -1.8482 C   0  0  0  0  0  0  0  0  0  0  0  0
    5.4691   -1.4982   -0.9616 C   0  0  0  0  0  0  0  0  0  0  0  0
    5.7031   -1.8830    0.6274 C   0  0  1  0  0  0  0  0  0  0  0  0
    6.9884   -1.3210    0.8440 O   0  0  0  0  0  0  0  0  0  0  0  0
    5.8711   -3.4469    1.2432 C   0  0  1  0  0  0  0  0  0  0  0  0
    6.6058   -3.9738   -0.0777 C   0  0  0  0  0  0  0  0  0  0  0  0
    5.3600   -4.2645   -1.0398 C   0  0  0  0  0  0  0  0  0  0  0  0
    4.1963   -4.1247    0.0039 C   0  0  1  0  0  0  0  0  0  0  0  0
    5.1674   -4.7706    0.8523 C   0  0  0  0  0  0  0  0  0  0  0  0
    2.8547   -4.6953    0.0282 C   0  0  1  0  0  0  0  0  0  0  0  0
    2.5864   -5.0689    1.5856 C   0  0  0  0  0  0  0  0  0  0  0  0
    1.4109   -5.7994    1.8848 C   0  0  0  0  0  0  0  0  0  0  0  0
    0.5917   -6.2561    0.8815 O   0  0  0  0  0  0  0  0  0  0  0  0
    1.0298   -6.0000    3.2226 C   0  0  0  0  0  0  0  0  0  0  0  0
    1.7947   -5.4823    4.2797 C   0  0  0  0  0  0  0  0  0  0  0  0
    2.9838   -4.7784    4.0236 C   0  0  0  0  0  0  0  0  0  0  0  0
    3.4382   -4.5586    2.7007 C   0  0  0  0  0  0  0  0  0  0  0  0
    4.9395   -3.8359    2.6155 C   0  0  0  0  0  0  0  0  0  0  0  0
    5.8650    0.3467    4.9863 H   0  0  0  0  0  0  0  0  0  0  0  0
    4.6432   -0.8675    5.4025 H   0  0  0  0  0  0  0  0  0  0  0  0
    4.2586    0.8544    5.5216 H   0  0  0  0  0  0  0  0  0  0  0  0
    4.9467    0.1050    0.9519 H   0  0  0  0  0  0  0  0  0  0  0  0
    2.6839   -1.0895    1.6969 H   0  0  0  0  0  0  0  0  0  0  0  0
    2.9832   -0.6307    0.1439 H   0  0  0  0  0  0  0  0  0  0  0  0
    2.4659   -2.9026    1.2520 H   0  0  0  0  0  0  0  0  0  0  0  0
    3.2604   -3.5923   -2.5281 H   0  0  0  0  0  0  0  0  0  0  0  0
    2.1241   -2.3378   -2.3532 H   0  0  0  0  0  0  0  0  0  0  0  0
    4.4399   -1.5371   -2.8864 H   0  0  0  0  0  0  0  0  0  0  0  0
    3.5716   -0.6582   -1.7727 H   0  0  0  0  0  0  0  0  0  0  0  0
    6.2798   -1.8615   -1.5889 H   0  0  0  0  0  0  0  0  0  0  0  0
    5.6855   -0.4316   -1.0171 H   0  0  0  0  0  0  0  0  0  0  0  0
    6.8936   -0.4235    1.1383 H   0  0  0  0  0  0  0  0  0  0  0  0
    7.3082   -3.2786   -0.5362 H   0  0  0  0  0  0  0  0  0  0  0  0
    7.3122   -4.8029    0.0648 H   0  0  0  0  0  0  0  0  0  0  0  0
    5.3388   -3.6981   -1.9565 H   0  0  0  0  0  0  0  0  0  0  0  0
    5.3837   -5.2692   -1.4704 H   0  0  0  0  0  0  0  0  0  0  0  0
    5.6255   -5.7316    0.4998 H   0  0  0  0  0  0  0  0  0  0  0  0
    4.9394   -5.6370    1.4855 H   0  0  0  0  0  0  0  0  0  0  0  0
    2.6965   -5.5261   -0.6495 H   0  0  0  0  0  0  0  0  0  0  0  0
    0.1254   -6.5466    3.4564 H   0  0  0  0  0  0  0  0  0  0  0  0
    1.4767   -5.6298    5.2999 H   0  0  0  0  0  0  0  0  0  0  0  0
    3.5665   -4.4184    4.8579 H   0  0  0  0  0  0  0  0  0  0  0  0
    5.5743   -4.4978    3.2105 H   0  0  0  0  0  0  0  0  0  0  0  0
    4.8872   -2.9952    3.2863 H   0  0  0  0  0  0  0  0  0  0  0  0
    1.4820   -3.0926   -0.4342 H   0  0  0  0  0  0  0  0  0  0  0  0
  1  2  1  0
  1 28  1  0
  1 29  1  0
  1 30  1  0
  2  3  2  0
  2  4  1  0
  4  5  1  0
  5 12  1  0
  5  6  1  0
  5 31  1  6
  6  7  1  0
  6 32  1  0
  6 33  1  0
  7 17  1  0
  7  8  1  0
  7 34  1  1
  8 19  1  0
  8  9  1  0
  8 54  1  1
  9 10  1  0
  9 35  1  0
  9 36  1  0
 10 11  1  0
 10 37  1  0
 10 38  1  0
 11 12  1  0
 11 39  1  0
 11 40  1  0
 12 13  1  1
 12 14  1  0
 13 41  1  0
 14 18  1  0
 14 27  1  1
 14 15  1  0
 15 16  1  0
 15 42  1  0
 15 43  1  0
 17 16  1  6
 16 44  1  0
 16 45  1  0
 17 18  1  0
 17 19  1  0
 18 46  1  0
 18 47  1  0
 19 20  1  0
 19 48  1  6
 20 26  2  0
 20 21  1  0
 21 22  1  0
 21 23  2  0
 23 24  1  0
 23 49  1  0
 24 25  2  0
 24 50  1  0
 25 26  1  0
 25 51  1  0
 26 27  1  0
 27 52  1  0
 27 53  1  0
M  CHG  2   8   1  22  -1
M  END
>  <i_m_ct_stereo_status>  (367) 
1

>  <s_m_source_file>  (367) 
/var/tmp/pbs.5076255.sched01/tmpg0s73j8k/135j_ekwz2c.sdf

>  <i_m_source_file_index>  (367) 
16

>  <i_lp_mmshare_version>  (367) 
48012

>  <i_f3d_flags>  (367) 
0

>  <s_epik_input>  (367) 
W0NIM11DKD1PKU9bQ0BASF0oW0NAXTEoW0NAXTIzNClbT0hdKVtDSDJdW0NAQEhdNUMoW0NIMl0zKShbQ0gyXVtDSDJdMilbQ0BIXShONVtDSDJdW0NIMl1bQ0gyXTEpYzZjKFtDSDJdNClbY0hdW2NIXVtjSF1jNltPSF0=

>  <s_epik_cmdline>  (367) 
J2VwaWtfcHl0aG9uJywgJy1waHQnLCAnMi4wJywgJy1waCcsICc3LjAnLCAnLXRuJywgJzgnLCAnLW1hJywgJzIwMCcsICctaW1hZScsICc8aW5maWxlLm1hZT4nLCAnLW9tYWUnLCAnPG91dGZpbGUubWFlPic=

>  <r_epik_Ionization_Penalty>  (367) 
2.25168

>  <r_epik_Ionization_Penalty_Charging>  (367) 
2.25168

>  <r_epik_Ionization_Penalty_Neutral>  (367) 
1.40316e-07

>  <r_epik_State_Penalty>  (367) 
2.39994

>  <r_epik_Charging_Adjusted_Penalty>  (367) 
4.65162

>  <i_epik_Tot_Q>  (367) 
0

>  <i_epik_Tot_abs_Q>  (367) 
2

>  <s_epik_Chemistry_Notes>  (367) 
This compound has an ester and may undergo hydrolysis at high or low pH.

>  <s_lp_Force_Field>  (367) 
OPLS3e

>  <r_lp_Energy>  (367) 
446.739

>  <b_lp_Chiralities_Consistent>  (367) 
1

>  <s_lp_Variant>  (367) 
94:0-3

>  <s_i_glide_gridfile>  (367) 
pfpi4k_grid

>  <i_i_glide_lignum>  (367) 
16

>  <i_i_glide_rotatable_bonds>  (367) 
3

>  <r_i_docking_score>  (367) 
-3.55524

>  <r_i_glide_ligand_efficiency>  (367) 
-0.131676

>  <r_i_glide_ligand_efficiency_sa>  (367) 
-0.395027

>  <r_i_glide_ligand_efficiency_ln>  (367) 
-0.827602

>  <r_i_glide_gscore>  (367) 
-3.55524

>  <r_i_glide_lipo>  (367) 
-0.47695

>  <r_i_glide_hbond>  (367) 
-0.242758

>  <r_i_glide_metal>  (367) 
-0

>  <r_i_glide_rewards>  (367) 
-0.911424

>  <r_i_glide_evdw>  (367) 
-23.6271

>  <r_i_glide_ecoul>  (367) 
-5.61928

>  <r_i_glide_erotb>  (367) 
0.141258

>  <r_i_glide_esite>  (367) 
-0.0411212

>  <r_i_glide_emodel>  (367) 
-37.635

>  <r_i_glide_energy>  (367) 
-29.2464

>  <r_i_glide_einternal>  (367) 
1.69838

>  <r_i_glide_intrahb_reward>  (367) 
-0

>  <i_i_glide_confnum>  (367) 
2

>  <i_i_glide_posenum>  (367) 
36

>  <r_i_glide_eff_state_penalty>  (367) 
0

>  <ligand_id>  (367) 
94

>  <original_smiles>  (367) 
CC(=O)OC1CC2N3CCCC1(O)C14CCC2(C1)C3c1c(O)cccc1C4

>  <smiles>  (367) 
[H]OC12C([H])([H])C([H])([H])C([H])([H])[N+]3([H])C4([H])c5c([O-])c([H])c([H])c([H])c5C([H])([H])C15C([H])([H])C([H])([H])C4(C5([H])[H])C3([H])C([H])([H])C2([H])OC(=O)C([H])([H])[H]

$$$$
94:2:2
     RDKit          3D

 54 59  0  0  1  0  0  0  0  0999 V2000
    2.6698   -3.0716   -3.7193 C   0  0  0  0  0  0  0  0  0  0  0  0
    3.0810   -1.7190   -3.1473 C   0  0  0  0  0  0  0  0  0  0  0  0
    3.0290   -0.7086   -3.8429 O   0  0  0  0  0  0  0  0  0  0  0  0
    3.4765   -1.7017   -1.8564 O   0  0  0  0  0  0  0  0  0  0  0  0
    3.7957   -2.8838   -1.1225 C   0  0  2  0  0  0  0  0  0  0  0  0
    2.6930   -3.4817   -0.2892 C   0  0  0  0  0  0  0  0  0  0  0  0
    2.8334   -3.1832    1.2272 C   0  0  1  0  0  0  0  0  0  0  0  0
    2.5247   -4.0842    2.2471 N   0  0  1  0  0  0  0  0  0  0  0  0
    3.4635   -5.2716    2.1497 C   0  0  0  0  0  0  0  0  0  0  0  0
    4.3997   -5.4411    0.8365 C   0  0  0  0  0  0  0  0  0  0  0  0
    5.3385   -4.3318    0.0896 C   0  0  0  0  0  0  0  0  0  0  0  0
    5.0018   -2.7389   -0.2261 C   0  0  1  0  0  0  0  0  0  0  0  0
    6.0319   -2.3982   -1.1480 O   0  0  0  0  0  0  0  0  0  0  0  0
    5.0343   -1.4745    0.8717 C   0  0  1  0  0  0  0  0  0  0  0  0
    6.2326   -2.1383    1.6688 C   0  0  0  0  0  0  0  0  0  0  0  0
    5.4794   -3.1914    2.6110 C   0  0  0  0  0  0  0  0  0  0  0  0
    4.0018   -2.7383    2.3654 C   0  0  1  0  0  0  0  0  0  0  0  0
    4.6400   -1.4386    2.3664 C   0  0  0  0  0  0  0  0  0  0  0  0
    2.8049   -2.8814    3.1819 C   0  0  1  0  0  0  0  0  0  0  0  0
    2.0171   -1.4816    2.9829 C   0  0  0  0  0  0  0  0  0  0  0  0
    0.8677   -1.2668    3.7677 C   0  0  0  0  0  0  0  0  0  0  0  0
    0.5131   -2.1669    4.7523 O   0  0  0  0  0  0  0  0  0  0  0  0
    0.0466   -0.1499    3.5505 C   0  0  0  0  0  0  0  0  0  0  0  0
    0.3173    0.7561    2.4854 C   0  0  0  0  0  0  0  0  0  0  0  0
    1.4510    0.5710    1.6816 C   0  0  0  0  0  0  0  0  0  0  0  0
    2.3504   -0.4938    1.8884 C   0  0  0  0  0  0  0  0  0  0  0  0
    3.6909   -0.4476    0.9107 C   0  0  0  0  0  0  0  0  0  0  0  0
    1.8556   -3.4986   -3.1366 H   0  0  0  0  0  0  0  0  0  0  0  0
    3.5040   -3.7720   -3.7725 H   0  0  0  0  0  0  0  0  0  0  0  0
    2.3051   -2.9713   -4.7267 H   0  0  0  0  0  0  0  0  0  0  0  0
    4.0850   -3.6534   -1.8346 H   0  0  0  0  0  0  0  0  0  0  0  0
    1.7681   -3.0656   -0.6953 H   0  0  0  0  0  0  0  0  0  0  0  0
    2.5397   -4.5285   -0.5384 H   0  0  0  0  0  0  0  0  0  0  0  0
    1.8451   -2.7411    1.1890 H   0  0  0  0  0  0  0  0  0  0  0  0
    4.0539   -5.3764    3.0608 H   0  0  0  0  0  0  0  0  0  0  0  0
    2.8361   -6.1516    2.1698 H   0  0  0  0  0  0  0  0  0  0  0  0
    5.0959   -6.2427    1.1041 H   0  0  0  0  0  0  0  0  0  0  0  0
    3.8199   -5.9694    0.0753 H   0  0  0  0  0  0  0  0  0  0  0  0
    6.3578   -4.4670    0.4493 H   0  0  0  0  0  0  0  0  0  0  0  0
    5.4705   -4.7984   -0.8910 H   0  0  0  0  0  0  0  0  0  0  0  0
    6.0320   -3.0384   -1.8483 H   0  0  0  0  0  0  0  0  0  0  0  0
    6.9933   -2.6287    1.0620 H   0  0  0  0  0  0  0  0  0  0  0  0
    6.8988   -1.4096    2.1398 H   0  0  0  0  0  0  0  0  0  0  0  0
    5.7594   -4.2181    2.4545 H   0  0  0  0  0  0  0  0  0  0  0  0
    5.7785   -3.0875    3.6600 H   0  0  0  0  0  0  0  0  0  0  0  0
    5.2806   -1.1623    3.2393 H   0  0  0  0  0  0  0  0  0  0  0  0
    4.2776   -0.5798    2.9435 H   0  0  0  0  0  0  0  0  0  0  0  0
    3.0181   -3.1245    4.2281 H   0  0  0  0  0  0  0  0  0  0  0  0
   -0.8422    0.0159    4.1499 H   0  0  0  0  0  0  0  0  0  0  0  0
   -0.3543    1.5753    2.2850 H   0  0  0  0  0  0  0  0  0  0  0  0
    1.6317    1.2772    0.8938 H   0  0  0  0  0  0  0  0  0  0  0  0
    4.1025    0.5425    1.0981 H   0  0  0  0  0  0  0  0  0  0  0  0
    3.3069   -0.2968   -0.0784 H   0  0  0  0  0  0  0  0  0  0  0  0
    1.5517   -4.3351    2.2873 H   0  0  0  0  0  0  0  0  0  0  0  0
  1  2  1  0
  1 28  1  0
  1 29  1  0
  1 30  1  0
  2  3  2  0
  2  4  1  0
  4  5  1  0
  5 12  1  0
  5  6  1  0
  5 31  1  6
  6  7  1  0
  6 32  1  0
  6 33  1  0
  7 17  1  0
  7  8  1  0
  7 34  1  1
  8 19  1  0
  8  9  1  0
  8 54  1  6
  9 10  1  0
  9 35  1  0
  9 36  1  0
 10 11  1  0
 10 37  1  0
 10 38  1  0
 11 12  1  0
 11 39  1  0
 11 40  1  0
 12 13  1  6
 12 14  1  0
 13 41  1  0
 14 18  1  0
 14 27  1  6
 14 15  1  0
 15 16  1  0
 15 42  1  0
 15 43  1  0
 17 16  1  1
 16 44  1  0
 16 45  1  0
 17 18  1  0
 17 19  1  0
 18 46  1  0
 18 47  1  0
 19 20  1  0
 19 48  1  1
 20 26  2  0
 20 21  1  0
 21 22  1  0
 21 23  2  0
 23 24  1  0
 23 49  1  0
 24 25  2  0
 24 50  1  0
 25 26  1  0
 25 51  1  0
 26 27  1  0
 27 52  1  0
 27 53  1  0
M  CHG  2   8   1  22  -1
M  END
>  <i_m_ct_stereo_status>  (368) 
1

>  <s_m_source_file>  (368) 
/var/tmp/pbs.5076255.sched01/tmpg0s73j8k/135j_ekwz2c.sdf

>  <i_m_source_file_index>  (368) 
16

>  <i_lp_mmshare_version>  (368) 
48012

>  <i_f3d_flags>  (368) 
0

>  <s_epik_input>  (368) 
W0NIM11DKD1PKU9bQ0BASF0oW0NAXTEoW0NAXTIzNClbT0hdKVtDSDJdW0NAQEhdNUMoW0NIMl0zKShbQ0gyXVtDSDJdMilbQ0BIXShONVtDSDJdW0NIMl1bQ0gyXTEpYzZjKFtDSDJdNClbY0hdW2NIXVtjSF1jNltPSF0=

>  <s_epik_cmdline>  (368) 
J2VwaWtfcHl0aG9uJywgJy1waHQnLCAnMi4wJywgJy1waCcsICc3LjAnLCAnLXRuJywgJzgnLCAnLW1hJywgJzIwMCcsICctaW1hZScsICc8aW5maWxlLm1hZT4nLCAnLW9tYWUnLCAnPG91dGZpbGUubWFlPic=

>  <r_epik_Ionization_Penalty>  (368) 
2.25168

>  <r_epik_Ionization_Penalty_Charging>  (368) 
2.25168

>  <r_epik_Ionization_Penalty_Neutral>  (368) 
1.40316e-07

>  <r_epik_State_Penalty>  (368) 
2.39994

>  <r_epik_Charging_Adjusted_Penalty>  (368) 
4.65162

>  <i_epik_Tot_Q>  (368) 
0

>  <i_epik_Tot_abs_Q>  (368) 
2

>  <s_epik_Chemistry_Notes>  (368) 
This compound has an ester and may undergo hydrolysis at high or low pH.

>  <s_lp_Force_Field>  (368) 
OPLS3e

>  <r_lp_Energy>  (368) 
446.739

>  <b_lp_Chiralities_Consistent>  (368) 
1

>  <s_lp_Variant>  (368) 
94:0-3

>  <s_i_glide_gridfile>  (368) 
pfpi4k_grid

>  <i_i_glide_lignum>  (368) 
16

>  <i_i_glide_rotatable_bonds>  (368) 
3

>  <r_i_docking_score>  (368) 
-3.08449

>  <r_i_glide_ligand_efficiency>  (368) 
-0.11424

>  <r_i_glide_ligand_efficiency_sa>  (368) 
-0.342721

>  <r_i_glide_ligand_efficiency_ln>  (368) 
-0.718018

>  <r_i_glide_gscore>  (368) 
-3.08449

>  <r_i_glide_lipo>  (368) 
-0.573166

>  <r_i_glide_hbond>  (368) 
0

>  <r_i_glide_metal>  (368) 
-0

>  <r_i_glide_rewards>  (368) 
-0.933243

>  <r_i_glide_evdw>  (368) 
-30.0914

>  <r_i_glide_ecoul>  (368) 
-1.38311

>  <r_i_glide_erotb>  (368) 
0.141258

>  <r_i_glide_esite>  (368) 
-0.00729881

>  <r_i_glide_emodel>  (368) 
-36.8761

>  <r_i_glide_energy>  (368) 
-31.4746

>  <r_i_glide_einternal>  (368) 
5.90296

>  <r_i_glide_intrahb_reward>  (368) 
-0

>  <i_i_glide_confnum>  (368) 
2

>  <i_i_glide_posenum>  (368) 
6

>  <r_i_glide_eff_state_penalty>  (368) 
0

>  <ligand_id>  (368) 
94

>  <original_smiles>  (368) 
CC(=O)OC1CC2N3CCCC1(O)C14CCC2(C1)C3c1c(O)cccc1C4

>  <smiles>  (368) 
[H]OC12C([H])([H])C([H])([H])C([H])([H])[N+]3([H])C4([H])c5c([O-])c([H])c([H])c([H])c5C([H])([H])C15C([H])([H])C([H])([H])C4(C5([H])[H])C3([H])C([H])([H])C2([H])OC(=O)C([H])([H])[H]

$$$$
95:0:0
     RDKit          3D

 13 14  0  0  1  0  0  0  0  0999 V2000
    2.1374   -6.7217    1.0267 F   0  0  0  0  0  0  0  0  0  0  0  0
    1.6725   -7.8145    1.6832 C   0  0  0  0  0  0  0  0  0  0  0  0
    2.4982   -8.9412    1.8812 C   0  0  0  0  0  0  0  0  0  0  0  0
    4.1139   -8.9538    1.2762 Cl  0  0  0  0  0  0  0  0  0  0  0  0
    2.0091  -10.0594    2.5779 C   0  0  0  0  0  0  0  0  0  0  0  0
    0.6923  -10.0683    3.0767 C   0  0  0  0  0  0  0  0  0  0  0  0
   -0.1268   -8.9621    2.8795 C   0  0  0  0  0  0  0  0  0  0  0  0
   -1.3843   -8.7381    3.2629 N   0  0  0  0  0  0  0  0  0  0  0  0
   -1.6615   -7.4534    2.7882 O   0  0  0  0  0  0  0  0  0  0  0  0
   -0.5764   -6.8815    2.1108 N   0  0  0  0  0  0  0  0  0  0  0  0
    0.3714   -7.8216    2.1720 C   0  0  0  0  0  0  0  0  0  0  0  0
    2.6465  -10.9214    2.7180 H   0  0  0  0  0  0  0  0  0  0  0  0
    0.3260  -10.9333    3.6100 H   0  0  0  0  0  0  0  0  0  0  0  0
  1  2  1  0
  2 11  1  0
  2  3  2  0
  3  4  1  0
  3  5  1  0
  5  6  2  0
  5 12  1  0
  6  7  1  0
  6 13  1  0
  7 11  1  0
  7  8  2  0
  8  9  1  0
  9 10  1  0
 10 11  2  0
M  END
>  <i_m_ct_stereo_status>  (369) 
1

>  <s_m_source_file>  (369) 
/var/tmp/pbs.5076255.sched01/tmpg0s73j8k/135j_ekwz2c.sdf

>  <i_m_source_file_index>  (369) 
17

>  <i_lp_mmshare_version>  (369) 
48012

>  <i_f3d_flags>  (369) 
0

>  <s_epik_input>  (369) 
W2NIXTFbY0hdYyhDbCljKEYpYyhjMTIpbm9uMg==

>  <s_epik_cmdline>  (369) 
J2VwaWtfcHl0aG9uJywgJy1waHQnLCAnMi4wJywgJy1waCcsICc3LjAnLCAnLXRuJywgJzgnLCAnLW1hJywgJzIwMCcsICctaW1hZScsICc8aW5maWxlLm1hZT4nLCAnLW9tYWUnLCAnPG91dGZpbGUubWFlPic=

>  <r_lp_tautomer_probability>  (369) 
1

>  <r_epik_Ionization_Penalty>  (369) 
0

>  <r_epik_Ionization_Penalty_Charging>  (369) 
0

>  <r_epik_Ionization_Penalty_Neutral>  (369) 
0

>  <r_epik_State_Penalty>  (369) 
-0

>  <r_epik_Charging_Adjusted_Penalty>  (369) 
0

>  <i_epik_Tot_Q>  (369) 
0

>  <i_epik_Tot_abs_Q>  (369) 
0

>  <s_lp_Force_Field>  (369) 
OPLS3e

>  <r_lp_Energy>  (369) 
10.9633

>  <b_lp_Chiralities_Consistent>  (369) 
1

>  <s_lp_Variant>  (369) 
95:0-1

>  <s_i_glide_gridfile>  (369) 
pfpi4k_grid

>  <i_i_glide_lignum>  (369) 
17

>  <i_i_glide_rotatable_bonds>  (369) 
0

>  <r_i_docking_score>  (369) 
-4.10002

>  <r_i_glide_ligand_efficiency>  (369) 
-0.372729

>  <r_i_glide_ligand_efficiency_sa>  (369) 
-0.828942

>  <r_i_glide_ligand_efficiency_ln>  (369) 
-1.20664

>  <r_i_glide_gscore>  (369) 
-4.10002

>  <r_i_glide_lipo>  (369) 
-0.126039

>  <r_i_glide_hbond>  (369) 
0

>  <r_i_glide_metal>  (369) 
-0

>  <r_i_glide_rewards>  (369) 
-2.23265

>  <r_i_glide_evdw>  (369) 
-17.3399

>  <r_i_glide_ecoul>  (369) 
-4.04804

>  <r_i_glide_erotb>  (369) 
0

>  <r_i_glide_esite>  (369) 
-0.267126

>  <r_i_glide_emodel>  (369) 
-27.5697

>  <r_i_glide_energy>  (369) 
-21.3879

>  <r_i_glide_einternal>  (369) 
0

>  <r_i_glide_intrahb_reward>  (369) 
-0

>  <i_i_glide_confnum>  (369) 
2

>  <i_i_glide_posenum>  (369) 
29

>  <r_i_glide_eff_state_penalty>  (369) 
0

>  <ligand_id>  (369) 
95

>  <original_smiles>  (369) 
Fc1c(Cl)ccc2nonc12

>  <smiles>  (369) 
[H]c1c(Cl)c(F)c2nonc2c1[H]

$$$$
95:0:1
     RDKit          3D

 13 14  0  0  1  0  0  0  0  0999 V2000
   -2.5467    2.5666    5.6720 F   0  0  0  0  0  0  0  0  0  0  0  0
   -1.7772    1.8772    4.7934 C   0  0  0  0  0  0  0  0  0  0  0  0
   -1.3179    2.4971    3.6156 C   0  0  0  0  0  0  0  0  0  0  0  0
   -1.7660    4.1374    3.2939 Cl  0  0  0  0  0  0  0  0  0  0  0  0
   -0.5072    1.7781    2.7128 C   0  0  0  0  0  0  0  0  0  0  0  0
   -0.1518    0.4463    2.9736 C   0  0  0  0  0  0  0  0  0  0  0  0
   -0.6220   -0.1743    4.1221 C   0  0  0  0  0  0  0  0  0  0  0  0
   -0.4453   -1.4215    4.5598 N   0  0  0  0  0  0  0  0  0  0  0  0
   -1.1702   -1.4676    5.7550 O   0  0  0  0  0  0  0  0  0  0  0  0
   -1.7853   -0.2463    6.0590 N   0  0  0  0  0  0  0  0  0  0  0  0
   -1.4459    0.5490    5.0426 C   0  0  0  0  0  0  0  0  0  0  0  0
   -0.1396    2.2054    1.7950 H   0  0  0  0  0  0  0  0  0  0  0  0
    0.4640   -0.0831    2.2607 H   0  0  0  0  0  0  0  0  0  0  0  0
  1  2  1  0
  2 11  1  0
  2  3  2  0
  3  4  1  0
  3  5  1  0
  5  6  2  0
  5 12  1  0
  6  7  1  0
  6 13  1  0
  7 11  1  0
  7  8  2  0
  8  9  1  0
  9 10  1  0
 10 11  2  0
M  END
>  <i_m_ct_stereo_status>  (370) 
1

>  <s_m_source_file>  (370) 
/var/tmp/pbs.5076255.sched01/tmpg0s73j8k/135j_ekwz2c.sdf

>  <i_m_source_file_index>  (370) 
17

>  <i_lp_mmshare_version>  (370) 
48012

>  <i_f3d_flags>  (370) 
0

>  <s_epik_input>  (370) 
W2NIXTFbY0hdYyhDbCljKEYpYyhjMTIpbm9uMg==

>  <s_epik_cmdline>  (370) 
J2VwaWtfcHl0aG9uJywgJy1waHQnLCAnMi4wJywgJy1waCcsICc3LjAnLCAnLXRuJywgJzgnLCAnLW1hJywgJzIwMCcsICctaW1hZScsICc8aW5maWxlLm1hZT4nLCAnLW9tYWUnLCAnPG91dGZpbGUubWFlPic=

>  <r_lp_tautomer_probability>  (370) 
1

>  <r_epik_Ionization_Penalty>  (370) 
0

>  <r_epik_Ionization_Penalty_Charging>  (370) 
0

>  <r_epik_Ionization_Penalty_Neutral>  (370) 
0

>  <r_epik_State_Penalty>  (370) 
-0

>  <r_epik_Charging_Adjusted_Penalty>  (370) 
0

>  <i_epik_Tot_Q>  (370) 
0

>  <i_epik_Tot_abs_Q>  (370) 
0

>  <s_lp_Force_Field>  (370) 
OPLS3e

>  <r_lp_Energy>  (370) 
10.9633

>  <b_lp_Chiralities_Consistent>  (370) 
1

>  <s_lp_Variant>  (370) 
95:0-1

>  <s_i_glide_gridfile>  (370) 
pfpi4k_grid

>  <i_i_glide_lignum>  (370) 
17

>  <i_i_glide_rotatable_bonds>  (370) 
0

>  <r_i_docking_score>  (370) 
-3.85255

>  <r_i_glide_ligand_efficiency>  (370) 
-0.350232

>  <r_i_glide_ligand_efficiency_sa>  (370) 
-0.778909

>  <r_i_glide_ligand_efficiency_ln>  (370) 
-1.13381

>  <r_i_glide_gscore>  (370) 
-3.85255

>  <r_i_glide_lipo>  (370) 
0

>  <r_i_glide_hbond>  (370) 
0

>  <r_i_glide_metal>  (370) 
-0

>  <r_i_glide_rewards>  (370) 
-2.29781

>  <r_i_glide_evdw>  (370) 
-13.0424

>  <r_i_glide_ecoul>  (370) 
-4.85087

>  <r_i_glide_erotb>  (370) 
0

>  <r_i_glide_esite>  (370) 
-0.17499

>  <r_i_glide_emodel>  (370) 
-23.6884

>  <r_i_glide_energy>  (370) 
-17.8933

>  <r_i_glide_einternal>  (370) 
0

>  <r_i_glide_intrahb_reward>  (370) 
-0

>  <i_i_glide_confnum>  (370) 
1

>  <i_i_glide_posenum>  (370) 
1

>  <r_i_glide_eff_state_penalty>  (370) 
0

>  <ligand_id>  (370) 
95

>  <original_smiles>  (370) 
Fc1c(Cl)ccc2nonc12

>  <smiles>  (370) 
[H]c1c(Cl)c(F)c2nonc2c1[H]

$$$$
95:0:2
     RDKit          3D

 13 14  0  0  1  0  0  0  0  0999 V2000
    2.1268   -3.1652   -3.3020 F   0  0  0  0  0  0  0  0  0  0  0  0
    2.9652   -2.6561   -2.3734 C   0  0  0  0  0  0  0  0  0  0  0  0
    3.8183   -1.5962   -2.7200 C   0  0  0  0  0  0  0  0  0  0  0  0
    3.8146   -0.9556   -4.3207 Cl  0  0  0  0  0  0  0  0  0  0  0  0
    4.6953   -1.0601   -1.7678 C   0  0  0  0  0  0  0  0  0  0  0  0
    4.7284   -1.5650   -0.4584 C   0  0  0  0  0  0  0  0  0  0  0  0
    3.8747   -2.6027   -0.1083 C   0  0  0  0  0  0  0  0  0  0  0  0
    3.7281   -3.2302    1.0590 N   0  0  0  0  0  0  0  0  0  0  0  0
    2.7357   -4.1855    0.8088 O   0  0  0  0  0  0  0  0  0  0  0  0
    2.2582   -4.1327   -0.5071 N   0  0  0  0  0  0  0  0  0  0  0  0
    2.9774   -3.1610   -1.0754 C   0  0  0  0  0  0  0  0  0  0  0  0
    5.3513   -0.2561   -2.0569 H   0  0  0  0  0  0  0  0  0  0  0  0
    5.3984   -1.1372    0.2673 H   0  0  0  0  0  0  0  0  0  0  0  0
  1  2  1  0
  2 11  1  0
  2  3  2  0
  3  4  1  0
  3  5  1  0
  5  6  2  0
  5 12  1  0
  6  7  1  0
  6 13  1  0
  7 11  1  0
  7  8  2  0
  8  9  1  0
  9 10  1  0
 10 11  2  0
M  END
>  <i_m_ct_stereo_status>  (371) 
1

>  <s_m_source_file>  (371) 
/var/tmp/pbs.5076255.sched01/tmpg0s73j8k/135j_ekwz2c.sdf

>  <i_m_source_file_index>  (371) 
17

>  <i_lp_mmshare_version>  (371) 
48012

>  <i_f3d_flags>  (371) 
0

>  <s_epik_input>  (371) 
W2NIXTFbY0hdYyhDbCljKEYpYyhjMTIpbm9uMg==

>  <s_epik_cmdline>  (371) 
J2VwaWtfcHl0aG9uJywgJy1waHQnLCAnMi4wJywgJy1waCcsICc3LjAnLCAnLXRuJywgJzgnLCAnLW1hJywgJzIwMCcsICctaW1hZScsICc8aW5maWxlLm1hZT4nLCAnLW9tYWUnLCAnPG91dGZpbGUubWFlPic=

>  <r_lp_tautomer_probability>  (371) 
1

>  <r_epik_Ionization_Penalty>  (371) 
0

>  <r_epik_Ionization_Penalty_Charging>  (371) 
0

>  <r_epik_Ionization_Penalty_Neutral>  (371) 
0

>  <r_epik_State_Penalty>  (371) 
-0

>  <r_epik_Charging_Adjusted_Penalty>  (371) 
0

>  <i_epik_Tot_Q>  (371) 
0

>  <i_epik_Tot_abs_Q>  (371) 
0

>  <s_lp_Force_Field>  (371) 
OPLS3e

>  <r_lp_Energy>  (371) 
10.9633

>  <b_lp_Chiralities_Consistent>  (371) 
1

>  <s_lp_Variant>  (371) 
95:0-1

>  <s_i_glide_gridfile>  (371) 
pfpi4k_grid

>  <i_i_glide_lignum>  (371) 
17

>  <i_i_glide_rotatable_bonds>  (371) 
0

>  <r_i_docking_score>  (371) 
-3.68739

>  <r_i_glide_ligand_efficiency>  (371) 
-0.335218

>  <r_i_glide_ligand_efficiency_sa>  (371) 
-0.745517

>  <r_i_glide_ligand_efficiency_ln>  (371) 
-1.0852

>  <r_i_glide_gscore>  (371) 
-3.68739

>  <r_i_glide_lipo>  (371) 
-0.0816066

>  <r_i_glide_hbond>  (371) 
0

>  <r_i_glide_metal>  (371) 
-0

>  <r_i_glide_rewards>  (371) 
-2.54477

>  <r_i_glide_evdw>  (371) 
-17.3708

>  <r_i_glide_ecoul>  (371) 
-0.690172

>  <r_i_glide_erotb>  (371) 
0

>  <r_i_glide_esite>  (371) 
-0.0889458

>  <r_i_glide_emodel>  (371) 
-23.6205

>  <r_i_glide_energy>  (371) 
-18.061

>  <r_i_glide_einternal>  (371) 
0

>  <r_i_glide_intrahb_reward>  (371) 
-0

>  <i_i_glide_confnum>  (371) 
2

>  <i_i_glide_posenum>  (371) 
35

>  <r_i_glide_eff_state_penalty>  (371) 
0

>  <ligand_id>  (371) 
95

>  <original_smiles>  (371) 
Fc1c(Cl)ccc2nonc12

>  <smiles>  (371) 
[H]c1c(Cl)c(F)c2nonc2c1[H]

$$$$
96:0:0
     RDKit          3D

 31 33  0  0  1  0  0  0  0  0999 V2000
    6.7820   -2.3220   -0.8792 O   0  0  0  0  0  0  0  0  0  0  0  0
    5.5802   -2.5881   -0.9429 C   0  0  0  0  0  0  0  0  0  0  0  0
    4.6988   -2.0219   -1.9883 C   0  0  0  0  0  0  0  0  0  0  0  0
    3.8587   -2.7589   -2.7915 C   0  0  0  0  0  0  0  0  0  0  0  0
    3.0085   -1.7440   -3.9157 S   0  0  0  0  0  0  0  0  0  0  0  0
    3.7842   -0.3452   -3.2006 C   0  0  0  0  0  0  0  0  0  0  0  0
    4.6288   -0.6524   -2.2192 N   0  0  0  0  0  0  0  0  0  0  0  0
    4.9337   -3.3325   -0.0364 N   0  0  0  0  0  0  0  0  0  0  0  0
    5.2585   -4.7579    0.0742 C   0  0  0  0  0  0  0  0  0  0  0  0
    4.1385   -5.5677    0.7703 C   0  0  1  0  0  0  0  0  0  0  0  0
    4.6078   -7.0106    1.0238 C   0  0  0  0  0  0  0  0  0  0  0  0
    3.5349   -7.8094    1.4655 O   0  0  0  0  0  0  0  0  0  0  0  0
    3.6397   -4.8797    2.0673 C   0  0  0  0  0  0  0  0  0  0  0  0
    3.4424   -3.4357    1.8947 N   0  0  0  0  0  0  0  0  0  0  0  0
    2.7169   -2.5624    2.6734 C   0  0  0  0  0  0  0  0  0  0  0  0
    2.8858   -1.3090    2.1283 C   0  0  0  0  0  0  0  0  0  0  0  0
    3.7199   -1.4565    1.0487 N   0  0  0  0  0  0  0  0  0  0  0  0
    4.0454   -2.7509    0.9218 C   0  0  0  0  0  0  0  0  0  0  0  0
    3.7048   -3.8360   -2.8221 H   0  0  0  0  0  0  0  0  0  0  0  0
    3.6247    0.6874   -3.4996 H   0  0  0  0  0  0  0  0  0  0  0  0
    5.4104   -5.1855   -0.9233 H   0  0  0  0  0  0  0  0  0  0  0  0
    6.1977   -4.8551    0.6219 H   0  0  0  0  0  0  0  0  0  0  0  0
    3.2900   -5.5960    0.0783 H   0  0  0  0  0  0  0  0  0  0  0  0
    5.0096   -7.4415    0.1091 H   0  0  0  0  0  0  0  0  0  0  0  0
    5.4058   -7.0254    1.7650 H   0  0  0  0  0  0  0  0  0  0  0  0
    3.8351   -8.7003    1.5752 H   0  0  0  0  0  0  0  0  0  0  0  0
    2.6943   -5.3056    2.4051 H   0  0  0  0  0  0  0  0  0  0  0  0
    4.3691   -5.0049    2.8675 H   0  0  0  0  0  0  0  0  0  0  0  0
    2.1473   -2.8815    3.5353 H   0  0  0  0  0  0  0  0  0  0  0  0
    2.4937   -0.3400    2.4115 H   0  0  0  0  0  0  0  0  0  0  0  0
    4.0286   -0.7067    0.4425 H   0  0  0  0  0  0  0  0  0  0  0  0
  1  2  2  0
  2  3  1  0
  2  8  1  0
  3  7  1  0
  3  4  2  0
  4  5  1  0
  4 19  1  0
  5  6  1  0
  6  7  2  0
  6 20  1  0
  8 18  1  0
  8  9  1  0
  9 10  1  0
  9 21  1  0
  9 22  1  0
 10 11  1  0
 10 13  1  0
 10 23  1  6
 11 12  1  0
 11 24  1  0
 11 25  1  0
 12 26  1  0
 13 14  1  0
 13 27  1  0
 13 28  1  0
 14 18  1  0
 14 15  1  0
 15 16  2  0
 15 29  1  0
 16 17  1  0
 16 30  1  0
 17 18  2  0
 17 31  1  0
M  CHG  1  17   1
M  END
>  <i_m_ct_stereo_status>  (372) 
1

>  <s_m_source_file>  (372) 
/var/tmp/pbs.5076255.sched01/tmpg0s73j8k/135j_ekwz2c.sdf

>  <i_m_source_file_index>  (372) 
18

>  <i_lp_mmshare_version>  (372) 
48012

>  <i_f3d_flags>  (372) 
0

>  <s_epik_input>  (372) 
W09IXVtDSDJdW0NAQEhdKFtDSDJdMSlbQ0gyXU4oYyhuMTIpbltjSF1bY0hdMilDKD1PKWMzW2NIXXNbY0hdbjM=

>  <s_epik_cmdline>  (372) 
J2VwaWtfcHl0aG9uJywgJy1waHQnLCAnMi4wJywgJy1waCcsICc3LjAnLCAnLXRuJywgJzgnLCAnLW1hJywgJzIwMCcsICctaW1hZScsICc8aW5maWxlLm1hZT4nLCAnLW9tYWUnLCAnPG91dGZpbGUubWFlPic=

>  <r_lp_tautomer_probability>  (372) 
1

>  <r_epik_Ionization_Penalty>  (372) 
0.0653744

>  <r_epik_Ionization_Penalty_Charging>  (372) 
0

>  <r_epik_Ionization_Penalty_Neutral>  (372) 
0.0653744

>  <r_epik_State_Penalty>  (372) 
0.0570077

>  <r_epik_Charging_Adjusted_Penalty>  (372) 
0.0570077

>  <i_epik_Tot_Q>  (372) 
1

>  <i_epik_Tot_abs_Q>  (372) 
1

>  <s_lp_Force_Field>  (372) 
OPLS3e

>  <r_lp_Energy>  (372) 
25.9379

>  <b_lp_Chiralities_Consistent>  (372) 
1

>  <s_lp_Variant>  (372) 
96:0-1

>  <s_i_glide_gridfile>  (372) 
pfpi4k_grid

>  <i_i_glide_lignum>  (372) 
18

>  <i_i_glide_rotatable_bonds>  (372) 
4

>  <r_i_docking_score>  (372) 
-3.66661

>  <r_i_glide_ligand_efficiency>  (372) 
-0.2037

>  <r_i_glide_ligand_efficiency_sa>  (372) 
-0.533846

>  <r_i_glide_ligand_efficiency_ln>  (372) 
-0.942483

>  <r_i_glide_gscore>  (372) 
-3.66661

>  <r_i_glide_lipo>  (372) 
-0.5227

>  <r_i_glide_hbond>  (372) 
-0.121452

>  <r_i_glide_metal>  (372) 
-0

>  <r_i_glide_rewards>  (372) 
-1.65572

>  <r_i_glide_evdw>  (372) 
-24.5314

>  <r_i_glide_ecoul>  (372) 
-5.71303

>  <r_i_glide_erotb>  (372) 
0.758342

>  <r_i_glide_esite>  (372) 
-0.0415542

>  <r_i_glide_emodel>  (372) 
-34.0609

>  <r_i_glide_energy>  (372) 
-30.2444

>  <r_i_glide_einternal>  (372) 
7.32881

>  <r_i_glide_intrahb_reward>  (372) 
-0

>  <i_i_glide_confnum>  (372) 
4

>  <i_i_glide_posenum>  (372) 
9

>  <r_i_glide_eff_state_penalty>  (372) 
0

>  <ligand_id>  (372) 
96

>  <original_smiles>  (372) 
O=C(c1cscn1)N1CC(CO)Cn2ccnc21

>  <smiles>  (372) 
[H]OC([H])([H])C1([H])C([H])([H])N(C(=O)c2nc([H])sc2[H])c2n(c([H])c([H])[n+]2[H])C1([H])[H]

$$$$
96:0:1
     RDKit          3D

 31 33  0  0  1  0  0  0  0  0999 V2000
    4.6015   -0.6605   -1.4246 O   0  0  0  0  0  0  0  0  0  0  0  0
    4.9228   -1.5472   -0.6223 C   0  0  0  0  0  0  0  0  0  0  0  0
    6.2852   -2.1283   -0.6296 C   0  0  0  0  0  0  0  0  0  0  0  0
    7.1041   -2.1577    0.4676 C   0  0  0  0  0  0  0  0  0  0  0  0
    8.6426   -2.9090    0.1444 S   0  0  0  0  0  0  0  0  0  0  0  0
    8.1191   -3.1058   -1.5164 C   0  0  0  0  0  0  0  0  0  0  0  0
    6.8908   -2.6469   -1.7665 N   0  0  0  0  0  0  0  0  0  0  0  0
    4.0735   -2.0471    0.3001 N   0  0  0  0  0  0  0  0  0  0  0  0
    3.9727   -3.5092    0.4582 C   0  0  0  0  0  0  0  0  0  0  0  0
    2.6094   -3.9314    1.0283 C   0  0  1  0  0  0  0  0  0  0  0  0
    2.5834   -5.4451    1.3348 C   0  0  0  0  0  0  0  0  0  0  0  0
    1.2657   -5.8927    1.5571 O   0  0  0  0  0  0  0  0  0  0  0  0
    2.1913   -3.0759    2.2608 C   0  0  0  0  0  0  0  0  0  0  0  0
    2.4116   -1.6378    2.0546 N   0  0  0  0  0  0  0  0  0  0  0  0
    1.8963   -0.5601    2.7499 C   0  0  0  0  0  0  0  0  0  0  0  0
    2.4959    0.5667    2.2131 C   0  0  0  0  0  0  0  0  0  0  0  0
    3.3569    0.1341    1.2408 N   0  0  0  0  0  0  0  0  0  0  0  0
    3.2790   -1.2027    1.1432 C   0  0  0  0  0  0  0  0  0  0  0  0
    6.9025   -1.7945    1.4643 H   0  0  0  0  0  0  0  0  0  0  0  0
    8.7156   -3.6008   -2.2827 H   0  0  0  0  0  0  0  0  0  0  0  0
    4.0814   -4.0104   -0.5035 H   0  0  0  0  0  0  0  0  0  0  0  0
    4.7691   -3.8739    1.1027 H   0  0  0  0  0  0  0  0  0  0  0  0
    1.8960   -3.7216    0.2256 H   0  0  0  0  0  0  0  0  0  0  0  0
    3.0005   -6.0261    0.5163 H   0  0  0  0  0  0  0  0  0  0  0  0
    3.1888   -5.6698    2.2085 H   0  0  0  0  0  0  0  0  0  0  0  0
    1.2909   -6.8126    1.7888 H   0  0  0  0  0  0  0  0  0  0  0  0
    1.1398   -3.1963    2.4989 H   0  0  0  0  0  0  0  0  0  0  0  0
    2.7833   -3.3543    3.1312 H   0  0  0  0  0  0  0  0  0  0  0  0
    1.1788   -0.6656    3.5462 H   0  0  0  0  0  0  0  0  0  0  0  0
    2.4090    1.6238    2.4192 H   0  0  0  0  0  0  0  0  0  0  0  0
    3.9493    0.7103    0.6603 H   0  0  0  0  0  0  0  0  0  0  0  0
  1  2  2  0
  2  3  1  0
  2  8  1  0
  3  7  1  0
  3  4  2  0
  4  5  1  0
  4 19  1  0
  5  6  1  0
  6  7  2  0
  6 20  1  0
  8 18  1  0
  8  9  1  0
  9 10  1  0
  9 21  1  0
  9 22  1  0
 10 11  1  0
 10 13  1  0
 10 23  1  6
 11 12  1  0
 11 24  1  0
 11 25  1  0
 12 26  1  0
 13 14  1  0
 13 27  1  0
 13 28  1  0
 14 18  1  0
 14 15  1  0
 15 16  2  0
 15 29  1  0
 16 17  1  0
 16 30  1  0
 17 18  2  0
 17 31  1  0
M  CHG  1  17   1
M  END
>  <i_m_ct_stereo_status>  (373) 
1

>  <s_m_source_file>  (373) 
/var/tmp/pbs.5076255.sched01/tmpg0s73j8k/135j_ekwz2c.sdf

>  <i_m_source_file_index>  (373) 
18

>  <i_lp_mmshare_version>  (373) 
48012

>  <i_f3d_flags>  (373) 
0

>  <s_epik_input>  (373) 
W09IXVtDSDJdW0NAQEhdKFtDSDJdMSlbQ0gyXU4oYyhuMTIpbltjSF1bY0hdMilDKD1PKWMzW2NIXXNbY0hdbjM=

>  <s_epik_cmdline>  (373) 
J2VwaWtfcHl0aG9uJywgJy1waHQnLCAnMi4wJywgJy1waCcsICc3LjAnLCAnLXRuJywgJzgnLCAnLW1hJywgJzIwMCcsICctaW1hZScsICc8aW5maWxlLm1hZT4nLCAnLW9tYWUnLCAnPG91dGZpbGUubWFlPic=

>  <r_lp_tautomer_probability>  (373) 
1

>  <r_epik_Ionization_Penalty>  (373) 
0.0653744

>  <r_epik_Ionization_Penalty_Charging>  (373) 
0

>  <r_epik_Ionization_Penalty_Neutral>  (373) 
0.0653744

>  <r_epik_State_Penalty>  (373) 
0.0570077

>  <r_epik_Charging_Adjusted_Penalty>  (373) 
0.0570077

>  <i_epik_Tot_Q>  (373) 
1

>  <i_epik_Tot_abs_Q>  (373) 
1

>  <s_lp_Force_Field>  (373) 
OPLS3e

>  <r_lp_Energy>  (373) 
25.9379

>  <b_lp_Chiralities_Consistent>  (373) 
1

>  <s_lp_Variant>  (373) 
96:0-1

>  <s_i_glide_gridfile>  (373) 
pfpi4k_grid

>  <i_i_glide_lignum>  (373) 
18

>  <i_i_glide_rotatable_bonds>  (373) 
4

>  <r_i_docking_score>  (373) 
-3.6488

>  <r_i_glide_ligand_efficiency>  (373) 
-0.202711

>  <r_i_glide_ligand_efficiency_sa>  (373) 
-0.531254

>  <r_i_glide_ligand_efficiency_ln>  (373) 
-0.937906

>  <r_i_glide_gscore>  (373) 
-3.6488

>  <r_i_glide_lipo>  (373) 
-0.129968

>  <r_i_glide_hbond>  (373) 
-0.227215

>  <r_i_glide_metal>  (373) 
-0

>  <r_i_glide_rewards>  (373) 
-1.60014

>  <r_i_glide_evdw>  (373) 
-22.2601

>  <r_i_glide_ecoul>  (373) 
-8.08621

>  <r_i_glide_erotb>  (373) 
0.758342

>  <r_i_glide_esite>  (373) 
-0.123883

>  <r_i_glide_emodel>  (373) 
-35.9329

>  <r_i_glide_energy>  (373) 
-30.3463

>  <r_i_glide_einternal>  (373) 
3.76943

>  <r_i_glide_intrahb_reward>  (373) 
-0

>  <i_i_glide_confnum>  (373) 
4

>  <i_i_glide_posenum>  (373) 
27

>  <r_i_glide_eff_state_penalty>  (373) 
0

>  <ligand_id>  (373) 
96

>  <original_smiles>  (373) 
O=C(c1cscn1)N1CC(CO)Cn2ccnc21

>  <smiles>  (373) 
[H]OC([H])([H])C1([H])C([H])([H])N(C(=O)c2nc([H])sc2[H])c2n(c([H])c([H])[n+]2[H])C1([H])[H]

$$$$
96:0:2
     RDKit          3D

 31 33  0  0  1  0  0  0  0  0999 V2000
    4.3083   -1.6543    3.2697 O   0  0  0  0  0  0  0  0  0  0  0  0
    3.7067   -1.3133    2.2474 C   0  0  0  0  0  0  0  0  0  0  0  0
    2.6552   -0.2769    2.2993 C   0  0  0  0  0  0  0  0  0  0  0  0
    1.3116   -0.5035    2.1215 C   0  0  0  0  0  0  0  0  0  0  0  0
    0.3796    0.9777    2.2047 S   0  0  0  0  0  0  0  0  0  0  0  0
    1.8827    1.8436    2.4852 C   0  0  0  0  0  0  0  0  0  0  0  0
    2.9609    1.0606    2.5318 N   0  0  0  0  0  0  0  0  0  0  0  0
    3.9320   -1.8647    1.0308 N   0  0  0  0  0  0  0  0  0  0  0  0
    3.8153   -1.0795   -0.2191 C   0  0  0  0  0  0  0  0  0  0  0  0
    3.6050   -1.9405   -1.4859 C   0  0  1  0  0  0  0  0  0  0  0  0
    3.7054   -1.0829   -2.7628 C   0  0  0  0  0  0  0  0  0  0  0  0
    3.4454   -1.8512   -3.9171 O   0  0  0  0  0  0  0  0  0  0  0  0
    4.5548   -3.1628   -1.5358 C   0  0  0  0  0  0  0  0  0  0  0  0
    4.6798   -3.8337   -0.2375 N   0  0  0  0  0  0  0  0  0  0  0  0
    5.1000   -5.1145    0.0413 C   0  0  0  0  0  0  0  0  0  0  0  0
    5.0644   -5.2536    1.4114 C   0  0  0  0  0  0  0  0  0  0  0  0
    4.6320   -4.0579    1.9205 N   0  0  0  0  0  0  0  0  0  0  0  0
    4.4171   -3.2080    0.9149 C   0  0  0  0  0  0  0  0  0  0  0  0
    0.8212   -1.4459    1.9007 H   0  0  0  0  0  0  0  0  0  0  0  0
    1.9928    2.9093    2.6263 H   0  0  0  0  0  0  0  0  0  0  0  0
    3.0051   -0.3544   -0.1918 H   0  0  0  0  0  0  0  0  0  0  0  0
    4.7341   -0.5019   -0.3325 H   0  0  0  0  0  0  0  0  0  0  0  0
    2.5888   -2.3301   -1.4266 H   0  0  0  0  0  0  0  0  0  0  0  0
    2.9920   -0.2639   -2.7365 H   0  0  0  0  0  0  0  0  0  0  0  0
    4.6940   -0.6375   -2.8565 H   0  0  0  0  0  0  0  0  0  0  0  0
    2.5586   -2.1755   -3.8727 H   0  0  0  0  0  0  0  0  0  0  0  0
    4.2003   -3.9014   -2.2576 H   0  0  0  0  0  0  0  0  0  0  0  0
    5.5585   -2.8500   -1.8273 H   0  0  0  0  0  0  0  0  0  0  0  0
    5.3823   -5.8127   -0.7342 H   0  0  0  0  0  0  0  0  0  0  0  0
    5.3073   -6.0727    2.0670 H   0  0  0  0  0  0  0  0  0  0  0  0
    4.5007   -3.8126    2.9005 H   0  0  0  0  0  0  0  0  0  0  0  0
  1  2  2  0
  2  3  1  0
  2  8  1  0
  3  7  1  0
  3  4  2  0
  4  5  1  0
  4 19  1  0
  5  6  1  0
  6  7  2  0
  6 20  1  0
  8 18  1  0
  8  9  1  0
  9 10  1  0
  9 21  1  0
  9 22  1  0
 10 11  1  0
 10 13  1  0
 10 23  1  1
 11 12  1  0
 11 24  1  0
 11 25  1  0
 12 26  1  0
 13 14  1  0
 13 27  1  0
 13 28  1  0
 14 18  1  0
 14 15  1  0
 15 16  2  0
 15 29  1  0
 16 17  1  0
 16 30  1  0
 17 18  2  0
 17 31  1  0
M  CHG  1  17   1
M  END
>  <i_m_ct_stereo_status>  (374) 
1

>  <s_m_source_file>  (374) 
/var/tmp/pbs.5076255.sched01/tmpg0s73j8k/135j_ekwz2c.sdf

>  <i_m_source_file_index>  (374) 
18

>  <i_lp_mmshare_version>  (374) 
48012

>  <i_f3d_flags>  (374) 
0

>  <s_epik_input>  (374) 
W09IXVtDSDJdW0NAQEhdKFtDSDJdMSlbQ0gyXU4oYyhuMTIpbltjSF1bY0hdMilDKD1PKWMzW2NIXXNbY0hdbjM=

>  <s_epik_cmdline>  (374) 
J2VwaWtfcHl0aG9uJywgJy1waHQnLCAnMi4wJywgJy1waCcsICc3LjAnLCAnLXRuJywgJzgnLCAnLW1hJywgJzIwMCcsICctaW1hZScsICc8aW5maWxlLm1hZT4nLCAnLW9tYWUnLCAnPG91dGZpbGUubWFlPic=

>  <r_lp_tautomer_probability>  (374) 
1

>  <r_epik_Ionization_Penalty>  (374) 
0.0653744

>  <r_epik_Ionization_Penalty_Charging>  (374) 
0

>  <r_epik_Ionization_Penalty_Neutral>  (374) 
0.0653744

>  <r_epik_State_Penalty>  (374) 
0.0570077

>  <r_epik_Charging_Adjusted_Penalty>  (374) 
0.0570077

>  <i_epik_Tot_Q>  (374) 
1

>  <i_epik_Tot_abs_Q>  (374) 
1

>  <s_lp_Force_Field>  (374) 
OPLS3e

>  <r_lp_Energy>  (374) 
25.9379

>  <b_lp_Chiralities_Consistent>  (374) 
1

>  <s_lp_Variant>  (374) 
96:0-1

>  <s_i_glide_gridfile>  (374) 
pfpi4k_grid

>  <i_i_glide_lignum>  (374) 
18

>  <i_i_glide_rotatable_bonds>  (374) 
4

>  <r_i_docking_score>  (374) 
-3.14009

>  <r_i_glide_ligand_efficiency>  (374) 
-0.174449

>  <r_i_glide_ligand_efficiency_sa>  (374) 
-0.457187

>  <r_i_glide_ligand_efficiency_ln>  (374) 
-0.807144

>  <r_i_glide_gscore>  (374) 
-3.14009

>  <r_i_glide_lipo>  (374) 
-0.0810129

>  <r_i_glide_hbond>  (374) 
-0.014991

>  <r_i_glide_metal>  (374) 
-0

>  <r_i_glide_rewards>  (374) 
-1.6629

>  <r_i_glide_evdw>  (374) 
-22.8048

>  <r_i_glide_ecoul>  (374) 
-6.54618

>  <r_i_glide_erotb>  (374) 
0.758342

>  <r_i_glide_esite>  (374) 
-0.0173561

>  <r_i_glide_emodel>  (374) 
-35.5848

>  <r_i_glide_energy>  (374) 
-29.351

>  <r_i_glide_einternal>  (374) 
0.812203

>  <r_i_glide_intrahb_reward>  (374) 
-0

>  <i_i_glide_confnum>  (374) 
2

>  <i_i_glide_posenum>  (374) 
5

>  <r_i_glide_eff_state_penalty>  (374) 
0

>  <ligand_id>  (374) 
96

>  <original_smiles>  (374) 
O=C(c1cscn1)N1CC(CO)Cn2ccnc21

>  <smiles>  (374) 
[H]OC([H])([H])C1([H])C([H])([H])N(C(=O)c2nc([H])sc2[H])c2n(c([H])c([H])[n+]2[H])C1([H])[H]

$$$$
96:1:0
     RDKit          3D

 30 32  0  0  1  0  0  0  0  0999 V2000
    1.0301   -5.8560    0.0379 O   0  0  0  0  0  0  0  0  0  0  0  0
    1.8882   -6.1956    0.8785 C   0  0  0  0  0  0  0  0  0  0  0  0
    3.1022   -5.3493    1.0876 C   0  0  0  0  0  0  0  0  0  0  0  0
    3.7254   -4.6610    0.0836 C   0  0  0  0  0  0  0  0  0  0  0  0
    5.0455   -3.6802    0.6807 S   0  0  0  0  0  0  0  0  0  0  0  0
    4.6712   -4.2379    2.3104 C   0  0  0  0  0  0  0  0  0  0  0  0
    3.6332   -5.0756    2.3612 N   0  0  0  0  0  0  0  0  0  0  0  0
    1.8100   -7.3238    1.6265 N   0  0  0  0  0  0  0  0  0  0  0  0
    3.0243   -8.0886    2.0208 C   0  0  0  0  0  0  0  0  0  0  0  0
    2.7755   -9.5879    2.3041 C   0  0  1  0  0  0  0  0  0  0  0  0
    4.0308  -10.2504    2.9076 C   0  0  0  0  0  0  0  0  0  0  0  0
    3.8809  -11.6457    2.8800 O   0  0  0  0  0  0  0  0  0  0  0  0
    1.5414   -9.7982    3.2035 C   0  0  0  0  0  0  0  0  0  0  0  0
    0.4512   -8.9374    2.7940 N   0  0  0  0  0  0  0  0  0  0  0  0
   -0.8995   -9.0631    3.1019 C   0  0  0  0  0  0  0  0  0  0  0  0
   -1.5394   -7.9841    2.5514 C   0  0  0  0  0  0  0  0  0  0  0  0
   -0.6043   -7.1481    1.9558 N   0  0  0  0  0  0  0  0  0  0  0  0
    0.5441   -7.8033    2.0917 C   0  0  0  0  0  0  0  0  0  0  0  0
    3.4613   -4.6561   -0.9682 H   0  0  0  0  0  0  0  0  0  0  0  0
    5.1682   -3.9560    3.2327 H   0  0  0  0  0  0  0  0  0  0  0  0
    3.7833   -8.0253    1.2389 H   0  0  0  0  0  0  0  0  0  0  0  0
    3.4646   -7.6480    2.9149 H   0  0  0  0  0  0  0  0  0  0  0  0
    2.5668  -10.0481    1.3356 H   0  0  0  0  0  0  0  0  0  0  0  0
    4.9204   -9.9898    2.3310 H   0  0  0  0  0  0  0  0  0  0  0  0
    4.1988   -9.9189    3.9315 H   0  0  0  0  0  0  0  0  0  0  0  0
    3.8196  -11.8608    1.9327 H   0  0  0  0  0  0  0  0  0  0  0  0
    1.2093  -10.8351    3.1837 H   0  0  0  0  0  0  0  0  0  0  0  0
    1.7841   -9.5512    4.2378 H   0  0  0  0  0  0  0  0  0  0  0  0
   -1.2944   -9.8815    3.6715 H   0  0  0  0  0  0  0  0  0  0  0  0
   -2.5861   -7.7217    2.5418 H   0  0  0  0  0  0  0  0  0  0  0  0
  1  2  2  0
  2  3  1  0
  2  8  1  0
  3  7  1  0
  3  4  2  0
  4  5  1  0
  4 19  1  0
  5  6  1  0
  6  7  2  0
  6 20  1  0
  8 18  1  0
  8  9  1  0
  9 10  1  0
  9 21  1  0
  9 22  1  0
 10 11  1  0
 10 13  1  0
 10 23  1  6
 11 12  1  0
 11 24  1  0
 11 25  1  0
 12 26  1  0
 13 14  1  0
 13 27  1  0
 13 28  1  0
 14 18  1  0
 14 15  1  0
 15 16  2  0
 15 29  1  0
 16 17  1  0
 16 30  1  0
 17 18  2  0
M  END
>  <i_m_ct_stereo_status>  (375) 
1

>  <s_m_source_file>  (375) 
/var/tmp/pbs.5076255.sched01/tmpg0s73j8k/135j_ekwz2c.sdf

>  <i_m_source_file_index>  (375) 
19

>  <i_lp_mmshare_version>  (375) 
48012

>  <i_f3d_flags>  (375) 
0

>  <s_epik_input>  (375) 
W09IXVtDSDJdW0NAQEhdKFtDSDJdMSlbQ0gyXU4oYyhuMTIpbltjSF1bY0hdMilDKD1PKWMzW2NIXXNbY0hdbjM=

>  <s_epik_cmdline>  (375) 
J2VwaWtfcHl0aG9uJywgJy1waHQnLCAnMi4wJywgJy1waCcsICc3LjAnLCAnLXRuJywgJzgnLCAnLW1hJywgJzIwMCcsICctaW1hZScsICc8aW5maWxlLm1hZT4nLCAnLW9tYWUnLCAnPG91dGZpbGUubWFlPic=

>  <r_lp_tautomer_probability>  (375) 
1

>  <r_epik_Ionization_Penalty>  (375) 
1.33834

>  <r_epik_Ionization_Penalty_Charging>  (375) 
1.33834

>  <r_epik_Ionization_Penalty_Neutral>  (375) 
9.36534e-07

>  <r_epik_State_Penalty>  (375) 
1.41537

>  <r_epik_Charging_Adjusted_Penalty>  (375) 
2.75371

>  <i_epik_Tot_Q>  (375) 
0

>  <i_epik_Tot_abs_Q>  (375) 
0

>  <s_lp_Force_Field>  (375) 
OPLS3e

>  <r_lp_Energy>  (375) 
33.4431

>  <b_lp_Chiralities_Consistent>  (375) 
1

>  <s_lp_Variant>  (375) 
96:0-2

>  <s_i_glide_gridfile>  (375) 
pfpi4k_grid

>  <i_i_glide_lignum>  (375) 
19

>  <i_i_glide_rotatable_bonds>  (375) 
4

>  <r_i_docking_score>  (375) 
-4.72438

>  <r_i_glide_ligand_efficiency>  (375) 
-0.262465

>  <r_i_glide_ligand_efficiency_sa>  (375) 
-0.687854

>  <r_i_glide_ligand_efficiency_ln>  (375) 
-1.21438

>  <r_i_glide_gscore>  (375) 
-4.72438

>  <r_i_glide_lipo>  (375) 
-0.0928247

>  <r_i_glide_hbond>  (375) 
-0.635287

>  <r_i_glide_metal>  (375) 
-0

>  <r_i_glide_rewards>  (375) 
-1.60701

>  <r_i_glide_evdw>  (375) 
-20.8009

>  <r_i_glide_ecoul>  (375) 
-13.0751

>  <r_i_glide_erotb>  (375) 
0.76334

>  <r_i_glide_esite>  (375) 
-0.151274

>  <r_i_glide_emodel>  (375) 
-44.8789

>  <r_i_glide_energy>  (375) 
-33.876

>  <r_i_glide_einternal>  (375) 
1.01308

>  <r_i_glide_intrahb_reward>  (375) 
-0

>  <i_i_glide_confnum>  (375) 
2

>  <i_i_glide_posenum>  (375) 
10

>  <r_i_glide_eff_state_penalty>  (375) 
0

>  <ligand_id>  (375) 
96

>  <original_smiles>  (375) 
O=C(c1cscn1)N1CC(CO)Cn2ccnc21

>  <smiles>  (375) 
[H]OC([H])([H])C1([H])C([H])([H])N(C(=O)c2nc([H])sc2[H])c2nc([H])c([H])n2C1([H])[H]

$$$$
96:1:1
     RDKit          3D

 30 32  0  0  1  0  0  0  0  0999 V2000
    1.0207   -5.8689    0.1105 O   0  0  0  0  0  0  0  0  0  0  0  0
    1.9720   -6.2247    0.8245 C   0  0  0  0  0  0  0  0  0  0  0  0
    3.2127   -5.4054    0.7900 C   0  0  0  0  0  0  0  0  0  0  0  0
    4.4822   -5.8031    0.4043 C   0  0  0  0  0  0  0  0  0  0  0  0
    5.6199   -4.4737    0.4694 S   0  0  0  0  0  0  0  0  0  0  0  0
    4.3089   -3.4216    0.9418 C   0  0  0  0  0  0  0  0  0  0  0  0
    3.1428   -4.0437    1.0826 N   0  0  0  0  0  0  0  0  0  0  0  0
    1.9223   -7.3021    1.6356 N   0  0  0  0  0  0  0  0  0  0  0  0
    3.1609   -8.0475    1.9709 C   0  0  0  0  0  0  0  0  0  0  0  0
    2.9191   -9.5113    2.3563 C   0  0  1  0  0  0  0  0  0  0  0  0
    4.2245  -10.1505    2.8626 C   0  0  0  0  0  0  0  0  0  0  0  0
    4.1234  -11.5604    2.8810 O   0  0  0  0  0  0  0  0  0  0  0  0
    1.7645   -9.6651    3.3667 C   0  0  0  0  0  0  0  0  0  0  0  0
    0.6454   -8.8156    2.9958 N   0  0  0  0  0  0  0  0  0  0  0  0
   -0.6638   -8.9182    3.4272 C   0  0  0  0  0  0  0  0  0  0  0  0
   -1.3553   -7.8641    2.8677 C   0  0  0  0  0  0  0  0  0  0  0  0
   -0.4881   -7.0849    2.1113 N   0  0  0  0  0  0  0  0  0  0  0  0
    0.6846   -7.7281    2.2224 C   0  0  0  0  0  0  0  0  0  0  0  0
    4.8058   -6.7800    0.0800 H   0  0  0  0  0  0  0  0  0  0  0  0
    4.3887   -2.3607    1.1053 H   0  0  0  0  0  0  0  0  0  0  0  0
    3.7937   -8.1254    1.1099 H   0  0  0  0  0  0  0  0  0  0  0  0
    3.6914   -7.5232    2.7726 H   0  0  0  0  0  0  0  0  0  0  0  0
    2.6293  -10.0287    1.4421 H   0  0  0  0  0  0  0  0  0  0  0  0
    5.0650   -9.8884    2.2173 H   0  0  0  0  0  0  0  0  0  0  0  0
    4.4758   -9.7850    3.8596 H   0  0  0  0  0  0  0  0  0  0  0  0
    4.0696  -11.8540    1.9397 H   0  0  0  0  0  0  0  0  0  0  0  0
    1.4381  -10.7103    3.4313 H   0  0  0  0  0  0  0  0  0  0  0  0
    2.1107   -9.3588    4.3577 H   0  0  0  0  0  0  0  0  0  0  0  0
   -0.9773   -9.7229    4.0907 H   0  0  0  0  0  0  0  0  0  0  0  0
   -2.4030   -7.6065    2.9500 H   0  0  0  0  0  0  0  0  0  0  0  0
  1  2  2  0
  2  3  1  0
  2  8  1  0
  3  7  1  0
  3  4  2  0
  4  5  1  0
  4 19  1  0
  5  6  1  0
  6  7  2  0
  6 20  1  0
  8 18  1  0
  8  9  1  0
  9 10  1  0
  9 21  1  0
  9 22  1  0
 10 11  1  0
 10 13  1  0
 10 23  1  6
 11 12  1  0
 11 24  1  0
 11 25  1  0
 12 26  1  0
 13 14  1  0
 13 27  1  0
 13 28  1  0
 14 18  1  0
 14 15  1  0
 15 16  2  0
 15 29  1  0
 16 17  1  0
 16 30  1  0
 17 18  2  0
M  END
>  <i_m_ct_stereo_status>  (376) 
1

>  <s_m_source_file>  (376) 
/var/tmp/pbs.5076255.sched01/tmpg0s73j8k/135j_ekwz2c.sdf

>  <i_m_source_file_index>  (376) 
19

>  <i_lp_mmshare_version>  (376) 
48012

>  <i_f3d_flags>  (376) 
0

>  <s_epik_input>  (376) 
W09IXVtDSDJdW0NAQEhdKFtDSDJdMSlbQ0gyXU4oYyhuMTIpbltjSF1bY0hdMilDKD1PKWMzW2NIXXNbY0hdbjM=

>  <s_epik_cmdline>  (376) 
J2VwaWtfcHl0aG9uJywgJy1waHQnLCAnMi4wJywgJy1waCcsICc3LjAnLCAnLXRuJywgJzgnLCAnLW1hJywgJzIwMCcsICctaW1hZScsICc8aW5maWxlLm1hZT4nLCAnLW9tYWUnLCAnPG91dGZpbGUubWFlPic=

>  <r_lp_tautomer_probability>  (376) 
1

>  <r_epik_Ionization_Penalty>  (376) 
1.33834

>  <r_epik_Ionization_Penalty_Charging>  (376) 
1.33834

>  <r_epik_Ionization_Penalty_Neutral>  (376) 
9.36534e-07

>  <r_epik_State_Penalty>  (376) 
1.41537

>  <r_epik_Charging_Adjusted_Penalty>  (376) 
2.75371

>  <i_epik_Tot_Q>  (376) 
0

>  <i_epik_Tot_abs_Q>  (376) 
0

>  <s_lp_Force_Field>  (376) 
OPLS3e

>  <r_lp_Energy>  (376) 
33.4431

>  <b_lp_Chiralities_Consistent>  (376) 
1

>  <s_lp_Variant>  (376) 
96:0-2

>  <s_i_glide_gridfile>  (376) 
pfpi4k_grid

>  <i_i_glide_lignum>  (376) 
19

>  <i_i_glide_rotatable_bonds>  (376) 
4

>  <r_i_docking_score>  (376) 
-4.37748

>  <r_i_glide_ligand_efficiency>  (376) 
-0.243193

>  <r_i_glide_ligand_efficiency_sa>  (376) 
-0.637347

>  <r_i_glide_ligand_efficiency_ln>  (376) 
-1.12521

>  <r_i_glide_gscore>  (376) 
-4.37748

>  <r_i_glide_lipo>  (376) 
-0.202393

>  <r_i_glide_hbond>  (376) 
-0.607868

>  <r_i_glide_metal>  (376) 
-0

>  <r_i_glide_rewards>  (376) 
-1.60701

>  <r_i_glide_evdw>  (376) 
-21.5299

>  <r_i_glide_ecoul>  (376) 
-10.1091

>  <r_i_glide_erotb>  (376) 
0.76334

>  <r_i_glide_esite>  (376) 
-0.13068

>  <r_i_glide_emodel>  (376) 
-41.4834

>  <r_i_glide_energy>  (376) 
-31.6391

>  <r_i_glide_einternal>  (376) 
1.536

>  <r_i_glide_intrahb_reward>  (376) 
-0

>  <i_i_glide_confnum>  (376) 
2

>  <i_i_glide_posenum>  (376) 
26

>  <r_i_glide_eff_state_penalty>  (376) 
0

>  <ligand_id>  (376) 
96

>  <original_smiles>  (376) 
O=C(c1cscn1)N1CC(CO)Cn2ccnc21

>  <smiles>  (376) 
[H]OC([H])([H])C1([H])C([H])([H])N(C(=O)c2nc([H])sc2[H])c2nc([H])c([H])n2C1([H])[H]

$$$$
96:1:2
     RDKit          3D

 30 32  0  0  1  0  0  0  0  0999 V2000
    0.7032   -6.2583    0.8595 O   0  0  0  0  0  0  0  0  0  0  0  0
    1.8760   -6.3482    1.2338 C   0  0  0  0  0  0  0  0  0  0  0  0
    2.7317   -5.1299    1.2088 C   0  0  0  0  0  0  0  0  0  0  0  0
    3.7501   -4.8367    0.3336 C   0  0  0  0  0  0  0  0  0  0  0  0
    4.4409   -3.2571    0.6204 S   0  0  0  0  0  0  0  0  0  0  0  0
    3.2703   -3.0297    1.8992 C   0  0  0  0  0  0  0  0  0  0  0  0
    2.4708   -4.0784    2.0921 N   0  0  0  0  0  0  0  0  0  0  0  0
    2.4450   -7.5106    1.6432 N   0  0  0  0  0  0  0  0  0  0  0  0
    3.9057   -7.7262    1.5292 C   0  0  0  0  0  0  0  0  0  0  0  0
    4.2955   -9.2138    1.4454 C   0  0  1  0  0  0  0  0  0  0  0  0
    5.8241   -9.3778    1.5008 C   0  0  0  0  0  0  0  0  0  0  0  0
    6.2107  -10.6630    1.0779 O   0  0  0  0  0  0  0  0  0  0  0  0
    3.5873  -10.0636    2.5179 C   0  0  0  0  0  0  0  0  0  0  0  0
    2.1891   -9.6987    2.6386 N   0  0  0  0  0  0  0  0  0  0  0  0
    1.1607  -10.4294    3.2107 C   0  0  0  0  0  0  0  0  0  0  0  0
    0.0345   -9.6394    3.1322 C   0  0  0  0  0  0  0  0  0  0  0  0
    0.3443   -8.4197    2.5473 N   0  0  0  0  0  0  0  0  0  0  0  0
    1.6409   -8.5273    2.2588 C   0  0  0  0  0  0  0  0  0  0  0  0
    4.1346   -5.4698   -0.4651 H   0  0  0  0  0  0  0  0  0  0  0  0
    3.1647   -2.1310    2.4897 H   0  0  0  0  0  0  0  0  0  0  0  0
    4.2955   -7.2845    0.6068 H   0  0  0  0  0  0  0  0  0  0  0  0
    4.4198   -7.2555    2.3745 H   0  0  0  0  0  0  0  0  0  0  0  0
    3.9623   -9.5678    0.4678 H   0  0  0  0  0  0  0  0  0  0  0  0
    6.3281   -8.6511    0.8651 H   0  0  0  0  0  0  0  0  0  0  0  0
    6.2028   -9.1920    2.5066 H   0  0  0  0  0  0  0  0  0  0  0  0
    5.4400  -11.1876    0.8737 H   0  0  0  0  0  0  0  0  0  0  0  0
    3.6639  -11.1316    2.2985 H   0  0  0  0  0  0  0  0  0  0  0  0
    4.0610   -9.8953    3.4859 H   0  0  0  0  0  0  0  0  0  0  0  0
    1.3200  -11.4203    3.6244 H   0  0  0  0  0  0  0  0  0  0  0  0
   -0.9660   -9.8541    3.4637 H   0  0  0  0  0  0  0  0  0  0  0  0
  1  2  2  0
  2  3  1  0
  2  8  1  0
  3  7  1  0
  3  4  2  0
  4  5  1  0
  4 19  1  0
  5  6  1  0
  6  7  2  0
  6 20  1  0
  8 18  1  0
  8  9  1  0
  9 10  1  0
  9 21  1  0
  9 22  1  0
 10 11  1  0
 10 13  1  0
 10 23  1  6
 11 12  1  0
 11 24  1  0
 11 25  1  0
 12 26  1  0
 13 14  1  0
 13 27  1  0
 13 28  1  0
 14 18  1  0
 14 15  1  0
 15 16  2  0
 15 29  1  0
 16 17  1  0
 16 30  1  0
 17 18  2  0
M  END
>  <i_m_ct_stereo_status>  (377) 
1

>  <s_m_source_file>  (377) 
/var/tmp/pbs.5076255.sched01/tmpg0s73j8k/135j_ekwz2c.sdf

>  <i_m_source_file_index>  (377) 
19

>  <i_lp_mmshare_version>  (377) 
48012

>  <i_f3d_flags>  (377) 
0

>  <s_epik_input>  (377) 
W09IXVtDSDJdW0NAQEhdKFtDSDJdMSlbQ0gyXU4oYyhuMTIpbltjSF1bY0hdMilDKD1PKWMzW2NIXXNbY0hdbjM=

>  <s_epik_cmdline>  (377) 
J2VwaWtfcHl0aG9uJywgJy1waHQnLCAnMi4wJywgJy1waCcsICc3LjAnLCAnLXRuJywgJzgnLCAnLW1hJywgJzIwMCcsICctaW1hZScsICc8aW5maWxlLm1hZT4nLCAnLW9tYWUnLCAnPG91dGZpbGUubWFlPic=

>  <r_lp_tautomer_probability>  (377) 
1

>  <r_epik_Ionization_Penalty>  (377) 
1.33834

>  <r_epik_Ionization_Penalty_Charging>  (377) 
1.33834

>  <r_epik_Ionization_Penalty_Neutral>  (377) 
9.36534e-07

>  <r_epik_State_Penalty>  (377) 
1.41537

>  <r_epik_Charging_Adjusted_Penalty>  (377) 
2.75371

>  <i_epik_Tot_Q>  (377) 
0

>  <i_epik_Tot_abs_Q>  (377) 
0

>  <s_lp_Force_Field>  (377) 
OPLS3e

>  <r_lp_Energy>  (377) 
33.4431

>  <b_lp_Chiralities_Consistent>  (377) 
1

>  <s_lp_Variant>  (377) 
96:0-2

>  <s_i_glide_gridfile>  (377) 
pfpi4k_grid

>  <i_i_glide_lignum>  (377) 
19

>  <i_i_glide_rotatable_bonds>  (377) 
4

>  <r_i_docking_score>  (377) 
-4.03611

>  <r_i_glide_ligand_efficiency>  (377) 
-0.224228

>  <r_i_glide_ligand_efficiency_sa>  (377) 
-0.587645

>  <r_i_glide_ligand_efficiency_ln>  (377) 
-1.03746

>  <r_i_glide_gscore>  (377) 
-4.03611

>  <r_i_glide_lipo>  (377) 
-0.208659

>  <r_i_glide_hbond>  (377) 
-0.32

>  <r_i_glide_metal>  (377) 
-0

>  <r_i_glide_rewards>  (377) 
-1.66373

>  <r_i_glide_evdw>  (377) 
-22.2261

>  <r_i_glide_ecoul>  (377) 
-9.55954

>  <r_i_glide_erotb>  (377) 
0.76334

>  <r_i_glide_esite>  (377) 
-0.06183

>  <r_i_glide_emodel>  (377) 
-40.1312

>  <r_i_glide_energy>  (377) 
-31.7857

>  <r_i_glide_einternal>  (377) 
2.99565

>  <r_i_glide_intrahb_reward>  (377) 
-0

>  <i_i_glide_confnum>  (377) 
2

>  <i_i_glide_posenum>  (377) 
11

>  <r_i_glide_eff_state_penalty>  (377) 
0

>  <ligand_id>  (377) 
96

>  <original_smiles>  (377) 
O=C(c1cscn1)N1CC(CO)Cn2ccnc21

>  <smiles>  (377) 
[H]OC([H])([H])C1([H])C([H])([H])N(C(=O)c2nc([H])sc2[H])c2nc([H])c([H])n2C1([H])[H]

$$$$
97:0:0
     RDKit          3D

 21 24  0  0  1  0  0  0  0  0999 V2000
    3.8378    0.1428   -3.6118 C   0  0  0  0  0  0  0  0  0  0  0  0
    3.0166   -0.7564   -4.3376 C   0  0  0  0  0  0  0  0  0  0  0  0
    2.9776   -1.9134   -3.7269 N   0  0  0  0  0  0  0  0  0  0  0  0
    3.7407   -1.6778   -2.6300 N   0  0  0  0  0  0  0  0  0  0  0  0
    3.9284   -2.6570   -1.6362 C   0  0  0  0  0  0  0  0  0  0  0  0
    2.8343   -3.4481   -1.1371 C   0  0  0  0  0  0  0  0  0  0  0  0
    3.1977   -4.3902   -0.1590 N   0  0  0  0  0  0  0  0  0  0  0  0
    2.3429   -5.2288    0.4532 N   0  0  0  0  0  0  0  0  0  0  0  0
    3.1311   -5.9307    1.2713 N   0  0  0  0  0  0  0  0  0  0  0  0
    4.4899   -5.5760    1.2277 N   0  0  0  0  0  0  0  0  0  0  0  0
    4.3628   -4.6583    0.3435 C   0  0  0  0  0  0  0  0  0  0  0  0
    5.4028   -3.8767   -0.1533 C   0  0  0  0  0  0  0  0  0  0  0  0
    6.7505   -3.9287    0.1970 C   0  0  0  0  0  0  0  0  0  0  0  0
    7.2997   -2.9210   -0.6399 N   0  0  0  0  0  0  0  0  0  0  0  0
    6.3529   -2.3672   -1.3997 N   0  0  0  0  0  0  0  0  0  0  0  0
    5.1636   -2.9656   -1.0649 N   0  0  0  0  0  0  0  0  0  0  0  0
    4.3187   -0.4483   -2.5602 N   0  0  0  0  0  0  0  0  0  0  0  0
    4.0737    1.1745   -3.8277 H   0  0  0  0  0  0  0  0  0  0  0  0
    2.4784   -0.6059   -5.2471 H   0  0  0  0  0  0  0  0  0  0  0  0
    1.7946   -3.3496   -1.4639 H   0  0  0  0  0  0  0  0  0  0  0  0
    7.2614   -4.5785    0.9130 H   0  0  0  0  0  0  0  0  0  0  0  0
  1 17  2  0
  1  2  1  0
  1 18  1  0
  2  3  2  0
  2 19  1  0
  3  4  1  0
  4  5  1  0
  4 17  1  0
  5 16  1  0
  5  6  2  0
  6  7  1  0
  6 20  1  0
  7 11  1  0
  7  8  1  0
  8  9  2  0
  9 10  1  0
 10 11  2  0
 11 12  1  0
 12 16  1  0
 12 13  2  0
 13 14  1  0
 13 21  1  0
 14 15  2  0
 15 16  1  0
M  END
>  <i_m_ct_stereo_status>  (378) 
1

>  <s_m_source_file>  (378) 
/var/tmp/pbs.5076255.sched01/tmpg0s73j8k/135j_ekwz2c.sdf

>  <i_m_source_file_index>  (378) 
20

>  <i_lp_mmshare_version>  (378) 
48012

>  <i_f3d_flags>  (378) 
0

>  <s_epik_input>  (378) 
bjFbY0hdW2NIXW5uMS1jKFtjSF0yKW4obm5bY0hdMyljM2MobjI0KW5ubjQ=

>  <s_epik_cmdline>  (378) 
J2VwaWtfcHl0aG9uJywgJy1waHQnLCAnMi4wJywgJy1waCcsICc3LjAnLCAnLXRuJywgJzgnLCAnLW1hJywgJzIwMCcsICctaW1hZScsICc8aW5maWxlLm1hZT4nLCAnLW9tYWUnLCAnPG91dGZpbGUubWFlPic=

>  <r_lp_tautomer_probability>  (378) 
1

>  <r_epik_Ionization_Penalty>  (378) 
1.43802e-11

>  <r_epik_Ionization_Penalty_Charging>  (378) 
0

>  <r_epik_Ionization_Penalty_Neutral>  (378) 
1.43802e-11

>  <r_epik_State_Penalty>  (378) 
-0

>  <r_epik_Charging_Adjusted_Penalty>  (378) 
0

>  <i_epik_Tot_Q>  (378) 
0

>  <i_epik_Tot_abs_Q>  (378) 
0

>  <s_lp_Force_Field>  (378) 
OPLS3e

>  <r_lp_Energy>  (378) 
21.5611

>  <b_lp_Chiralities_Consistent>  (378) 
1

>  <s_lp_Variant>  (378) 
97:0-1

>  <s_i_glide_gridfile>  (378) 
pfpi4k_grid

>  <i_i_glide_lignum>  (378) 
20

>  <i_i_glide_rotatable_bonds>  (378) 
1

>  <r_i_docking_score>  (378) 
-4.0285

>  <r_i_glide_ligand_efficiency>  (378) 
-0.236971

>  <r_i_glide_ligand_efficiency_sa>  (378) 
-0.609318

>  <r_i_glide_ligand_efficiency_ln>  (378) 
-1.05095

>  <r_i_glide_gscore>  (378) 
-4.0285

>  <r_i_glide_lipo>  (378) 
-0.387201

>  <r_i_glide_hbond>  (378) 
0

>  <r_i_glide_metal>  (378) 
-0

>  <r_i_glide_rewards>  (378) 
-1.93414

>  <r_i_glide_evdw>  (378) 
-25.7693

>  <r_i_glide_ecoul>  (378) 
-3.66932

>  <r_i_glide_erotb>  (378) 
0.327188

>  <r_i_glide_esite>  (378) 
-0.195483

>  <r_i_glide_emodel>  (378) 
-36.5844

>  <r_i_glide_energy>  (378) 
-29.4386

>  <r_i_glide_einternal>  (378) 
0.958358

>  <r_i_glide_intrahb_reward>  (378) 
-0

>  <i_i_glide_confnum>  (378) 
6

>  <i_i_glide_posenum>  (378) 
26

>  <r_i_glide_eff_state_penalty>  (378) 
0

>  <ligand_id>  (378) 
97

>  <original_smiles>  (378) 
c1cnn(-c2cn3nnnc3c3cnnn23)n1

>  <smiles>  (378) 
[H]c1nn(-c2c([H])n3nnnc3c3c([H])nnn23)nc1[H]

$$$$
97:0:1
     RDKit          3D

 21 24  0  0  1  0  0  0  0  0999 V2000
    3.3575   -2.4712   -4.2080 C   0  0  0  0  0  0  0  0  0  0  0  0
    3.3775   -1.0544   -4.2778 C   0  0  0  0  0  0  0  0  0  0  0  0
    3.8443   -0.5706   -3.1587 N   0  0  0  0  0  0  0  0  0  0  0  0
    4.0911   -1.6985   -2.4530 N   0  0  0  0  0  0  0  0  0  0  0  0
    4.5561   -1.6527   -1.1350 C   0  0  0  0  0  0  0  0  0  0  0  0
    3.7815   -1.0487   -0.0921 C   0  0  0  0  0  0  0  0  0  0  0  0
    4.3886   -1.0770    1.1646 N   0  0  0  0  0  0  0  0  0  0  0  0
    3.8237   -0.5587    2.2719 N   0  0  0  0  0  0  0  0  0  0  0  0
    4.7030   -0.8276    3.2201 N   0  0  0  0  0  0  0  0  0  0  0  0
    5.8169   -1.5496    2.7755 N   0  0  0  0  0  0  0  0  0  0  0  0
    5.5244   -1.5897    1.5366 C   0  0  0  0  0  0  0  0  0  0  0  0
    6.2744   -2.1613    0.4869 C   0  0  0  0  0  0  0  0  0  0  0  0
    7.5238   -2.7769    0.4938 C   0  0  0  0  0  0  0  0  0  0  0  0
    7.7089   -3.1154   -0.8540 N   0  0  0  0  0  0  0  0  0  0  0  0
    6.6606   -2.7686   -1.5773 N   0  0  0  0  0  0  0  0  0  0  0  0
    5.7758   -2.1627   -0.7249 N   0  0  0  0  0  0  0  0  0  0  0  0
    3.8439   -2.8758   -3.0685 N   0  0  0  0  0  0  0  0  0  0  0  0
    3.0012   -3.1931   -4.9230 H   0  0  0  0  0  0  0  0  0  0  0  0
    3.0523   -0.3909   -5.0656 H   0  0  0  0  0  0  0  0  0  0  0  0
    2.7978   -0.6131   -0.2053 H   0  0  0  0  0  0  0  0  0  0  0  0
    8.2349   -2.9809    1.2757 H   0  0  0  0  0  0  0  0  0  0  0  0
  1 17  2  0
  1  2  1  0
  1 18  1  0
  2  3  2  0
  2 19  1  0
  3  4  1  0
  4  5  1  0
  4 17  1  0
  5 16  1  0
  5  6  2  0
  6  7  1  0
  6 20  1  0
  7 11  1  0
  7  8  1  0
  8  9  2  0
  9 10  1  0
 10 11  2  0
 11 12  1  0
 12 16  1  0
 12 13  2  0
 13 14  1  0
 13 21  1  0
 14 15  2  0
 15 16  1  0
M  END
>  <i_m_ct_stereo_status>  (379) 
1

>  <s_m_source_file>  (379) 
/var/tmp/pbs.5076255.sched01/tmpg0s73j8k/135j_ekwz2c.sdf

>  <i_m_source_file_index>  (379) 
20

>  <i_lp_mmshare_version>  (379) 
48012

>  <i_f3d_flags>  (379) 
0

>  <s_epik_input>  (379) 
bjFbY0hdW2NIXW5uMS1jKFtjSF0yKW4obm5bY0hdMyljM2MobjI0KW5ubjQ=

>  <s_epik_cmdline>  (379) 
J2VwaWtfcHl0aG9uJywgJy1waHQnLCAnMi4wJywgJy1waCcsICc3LjAnLCAnLXRuJywgJzgnLCAnLW1hJywgJzIwMCcsICctaW1hZScsICc8aW5maWxlLm1hZT4nLCAnLW9tYWUnLCAnPG91dGZpbGUubWFlPic=

>  <r_lp_tautomer_probability>  (379) 
1

>  <r_epik_Ionization_Penalty>  (379) 
1.43802e-11

>  <r_epik_Ionization_Penalty_Charging>  (379) 
0

>  <r_epik_Ionization_Penalty_Neutral>  (379) 
1.43802e-11

>  <r_epik_State_Penalty>  (379) 
-0

>  <r_epik_Charging_Adjusted_Penalty>  (379) 
0

>  <i_epik_Tot_Q>  (379) 
0

>  <i_epik_Tot_abs_Q>  (379) 
0

>  <s_lp_Force_Field>  (379) 
OPLS3e

>  <r_lp_Energy>  (379) 
21.5611

>  <b_lp_Chiralities_Consistent>  (379) 
1

>  <s_lp_Variant>  (379) 
97:0-1

>  <s_i_glide_gridfile>  (379) 
pfpi4k_grid

>  <i_i_glide_lignum>  (379) 
20

>  <i_i_glide_rotatable_bonds>  (379) 
1

>  <r_i_docking_score>  (379) 
-3.47029

>  <r_i_glide_ligand_efficiency>  (379) 
-0.204135

>  <r_i_glide_ligand_efficiency_sa>  (379) 
-0.524888

>  <r_i_glide_ligand_efficiency_ln>  (379) 
-0.905322

>  <r_i_glide_gscore>  (379) 
-3.47029

>  <r_i_glide_lipo>  (379) 
-0.295101

>  <r_i_glide_hbond>  (379) 
0

>  <r_i_glide_metal>  (379) 
-0

>  <r_i_glide_rewards>  (379) 
-2.06964

>  <r_i_glide_evdw>  (379) 
-25.3458

>  <r_i_glide_ecoul>  (379) 
-0.369063

>  <r_i_glide_erotb>  (379) 
0.327188

>  <r_i_glide_esite>  (379) 
-0.110089

>  <r_i_glide_emodel>  (379) 
-31.1963

>  <r_i_glide_energy>  (379) 
-25.7148

>  <r_i_glide_einternal>  (379) 
2.0061

>  <r_i_glide_intrahb_reward>  (379) 
-0

>  <i_i_glide_confnum>  (379) 
3

>  <i_i_glide_posenum>  (379) 
32

>  <r_i_glide_eff_state_penalty>  (379) 
0

>  <ligand_id>  (379) 
97

>  <original_smiles>  (379) 
c1cnn(-c2cn3nnnc3c3cnnn23)n1

>  <smiles>  (379) 
[H]c1nn(-c2c([H])n3nnnc3c3c([H])nnn23)nc1[H]

$$$$
97:0:2
     RDKit          3D

 21 24  0  0  1  0  0  0  0  0999 V2000
    3.6277   -1.2540   -3.7479 C   0  0  0  0  0  0  0  0  0  0  0  0
    2.9913   -2.5201   -3.7255 C   0  0  0  0  0  0  0  0  0  0  0  0
    3.1025   -3.0511   -2.5349 N   0  0  0  0  0  0  0  0  0  0  0  0
    3.7845   -2.0939   -1.8526 N   0  0  0  0  0  0  0  0  0  0  0  0
    4.1020   -2.2168   -0.4791 C   0  0  0  0  0  0  0  0  0  0  0  0
    4.0129   -1.0794    0.4009 C   0  0  0  0  0  0  0  0  0  0  0  0
    4.3652   -1.3290    1.7309 N   0  0  0  0  0  0  0  0  0  0  0  0
    4.3515   -0.4124    2.7239 N   0  0  0  0  0  0  0  0  0  0  0  0
    4.7452   -1.1033    3.7964 N   0  0  0  0  0  0  0  0  0  0  0  0
    5.0216   -2.4608    3.5422 N   0  0  0  0  0  0  0  0  0  0  0  0
    4.7631   -2.4354    2.2864 C   0  0  0  0  0  0  0  0  0  0  0  0
    4.8623   -3.5263    1.4109 C   0  0  0  0  0  0  0  0  0  0  0  0
    5.2906   -4.8152    1.7235 C   0  0  0  0  0  0  0  0  0  0  0  0
    5.1974   -5.4483    0.4662 N   0  0  0  0  0  0  0  0  0  0  0  0
    4.7606   -4.5988   -0.4717 N   0  0  0  0  0  0  0  0  0  0  0  0
    4.5512   -3.3892    0.1459 N   0  0  0  0  0  0  0  0  0  0  0  0
    4.1458   -0.9942   -2.5738 N   0  0  0  0  0  0  0  0  0  0  0  0
    3.7248   -0.5329   -4.5424 H   0  0  0  0  0  0  0  0  0  0  0  0
    2.4603   -3.0485   -4.5042 H   0  0  0  0  0  0  0  0  0  0  0  0
    3.6914   -0.0866    0.1019 H   0  0  0  0  0  0  0  0  0  0  0  0
    5.6097   -5.2324    2.6701 H   0  0  0  0  0  0  0  0  0  0  0  0
  1 17  2  0
  1  2  1  0
  1 18  1  0
  2  3  2  0
  2 19  1  0
  3  4  1  0
  4  5  1  0
  4 17  1  0
  5 16  1  0
  5  6  2  0
  6  7  1  0
  6 20  1  0
  7 11  1  0
  7  8  1  0
  8  9  2  0
  9 10  1  0
 10 11  2  0
 11 12  1  0
 12 16  1  0
 12 13  2  0
 13 14  1  0
 13 21  1  0
 14 15  2  0
 15 16  1  0
M  END
>  <i_m_ct_stereo_status>  (380) 
1

>  <s_m_source_file>  (380) 
/var/tmp/pbs.5076255.sched01/tmpg0s73j8k/135j_ekwz2c.sdf

>  <i_m_source_file_index>  (380) 
20

>  <i_lp_mmshare_version>  (380) 
48012

>  <i_f3d_flags>  (380) 
0

>  <s_epik_input>  (380) 
bjFbY0hdW2NIXW5uMS1jKFtjSF0yKW4obm5bY0hdMyljM2MobjI0KW5ubjQ=

>  <s_epik_cmdline>  (380) 
J2VwaWtfcHl0aG9uJywgJy1waHQnLCAnMi4wJywgJy1waCcsICc3LjAnLCAnLXRuJywgJzgnLCAnLW1hJywgJzIwMCcsICctaW1hZScsICc8aW5maWxlLm1hZT4nLCAnLW9tYWUnLCAnPG91dGZpbGUubWFlPic=

>  <r_lp_tautomer_probability>  (380) 
1

>  <r_epik_Ionization_Penalty>  (380) 
1.43802e-11

>  <r_epik_Ionization_Penalty_Charging>  (380) 
0

>  <r_epik_Ionization_Penalty_Neutral>  (380) 
1.43802e-11

>  <r_epik_State_Penalty>  (380) 
-0

>  <r_epik_Charging_Adjusted_Penalty>  (380) 
0

>  <i_epik_Tot_Q>  (380) 
0

>  <i_epik_Tot_abs_Q>  (380) 
0

>  <s_lp_Force_Field>  (380) 
OPLS3e

>  <r_lp_Energy>  (380) 
21.5611

>  <b_lp_Chiralities_Consistent>  (380) 
1

>  <s_lp_Variant>  (380) 
97:0-1

>  <s_i_glide_gridfile>  (380) 
pfpi4k_grid

>  <i_i_glide_lignum>  (380) 
20

>  <i_i_glide_rotatable_bonds>  (380) 
1

>  <r_i_docking_score>  (380) 
-3.40367

>  <r_i_glide_ligand_efficiency>  (380) 
-0.200216

>  <r_i_glide_ligand_efficiency_sa>  (380) 
-0.514811

>  <r_i_glide_ligand_efficiency_ln>  (380) 
-0.887941

>  <r_i_glide_gscore>  (380) 
-3.40367

>  <r_i_glide_lipo>  (380) 
-0.460779

>  <r_i_glide_hbond>  (380) 
0

>  <r_i_glide_metal>  (380) 
-0

>  <r_i_glide_rewards>  (380) 
-1.97298

>  <r_i_glide_evdw>  (380) 
-24.6095

>  <r_i_glide_ecoul>  (380) 
-0.000765922

>  <r_i_glide_erotb>  (380) 
0.327188

>  <r_i_glide_esite>  (380) 
-0.0665047

>  <r_i_glide_emodel>  (380) 
-30.727

>  <r_i_glide_energy>  (380) 
-24.6102

>  <r_i_glide_einternal>  (380) 
0.663575

>  <r_i_glide_intrahb_reward>  (380) 
-0

>  <i_i_glide_confnum>  (380) 
1

>  <i_i_glide_posenum>  (380) 
40

>  <r_i_glide_eff_state_penalty>  (380) 
0

>  <ligand_id>  (380) 
97

>  <original_smiles>  (380) 
c1cnn(-c2cn3nnnc3c3cnnn23)n1

>  <smiles>  (380) 
[H]c1nn(-c2c([H])n3nnnc3c3c([H])nnn23)nc1[H]

$$$$
98:0:0
     RDKit          3D

 78 82  0  0  1  0  0  0  0  0999 V2000
    4.4768   -0.8730   -2.4264 C   0  0  0  0  0  0  0  0  0  0  0  0
    4.3292   -2.2643   -3.0648 C   0  0  0  0  0  0  0  0  0  0  0  0
    5.3524   -3.2939   -2.5569 C   0  0  0  0  0  0  0  0  0  0  0  0
    5.4052   -3.4874   -1.0203 C   0  0  0  0  0  0  0  0  0  0  0  0
    4.0758   -3.8988   -0.3271 C   0  0  2  0  0  0  0  0  0  0  0  0
    3.0908   -2.7247   -0.1730 C   0  0  0  0  0  0  0  0  0  0  0  0
    4.3513   -4.5812    1.0652 C   0  0  2  0  0  0  0  0  0  0  0  0
    5.2200   -5.8684    0.9844 C   0  0  0  0  0  0  0  0  0  0  0  0
    4.8021   -6.7853    2.1532 C   0  0  0  0  0  0  0  0  0  0  0  0
    3.8482   -5.9055    2.9664 C   0  0  2  0  0  0  0  0  0  0  0  0
    3.0056   -6.4826    4.1471 C   0  0  2  0  0  0  0  0  0  0  0  0
    2.7020   -7.9964    4.1614 C   0  0  2  0  0  0  0  0  0  0  0  0
    1.7428   -8.5172    3.0624 C   0  0  0  0  0  0  0  0  0  0  0  0
    1.5439  -10.0422    3.1217 C   0  0  1  0  0  0  0  0  0  0  0  0
    2.7974  -10.8216    2.6919 C   0  0  0  0  0  0  0  0  0  0  0  0
    1.0372  -10.4473    4.5172 C   0  0  0  0  0  0  0  0  0  0  0  0
    1.9563   -9.9301    5.6359 C   0  0  0  0  0  0  0  0  0  0  0  0
    2.2000   -8.3973    5.5732 C   0  0  2  0  0  0  0  0  0  0  0  0
    0.9891   -7.5437    6.0793 C   0  0  1  0  0  0  0  0  0  0  0  0
    0.8588   -7.6638    7.6172 C   0  0  0  0  0  0  0  0  0  0  0  0
    1.7547   -6.5681    8.2140 C   0  0  0  0  0  0  0  0  0  0  0  0
    1.8838   -5.5594    7.0882 C   0  0  0  0  0  0  0  0  0  0  0  0
    2.5179   -4.4961    7.2014 O   0  0  0  0  0  0  0  0  0  0  0  0
    1.1090   -5.9976    5.8405 C   0  0  2  0  0  0  0  0  0  0  0  0
   -0.3003   -5.3582    5.9395 C   0  0  0  0  0  0  0  0  0  0  0  0
    1.7443   -5.6353    4.4484 C   0  0  1  0  0  0  0  0  0  0  0  0
    2.0742   -4.1350    4.1924 C   0  0  0  0  0  0  0  0  0  0  0  0
    2.4535   -3.8285    2.7213 C   0  0  0  0  0  0  0  0  0  0  0  0
    3.1324   -4.9986    1.9414 C   0  0  1  0  0  0  0  0  0  0  0  0
    2.0966   -5.7641    1.0659 C   0  0  0  0  0  0  0  0  0  0  0  0
    3.6652   -0.2101   -2.7333 H   0  0  0  0  0  0  0  0  0  0  0  0
    5.4153   -0.3969   -2.7265 H   0  0  0  0  0  0  0  0  0  0  0  0
    4.4624   -0.9193   -1.3346 H   0  0  0  0  0  0  0  0  0  0  0  0
    3.3381   -2.6522   -2.8738 H   0  0  0  0  0  0  0  0  0  0  0  0
    4.4431   -2.1648   -4.1432 H   0  0  0  0  0  0  0  0  0  0  0  0
    5.1672   -4.2599   -3.0301 H   0  0  0  0  0  0  0  0  0  0  0  0
    6.3503   -3.0017   -2.9079 H   0  0  0  0  0  0  0  0  0  0  0  0
    6.1649   -4.2407   -0.8559 H   0  0  0  0  0  0  0  0  0  0  0  0
    5.8139   -2.6001   -0.5358 H   0  0  0  0  0  0  0  0  0  0  0  0
    3.6076   -4.6418   -0.9629 H   0  0  0  0  0  0  0  0  0  0  0  0
    3.4816   -1.9891    0.5325 H   0  0  0  0  0  0  0  0  0  0  0  0
    2.1598   -3.0414    0.2857 H   0  0  0  0  0  0  0  0  0  0  0  0
    2.8207   -2.2721   -1.0978 H   0  0  0  0  0  0  0  0  0  0  0  0
    4.9287   -3.8715    1.6463 H   0  0  0  0  0  0  0  0  0  0  0  0
    5.0666   -6.3990    0.0413 H   0  0  0  0  0  0  0  0  0  0  0  0
    6.2834   -5.6283    1.0528 H   0  0  0  0  0  0  0  0  0  0  0  0
    4.2922   -7.6700    1.7683 H   0  0  0  0  0  0  0  0  0  0  0  0
    5.6512   -7.1190    2.7540 H   0  0  0  0  0  0  0  0  0  0  0  0
    4.5243   -5.2155    3.4820 H   0  0  0  0  0  0  0  0  0  0  0  0
    3.6764   -6.3451    4.9979 H   0  0  0  0  0  0  0  0  0  0  0  0
    3.6593   -8.4981    4.0201 H   0  0  0  0  0  0  0  0  0  0  0  0
    0.7678   -8.0421    3.1659 H   0  0  0  0  0  0  0  0  0  0  0  0
    2.1126   -8.2615    2.0755 H   0  0  0  0  0  0  0  0  0  0  0  0
    0.7605  -10.2926    2.4047 H   0  0  0  0  0  0  0  0  0  0  0  0
    3.6410  -10.6673    3.3629 H   0  0  0  0  0  0  0  0  0  0  0  0
    3.1084  -10.5027    1.6952 H   0  0  0  0  0  0  0  0  0  0  0  0
    2.5961  -11.8924    2.6495 H   0  0  0  0  0  0  0  0  0  0  0  0
    0.0272  -10.0608    4.6656 H   0  0  0  0  0  0  0  0  0  0  0  0
    0.9552  -11.5316    4.5811 H   0  0  0  0  0  0  0  0  0  0  0  0
    1.5513  -10.2355    6.5979 H   0  0  0  0  0  0  0  0  0  0  0  0
    2.9182  -10.4359    5.5602 H   0  0  0  0  0  0  0  0  0  0  0  0
    3.0254   -8.1962    6.2590 H   0  0  0  0  0  0  0  0  0  0  0  0
    0.0854   -7.9127    5.5986 H   0  0  0  0  0  0  0  0  0  0  0  0
   -0.1752   -7.4864    7.9178 H   0  0  0  0  0  0  0  0  0  0  0  0
    1.1334   -8.6435    8.0026 H   0  0  0  0  0  0  0  0  0  0  0  0
    1.3149   -6.1088    9.0977 H   0  0  0  0  0  0  0  0  0  0  0  0
    2.7431   -6.9490    8.4785 H   0  0  0  0  0  0  0  0  0  0  0  0
   -0.9817   -5.7903    5.2089 H   0  0  0  0  0  0  0  0  0  0  0  0
   -0.2839   -4.2803    5.7754 H   0  0  0  0  0  0  0  0  0  0  0  0
   -0.7562   -5.4951    6.9206 H   0  0  0  0  0  0  0  0  0  0  0  0
    0.9738   -5.8958    3.7266 H   0  0  0  0  0  0  0  0  0  0  0  0
    1.2428   -3.4872    4.4669 H   0  0  0  0  0  0  0  0  0  0  0  0
    2.9168   -3.8347    4.8181 H   0  0  0  0  0  0  0  0  0  0  0  0
    1.5386   -3.5356    2.2175 H   0  0  0  0  0  0  0  0  0  0  0  0
    3.0941   -2.9449    2.7102 H   0  0  0  0  0  0  0  0  0  0  0  0
    1.2618   -6.1624    1.6372 H   0  0  0  0  0  0  0  0  0  0  0  0
    2.5536   -6.5905    0.5281 H   0  0  0  0  0  0  0  0  0  0  0  0
    1.6598   -5.1355    0.2992 H   0  0  0  0  0  0  0  0  0  0  0  0
  1  2  1  0
  1 31  1  0
  1 32  1  0
  1 33  1  0
  2  3  1  0
  2 34  1  0
  2 35  1  0
  3  4  1  0
  3 36  1  0
  3 37  1  0
  4  5  1  0
  4 38  1  0
  4 39  1  0
  5  6  1  0
  5  7  1  0
  5 40  1  6
  6 41  1  0
  6 42  1  0
  6 43  1  0
  7 29  1  0
  7  8  1  0
  7 44  1  1
  8  9  1  0
  8 45  1  0
  8 46  1  0
  9 10  1  0
  9 47  1  0
  9 48  1  0
 10 29  1  0
 10 11  1  0
 10 49  1  1
 11 26  1  0
 11 12  1  0
 11 50  1  1
 12 18  1  0
 12 13  1  0
 12 51  1  6
 13 14  1  0
 13 52  1  0
 13 53  1  0
 14 15  1  0
 14 16  1  0
 14 54  1  6
 15 55  1  0
 15 56  1  0
 15 57  1  0
 16 17  1  0
 16 58  1  0
 16 59  1  0
 17 18  1  0
 17 60  1  0
 17 61  1  0
 18 19  1  0
 18 62  1  1
 19 24  1  0
 19 20  1  0
 19 63  1  6
 20 21  1  0
 20 64  1  0
 20 65  1  0
 21 22  1  0
 21 66  1  0
 21 67  1  0
 22 23  2  0
 22 24  1  0
 24 25  1  1
 24 26  1  0
 25 68  1  0
 25 69  1  0
 25 70  1  0
 26 27  1  0
 26 71  1  6
 27 28  1  0
 27 72  1  0
 27 73  1  0
 28 29  1  0
 28 74  1  0
 28 75  1  0
 29 30  1  6
 30 76  1  0
 30 77  1  0
 30 78  1  0
M  END
>  <i_m_ct_stereo_status>  (381) 
1

>  <s_m_source_file>  (381) 
/var/tmp/pbs.5076255.sched01/tmpg0s73j8k/135j_ekwz2c.sdf

>  <i_m_source_file_index>  (381) 
21

>  <i_lp_mmshare_version>  (381) 
48012

>  <i_f3d_flags>  (381) 
0

>  <s_epik_input>  (381) 
W0NIM11bQ0gyXVtDSDJdW0NIMl1bQ0BIXShbQ0gzXSlbQ0BIXShbQ0gyXVtDSDJdMSlbQ0BdKFtDSDNdKShbQ0gyXVtDSDJdW0NAQEhdMjMpW0NASF0xW0NAQEhdMltDQEhdKFtDSDJdW0NAQEhdKFtDSDNdKVtDSDJdW0NIMl00KVtDQEhdNFtDQEhdKFtDQF0zNVtDSDNdKVtDSDJdW0NIMl1DNT1P

>  <s_epik_cmdline>  (381) 
J2VwaWtfcHl0aG9uJywgJy1waHQnLCAnMi4wJywgJy1waCcsICc3LjAnLCAnLXRuJywgJzgnLCAnLW1hJywgJzIwMCcsICctaW1hZScsICc8aW5maWxlLm1hZT4nLCAnLW9tYWUnLCAnPG91dGZpbGUubWFlPic=

>  <r_lp_tautomer_probability>  (381) 
1

>  <r_epik_Ionization_Penalty>  (381) 
1.86813e-14

>  <r_epik_Ionization_Penalty_Charging>  (381) 
0

>  <r_epik_Ionization_Penalty_Neutral>  (381) 
1.86813e-14

>  <r_epik_State_Penalty>  (381) 
-0

>  <r_epik_Charging_Adjusted_Penalty>  (381) 
0

>  <i_epik_Tot_Q>  (381) 
0

>  <i_epik_Tot_abs_Q>  (381) 
0

>  <s_lp_Force_Field>  (381) 
OPLS3e

>  <r_lp_Energy>  (381) 
59.9146

>  <b_lp_Chiralities_Consistent>  (381) 
1

>  <s_lp_Variant>  (381) 
98:0-1

>  <s_i_glide_gridfile>  (381) 
pfpi4k_grid

>  <i_i_glide_lignum>  (381) 
21

>  <i_i_glide_rotatable_bonds>  (381) 
4

>  <r_i_docking_score>  (381) 
-2.09802

>  <r_i_glide_ligand_efficiency>  (381) 
-0.069934

>  <r_i_glide_ligand_efficiency_sa>  (381) 
-0.217301

>  <r_i_glide_ligand_efficiency_ln>  (381) 
-0.476693

>  <r_i_glide_gscore>  (381) 
-2.09802

>  <r_i_glide_lipo>  (381) 
-0.657993

>  <r_i_glide_hbond>  (381) 
0

>  <r_i_glide_metal>  (381) 
-0

>  <r_i_glide_rewards>  (381) 
-0.59529

>  <r_i_glide_evdw>  (381) 
-22.769

>  <r_i_glide_ecoul>  (381) 
-0.357781

>  <r_i_glide_erotb>  (381) 
0.347382

>  <r_i_glide_esite>  (381) 
0

>  <r_i_glide_emodel>  (381) 
-23.8935

>  <r_i_glide_energy>  (381) 
-23.1268

>  <r_i_glide_einternal>  (381) 
2.43937

>  <r_i_glide_intrahb_reward>  (381) 
-0

>  <i_i_glide_confnum>  (381) 
3

>  <i_i_glide_posenum>  (381) 
26

>  <r_i_glide_eff_state_penalty>  (381) 
0

>  <ligand_id>  (381) 
98

>  <original_smiles>  (381) 
CCCCC(C)C1CCC2C3C4CC(C)CCC4C4CCC(=O)C4(C)C3CCC12C

>  <smiles>  (381) 
[H]C([H])([H])C([H])([H])C([H])([H])C([H])([H])C([H])(C([H])([H])[H])C1([H])C([H])([H])C([H])([H])C2([H])C3([H])C4([H])C([H])([H])C([H])(C([H])([H])[H])C([H])([H])C([H])([H])C4([H])C4([H])C([H])([H])C([H])([H])C(=O)C4(C([H])([H])[H])C3([H])C([H])([H])C([H])([H])C12C([H])([H])[H]

$$$$
98:0:1
     RDKit          3D

 78 82  0  0  1  0  0  0  0  0999 V2000
    3.9524   -1.4228   -3.8498 C   0  0  0  0  0  0  0  0  0  0  0  0
    4.4335   -2.1501   -2.5991 C   0  0  0  0  0  0  0  0  0  0  0  0
    3.5371   -1.8636   -1.3942 C   0  0  0  0  0  0  0  0  0  0  0  0
    4.1029   -2.5274   -0.1393 C   0  0  0  0  0  0  0  0  0  0  0  0
    3.4115   -2.1966    1.2079 C   0  0  2  0  0  0  0  0  0  0  0  0
    3.7093   -0.7314    1.5944 C   0  0  0  0  0  0  0  0  0  0  0  0
    3.7880   -3.1754    2.3807 C   0  0  2  0  0  0  0  0  0  0  0  0
    5.2766   -3.6241    2.4426 C   0  0  0  0  0  0  0  0  0  0  0  0
    5.3048   -5.0137    3.0917 C   0  0  0  0  0  0  0  0  0  0  0  0
    3.8839   -5.2060    3.6057 C   0  0  2  0  0  0  0  0  0  0  0  0
    3.4153   -6.5873    4.1567 C   0  0  2  0  0  0  0  0  0  0  0  0
    4.1386   -7.8665    3.6850 C   0  0  2  0  0  0  0  0  0  0  0  0
    3.9336   -8.2639    2.2028 C   0  0  0  0  0  0  0  0  0  0  0  0
    4.7348   -9.5126    1.8061 C   0  0  1  0  0  0  0  0  0  0  0  0
    6.2495   -9.2547    1.7260 C   0  0  0  0  0  0  0  0  0  0  0  0
    4.3734  -10.6794    2.7397 C   0  0  0  0  0  0  0  0  0  0  0  0
    4.5396  -10.3095    4.2247 C   0  0  0  0  0  0  0  0  0  0  0  0
    3.7581   -9.0339    4.6300 C   0  0  2  0  0  0  0  0  0  0  0  0
    2.2170   -9.2431    4.7893 C   0  0  1  0  0  0  0  0  0  0  0  0
    1.9366  -10.0717    6.0650 C   0  0  0  0  0  0  0  0  0  0  0  0
    1.8168   -9.0709    7.2128 C   0  0  0  0  0  0  0  0  0  0  0  0
    1.4749   -7.7491    6.5272 C   0  0  0  0  0  0  0  0  0  0  0  0
    1.2404   -6.7275    7.1180 O   0  0  0  0  0  0  0  0  0  0  0  0
    1.3725   -7.9445    4.9921 C   0  0  2  0  0  0  0  0  0  0  0  0
   -0.1158   -8.2480    4.6700 C   0  0  0  0  0  0  0  0  0  0  0  0
    1.8710   -6.7434    4.1204 C   0  0  1  0  0  0  0  0  0  0  0  0
    1.2248   -5.3486    4.3764 C   0  0  0  0  0  0  0  0  0  0  0  0
    1.5766   -4.2801    3.3006 C   0  0  0  0  0  0  0  0  0  0  0  0
    2.9576   -4.4787    2.6126 C   0  0  1  0  0  0  0  0  0  0  0  0
    2.7682   -5.2288    1.2714 C   0  0  0  0  0  0  0  0  0  0  0  0
    4.6118   -1.6127   -4.6975 H   0  0  0  0  0  0  0  0  0  0  0  0
    3.9300   -0.3466   -3.6819 H   0  0  0  0  0  0  0  0  0  0  0  0
    2.9465   -1.7420   -4.1187 H   0  0  0  0  0  0  0  0  0  0  0  0
    4.4792   -3.2227   -2.7827 H   0  0  0  0  0  0  0  0  0  0  0  0
    5.4525   -1.8389   -2.3784 H   0  0  0  0  0  0  0  0  0  0  0  0
    3.4502   -0.7866   -1.2703 H   0  0  0  0  0  0  0  0  0  0  0  0
    2.5362   -2.2405   -1.5827 H   0  0  0  0  0  0  0  0  0  0  0  0
    4.0880   -3.5939   -0.3435 H   0  0  0  0  0  0  0  0  0  0  0  0
    5.1502   -2.2529   -0.0680 H   0  0  0  0  0  0  0  0  0  0  0  0
    2.3330   -2.2515    1.0777 H   0  0  0  0  0  0  0  0  0  0  0  0
    4.7659   -0.5790    1.8118 H   0  0  0  0  0  0  0  0  0  0  0  0
    3.1437   -0.4121    2.4697 H   0  0  0  0  0  0  0  0  0  0  0  0
    3.4471   -0.0338    0.8010 H   0  0  0  0  0  0  0  0  0  0  0  0
    3.6261   -2.5994    3.2963 H   0  0  0  0  0  0  0  0  0  0  0  0
    5.7461   -3.7313    1.4645 H   0  0  0  0  0  0  0  0  0  0  0  0
    5.8628   -2.8960    3.0026 H   0  0  0  0  0  0  0  0  0  0  0  0
    5.5415   -5.7537    2.3264 H   0  0  0  0  0  0  0  0  0  0  0  0
    6.0586   -5.1081    3.8801 H   0  0  0  0  0  0  0  0  0  0  0  0
    3.8602   -4.5751    4.4990 H   0  0  0  0  0  0  0  0  0  0  0  0
    3.6810   -6.5172    5.2102 H   0  0  0  0  0  0  0  0  0  0  0  0
    5.2024   -7.6791    3.8225 H   0  0  0  0  0  0  0  0  0  0  0  0
    2.8849   -8.4663    2.0068 H   0  0  0  0  0  0  0  0  0  0  0  0
    4.2282   -7.4564    1.5341 H   0  0  0  0  0  0  0  0  0  0  0  0
    4.4252   -9.7999    0.7994 H   0  0  0  0  0  0  0  0  0  0  0  0
    6.6820   -8.9997    2.6925 H   0  0  0  0  0  0  0  0  0  0  0  0
    6.4712   -8.4326    1.0426 H   0  0  0  0  0  0  0  0  0  0  0  0
    6.7745  -10.1369    1.3556 H   0  0  0  0  0  0  0  0  0  0  0  0
    3.3450  -10.9809    2.5492 H   0  0  0  0  0  0  0  0  0  0  0  0
    4.9865  -11.5490    2.4943 H   0  0  0  0  0  0  0  0  0  0  0  0
    4.2541  -11.1680    4.8322 H   0  0  0  0  0  0  0  0  0  0  0  0
    5.6013  -10.1584    4.4267 H   0  0  0  0  0  0  0  0  0  0  0  0
    4.1408   -8.7588    5.6166 H   0  0  0  0  0  0  0  0  0  0  0  0
    1.8583   -9.7859    3.9090 H   0  0  0  0  0  0  0  0  0  0  0  0
    0.9958  -10.6128    5.9591 H   0  0  0  0  0  0  0  0  0  0  0  0
    2.6906  -10.8331    6.2830 H   0  0  0  0  0  0  0  0  0  0  0  0
    1.0381   -9.3579    7.9301 H   0  0  0  0  0  0  0  0  0  0  0  0
    2.7566   -8.9574    7.7575 H   0  0  0  0  0  0  0  0  0  0  0  0
   -0.2298   -8.5915    3.6396 H   0  0  0  0  0  0  0  0  0  0  0  0
   -0.7487   -7.3786    4.8001 H   0  0  0  0  0  0  0  0  0  0  0  0
   -0.5321   -9.0240    5.3106 H   0  0  0  0  0  0  0  0  0  0  0  0
    1.5747   -7.0261    3.1195 H   0  0  0  0  0  0  0  0  0  0  0  0
    0.1358   -5.4193    4.4427 H   0  0  0  0  0  0  0  0  0  0  0  0
    1.5531   -4.9772    5.3393 H   0  0  0  0  0  0  0  0  0  0  0  0
    0.8144   -4.3066    2.5383 H   0  0  0  0  0  0  0  0  0  0  0  0
    1.4999   -3.2822    3.7535 H   0  0  0  0  0  0  0  0  0  0  0  0
    2.2416   -6.1727    1.3610 H   0  0  0  0  0  0  0  0  0  0  0  0
    3.7234   -5.4400    0.7984 H   0  0  0  0  0  0  0  0  0  0  0  0
    2.1895   -4.6351    0.5693 H   0  0  0  0  0  0  0  0  0  0  0  0
  1  2  1  0
  1 31  1  0
  1 32  1  0
  1 33  1  0
  2  3  1  0
  2 34  1  0
  2 35  1  0
  3  4  1  0
  3 36  1  0
  3 37  1  0
  4  5  1  0
  4 38  1  0
  4 39  1  0
  5  6  1  0
  5  7  1  0
  5 40  1  6
  6 41  1  0
  6 42  1  0
  6 43  1  0
  7 29  1  0
  7  8  1  0
  7 44  1  1
  8  9  1  0
  8 45  1  0
  8 46  1  0
  9 10  1  0
  9 47  1  0
  9 48  1  0
 10 29  1  0
 10 11  1  0
 10 49  1  1
 11 26  1  0
 11 12  1  0
 11 50  1  1
 12 18  1  0
 12 13  1  0
 12 51  1  6
 13 14  1  0
 13 52  1  0
 13 53  1  0
 14 15  1  0
 14 16  1  0
 14 54  1  6
 15 55  1  0
 15 56  1  0
 15 57  1  0
 16 17  1  0
 16 58  1  0
 16 59  1  0
 17 18  1  0
 17 60  1  0
 17 61  1  0
 18 19  1  0
 18 62  1  1
 19 24  1  0
 19 20  1  0
 19 63  1  6
 20 21  1  0
 20 64  1  0
 20 65  1  0
 21 22  1  0
 21 66  1  0
 21 67  1  0
 22 23  2  0
 22 24  1  0
 24 25  1  1
 24 26  1  0
 25 68  1  0
 25 69  1  0
 25 70  1  0
 26 27  1  0
 26 71  1  6
 27 28  1  0
 27 72  1  0
 27 73  1  0
 28 29  1  0
 28 74  1  0
 28 75  1  0
 29 30  1  6
 30 76  1  0
 30 77  1  0
 30 78  1  0
M  END
>  <i_m_ct_stereo_status>  (382) 
1

>  <s_m_source_file>  (382) 
/var/tmp/pbs.5076255.sched01/tmpg0s73j8k/135j_ekwz2c.sdf

>  <i_m_source_file_index>  (382) 
21

>  <i_lp_mmshare_version>  (382) 
48012

>  <i_f3d_flags>  (382) 
0

>  <s_epik_input>  (382) 
W0NIM11bQ0gyXVtDSDJdW0NIMl1bQ0BIXShbQ0gzXSlbQ0BIXShbQ0gyXVtDSDJdMSlbQ0BdKFtDSDNdKShbQ0gyXVtDSDJdW0NAQEhdMjMpW0NASF0xW0NAQEhdMltDQEhdKFtDSDJdW0NAQEhdKFtDSDNdKVtDSDJdW0NIMl00KVtDQEhdNFtDQEhdKFtDQF0zNVtDSDNdKVtDSDJdW0NIMl1DNT1P

>  <s_epik_cmdline>  (382) 
J2VwaWtfcHl0aG9uJywgJy1waHQnLCAnMi4wJywgJy1waCcsICc3LjAnLCAnLXRuJywgJzgnLCAnLW1hJywgJzIwMCcsICctaW1hZScsICc8aW5maWxlLm1hZT4nLCAnLW9tYWUnLCAnPG91dGZpbGUubWFlPic=

>  <r_lp_tautomer_probability>  (382) 
1

>  <r_epik_Ionization_Penalty>  (382) 
1.86813e-14

>  <r_epik_Ionization_Penalty_Charging>  (382) 
0

>  <r_epik_Ionization_Penalty_Neutral>  (382) 
1.86813e-14

>  <r_epik_State_Penalty>  (382) 
-0

>  <r_epik_Charging_Adjusted_Penalty>  (382) 
0

>  <i_epik_Tot_Q>  (382) 
0

>  <i_epik_Tot_abs_Q>  (382) 
0

>  <s_lp_Force_Field>  (382) 
OPLS3e

>  <r_lp_Energy>  (382) 
59.9146

>  <b_lp_Chiralities_Consistent>  (382) 
1

>  <s_lp_Variant>  (382) 
98:0-1

>  <s_i_glide_gridfile>  (382) 
pfpi4k_grid

>  <i_i_glide_lignum>  (382) 
21

>  <i_i_glide_rotatable_bonds>  (382) 
4

>  <r_i_docking_score>  (382) 
-1.78195

>  <r_i_glide_ligand_efficiency>  (382) 
-0.0593984

>  <r_i_glide_ligand_efficiency_sa>  (382) 
-0.184565

>  <r_i_glide_ligand_efficiency_ln>  (382) 
-0.404879

>  <r_i_glide_gscore>  (382) 
-1.78195

>  <r_i_glide_lipo>  (382) 
-0.307823

>  <r_i_glide_hbond>  (382) 
0

>  <r_i_glide_metal>  (382) 
-0

>  <r_i_glide_rewards>  (382) 
-0.59529

>  <r_i_glide_evdw>  (382) 
-21.3515

>  <r_i_glide_ecoul>  (382) 
-0.985243

>  <r_i_glide_erotb>  (382) 
0.347382

>  <r_i_glide_esite>  (382) 
-0.0108601

>  <r_i_glide_emodel>  (382) 
-22.0559

>  <r_i_glide_energy>  (382) 
-22.3367

>  <r_i_glide_einternal>  (382) 
5.58657

>  <r_i_glide_intrahb_reward>  (382) 
-0

>  <i_i_glide_confnum>  (382) 
4

>  <i_i_glide_posenum>  (382) 
1

>  <r_i_glide_eff_state_penalty>  (382) 
0

>  <ligand_id>  (382) 
98

>  <original_smiles>  (382) 
CCCCC(C)C1CCC2C3C4CC(C)CCC4C4CCC(=O)C4(C)C3CCC12C

>  <smiles>  (382) 
[H]C([H])([H])C([H])([H])C([H])([H])C([H])([H])C([H])(C([H])([H])[H])C1([H])C([H])([H])C([H])([H])C2([H])C3([H])C4([H])C([H])([H])C([H])(C([H])([H])[H])C([H])([H])C([H])([H])C4([H])C4([H])C([H])([H])C([H])([H])C(=O)C4(C([H])([H])[H])C3([H])C([H])([H])C([H])([H])C12C([H])([H])[H]

$$$$
98:0:2
     RDKit          3D

 78 82  0  0  1  0  0  0  0  0999 V2000
    4.5037   -3.4977   -4.0591 C   0  0  0  0  0  0  0  0  0  0  0  0
    5.0362   -3.6466   -2.6403 C   0  0  0  0  0  0  0  0  0  0  0  0
    4.2289   -2.8226   -1.6276 C   0  0  0  0  0  0  0  0  0  0  0  0
    4.6766   -3.1257   -0.1974 C   0  0  0  0  0  0  0  0  0  0  0  0
    3.6893   -2.7194    0.9254 C   0  0  2  0  0  0  0  0  0  0  0  0
    3.8174   -1.2055    1.1790 C   0  0  0  0  0  0  0  0  0  0  0  0
    3.8409   -3.5531    2.2457 C   0  0  2  0  0  0  0  0  0  0  0  0
    5.3040   -3.7851    2.7151 C   0  0  0  0  0  0  0  0  0  0  0  0
    5.3211   -5.1167    3.4802 C   0  0  0  0  0  0  0  0  0  0  0  0
    3.8454   -5.4720    3.6396 C   0  0  2  0  0  0  0  0  0  0  0  0
    3.4065   -6.8643    4.1874 C   0  0  2  0  0  0  0  0  0  0  0  0
    4.3770   -8.0583    4.0497 C   0  0  2  0  0  0  0  0  0  0  0  0
    4.6258   -8.5841    2.6141 C   0  0  0  0  0  0  0  0  0  0  0  0
    5.6459   -9.7325    2.5665 C   0  0  1  0  0  0  0  0  0  0  0  0
    7.0800   -9.2653    2.8727 C   0  0  0  0  0  0  0  0  0  0  0  0
    5.1812  -10.8771    3.4816 C   0  0  0  0  0  0  0  0  0  0  0  0
    4.8979  -10.3883    4.9145 C   0  0  0  0  0  0  0  0  0  0  0  0
    3.8969   -9.2034    4.9757 C   0  0  2  0  0  0  0  0  0  0  0  0
    2.4050   -9.6084    4.7472 C   0  0  1  0  0  0  0  0  0  0  0  0
    1.8852  -10.3770    5.9772 C   0  0  0  0  0  0  0  0  0  0  0  0
    1.3392   -9.3385    6.9547 C   0  0  0  0  0  0  0  0  0  0  0  0
    1.0422   -8.1287    6.0771 C   0  0  0  0  0  0  0  0  0  0  0  0
    0.5499   -7.0998    6.4909 O   0  0  0  0  0  0  0  0  0  0  0  0
    1.3883   -8.4307    4.5988 C   0  0  2  0  0  0  0  0  0  0  0  0
    0.0917   -8.9589    3.9268 C   0  0  0  0  0  0  0  0  0  0  0  0
    1.9588   -7.2340    3.7686 C   0  0  1  0  0  0  0  0  0  0  0  0
    1.1069   -5.9327    3.7056 C   0  0  0  0  0  0  0  0  0  0  0  0
    1.6070   -4.9053    2.6521 C   0  0  0  0  0  0  0  0  0  0  0  0
    3.1368   -4.9468    2.3764 C   0  0  1  0  0  0  0  0  0  0  0  0
    3.4008   -5.8137    1.1189 C   0  0  0  0  0  0  0  0  0  0  0  0
    5.0926   -4.0982   -4.7527 H   0  0  0  0  0  0  0  0  0  0  0  0
    4.5458   -2.4531   -4.3626 H   0  0  0  0  0  0  0  0  0  0  0  0
    3.4682   -3.8333   -4.1279 H   0  0  0  0  0  0  0  0  0  0  0  0
    5.0079   -4.7009   -2.3757 H   0  0  0  0  0  0  0  0  0  0  0  0
    6.0865   -3.3628   -2.6029 H   0  0  0  0  0  0  0  0  0  0  0  0
    4.3184   -1.7571   -1.8398 H   0  0  0  0  0  0  0  0  0  0  0  0
    3.1745   -3.0584   -1.7359 H   0  0  0  0  0  0  0  0  0  0  0  0
    4.8683   -4.1975   -0.1566 H   0  0  0  0  0  0  0  0  0  0  0  0
    5.6458   -2.6657   -0.0351 H   0  0  0  0  0  0  0  0  0  0  0  0
    2.6703   -2.8759    0.5747 H   0  0  0  0  0  0  0  0  0  0  0  0
    4.7847   -0.9521    1.6071 H   0  0  0  0  0  0  0  0  0  0  0  0
    3.0500   -0.8331    1.8555 H   0  0  0  0  0  0  0  0  0  0  0  0
    3.7169   -0.6402    0.2541 H   0  0  0  0  0  0  0  0  0  0  0  0
    3.3775   -2.9414    3.0229 H   0  0  0  0  0  0  0  0  0  0  0  0
    6.0104   -3.8715    1.8911 H   0  0  0  0  0  0  0  0  0  0  0  0
    5.6426   -2.9522    3.3343 H   0  0  0  0  0  0  0  0  0  0  0  0
    5.8433   -5.8629    2.8818 H   0  0  0  0  0  0  0  0  0  0  0  0
    5.8396   -5.0415    4.4390 H   0  0  0  0  0  0  0  0  0  0  0  0
    3.5139   -4.7916    4.4285 H   0  0  0  0  0  0  0  0  0  0  0  0
    3.3678   -6.6891    5.2625 H   0  0  0  0  0  0  0  0  0  0  0  0
    5.3344   -7.7176    4.4413 H   0  0  0  0  0  0  0  0  0  0  0  0
    3.6966   -8.9398    2.1758 H   0  0  0  0  0  0  0  0  0  0  0  0
    4.9936   -7.7892    1.9696 H   0  0  0  0  0  0  0  0  0  0  0  0
    5.6549  -10.1195    1.5460 H   0  0  0  0  0  0  0  0  0  0  0  0
    7.1875   -8.8739    3.8824 H   0  0  0  0  0  0  0  0  0  0  0  0
    7.3910   -8.4791    2.1819 H   0  0  0  0  0  0  0  0  0  0  0  0
    7.7840  -10.0917    2.7809 H   0  0  0  0  0  0  0  0  0  0  0  0
    4.2820  -11.3280    3.0631 H   0  0  0  0  0  0  0  0  0  0  0  0
    5.9327  -11.6686    3.4960 H   0  0  0  0  0  0  0  0  0  0  0  0
    4.5608  -11.2325    5.5149 H   0  0  0  0  0  0  0  0  0  0  0  0
    5.8399  -10.0776    5.3684 H   0  0  0  0  0  0  0  0  0  0  0  0
    3.9628   -8.8166    5.9957 H   0  0  0  0  0  0  0  0  0  0  0  0
    2.3580  -10.2521    3.8642 H   0  0  0  0  0  0  0  0  0  0  0  0
    1.0795  -11.0487    5.6804 H   0  0  0  0  0  0  0  0  0  0  0  0
    2.6367  -11.0062    6.4561 H   0  0  0  0  0  0  0  0  0  0  0  0
    0.4376   -9.6923    7.4656 H   0  0  0  0  0  0  0  0  0  0  0  0
    2.0767   -9.0647    7.7118 H   0  0  0  0  0  0  0  0  0  0  0  0
    0.2992   -9.3851    2.9430 H   0  0  0  0  0  0  0  0  0  0  0  0
   -0.6571   -8.1844    3.7981 H   0  0  0  0  0  0  0  0  0  0  0  0
   -0.3877   -9.7398    4.5130 H   0  0  0  0  0  0  0  0  0  0  0  0
    1.9773   -7.6259    2.7606 H   0  0  0  0  0  0  0  0  0  0  0  0
    0.0592   -6.1582    3.4974 H   0  0  0  0  0  0  0  0  0  0  0  0
    1.1178   -5.4544    4.6782 H   0  0  0  0  0  0  0  0  0  0  0  0
    1.0926   -5.0975    1.7192 H   0  0  0  0  0  0  0  0  0  0  0  0
    1.2926   -3.9023    2.9663 H   0  0  0  0  0  0  0  0  0  0  0  0
    2.9744   -6.8133    1.1670 H   0  0  0  0  0  0  0  0  0  0  0  0
    4.4641   -5.9320    0.9362 H   0  0  0  0  0  0  0  0  0  0  0  0
    2.9681   -5.3658    0.2305 H   0  0  0  0  0  0  0  0  0  0  0  0
  1  2  1  0
  1 31  1  0
  1 32  1  0
  1 33  1  0
  2  3  1  0
  2 34  1  0
  2 35  1  0
  3  4  1  0
  3 36  1  0
  3 37  1  0
  4  5  1  0
  4 38  1  0
  4 39  1  0
  5  6  1  0
  5  7  1  0
  5 40  1  6
  6 41  1  0
  6 42  1  0
  6 43  1  0
  7 29  1  0
  7  8  1  0
  7 44  1  1
  8  9  1  0
  8 45  1  0
  8 46  1  0
  9 10  1  0
  9 47  1  0
  9 48  1  0
 10 29  1  0
 10 11  1  0
 10 49  1  1
 11 26  1  0
 11 12  1  0
 11 50  1  1
 12 18  1  0
 12 13  1  0
 12 51  1  1
 13 14  1  0
 13 52  1  0
 13 53  1  0
 14 15  1  0
 14 16  1  0
 14 54  1  6
 15 55  1  0
 15 56  1  0
 15 57  1  0
 16 17  1  0
 16 58  1  0
 16 59  1  0
 17 18  1  0
 17 60  1  0
 17 61  1  0
 18 19  1  0
 18 62  1  1
 19 24  1  0
 19 20  1  0
 19 63  1  6
 20 21  1  0
 20 64  1  0
 20 65  1  0
 21 22  1  0
 21 66  1  0
 21 67  1  0
 22 23  2  0
 22 24  1  0
 24 25  1  6
 24 26  1  0
 25 68  1  0
 25 69  1  0
 25 70  1  0
 26 27  1  0
 26 71  1  6
 27 28  1  0
 27 72  1  0
 27 73  1  0
 28 29  1  0
 28 74  1  0
 28 75  1  0
 29 30  1  6
 30 76  1  0
 30 77  1  0
 30 78  1  0
M  END
>  <i_m_ct_stereo_status>  (383) 
1

>  <s_m_source_file>  (383) 
/var/tmp/pbs.5076255.sched01/tmpg0s73j8k/135j_ekwz2c.sdf

>  <i_m_source_file_index>  (383) 
21

>  <i_lp_mmshare_version>  (383) 
48012

>  <i_f3d_flags>  (383) 
0

>  <s_epik_input>  (383) 
W0NIM11bQ0gyXVtDSDJdW0NIMl1bQ0BIXShbQ0gzXSlbQ0BIXShbQ0gyXVtDSDJdMSlbQ0BdKFtDSDNdKShbQ0gyXVtDSDJdW0NAQEhdMjMpW0NASF0xW0NAQEhdMltDQEhdKFtDSDJdW0NAQEhdKFtDSDNdKVtDSDJdW0NIMl00KVtDQEhdNFtDQEhdKFtDQF0zNVtDSDNdKVtDSDJdW0NIMl1DNT1P

>  <s_epik_cmdline>  (383) 
J2VwaWtfcHl0aG9uJywgJy1waHQnLCAnMi4wJywgJy1waCcsICc3LjAnLCAnLXRuJywgJzgnLCAnLW1hJywgJzIwMCcsICctaW1hZScsICc8aW5maWxlLm1hZT4nLCAnLW9tYWUnLCAnPG91dGZpbGUubWFlPic=

>  <r_lp_tautomer_probability>  (383) 
1

>  <r_epik_Ionization_Penalty>  (383) 
1.86813e-14

>  <r_epik_Ionization_Penalty_Charging>  (383) 
0

>  <r_epik_Ionization_Penalty_Neutral>  (383) 
1.86813e-14

>  <r_epik_State_Penalty>  (383) 
-0

>  <r_epik_Charging_Adjusted_Penalty>  (383) 
0

>  <i_epik_Tot_Q>  (383) 
0

>  <i_epik_Tot_abs_Q>  (383) 
0

>  <s_lp_Force_Field>  (383) 
OPLS3e

>  <r_lp_Energy>  (383) 
59.9146

>  <b_lp_Chiralities_Consistent>  (383) 
1

>  <s_lp_Variant>  (383) 
98:0-1

>  <s_i_glide_gridfile>  (383) 
pfpi4k_grid

>  <i_i_glide_lignum>  (383) 
21

>  <i_i_glide_rotatable_bonds>  (383) 
4

>  <r_i_docking_score>  (383) 
-1.71713

>  <r_i_glide_ligand_efficiency>  (383) 
-0.0572377

>  <r_i_glide_ligand_efficiency_sa>  (383) 
-0.177851

>  <r_i_glide_ligand_efficiency_ln>  (383) 
-0.390151

>  <r_i_glide_gscore>  (383) 
-1.71713

>  <r_i_glide_lipo>  (383) 
-0.256888

>  <r_i_glide_hbond>  (383) 
0

>  <r_i_glide_metal>  (383) 
-0

>  <r_i_glide_rewards>  (383) 
-0.59529

>  <r_i_glide_evdw>  (383) 
-21.0881

>  <r_i_glide_ecoul>  (383) 
-0.921686

>  <r_i_glide_erotb>  (383) 
0.347382

>  <r_i_glide_esite>  (383) 
-0.0196762

>  <r_i_glide_emodel>  (383) 
-21.161

>  <r_i_glide_energy>  (383) 
-22.0098

>  <r_i_glide_einternal>  (383) 
6.45669

>  <r_i_glide_intrahb_reward>  (383) 
-0

>  <i_i_glide_confnum>  (383) 
4

>  <i_i_glide_posenum>  (383) 
23

>  <r_i_glide_eff_state_penalty>  (383) 
0

>  <ligand_id>  (383) 
98

>  <original_smiles>  (383) 
CCCCC(C)C1CCC2C3C4CC(C)CCC4C4CCC(=O)C4(C)C3CCC12C

>  <smiles>  (383) 
[H]C([H])([H])C([H])([H])C([H])([H])C([H])([H])C([H])(C([H])([H])[H])C1([H])C([H])([H])C([H])([H])C2([H])C3([H])C4([H])C([H])([H])C([H])(C([H])([H])[H])C([H])([H])C([H])([H])C4([H])C4([H])C([H])([H])C([H])([H])C(=O)C4(C([H])([H])[H])C3([H])C([H])([H])C([H])([H])C12C([H])([H])[H]

$$$$
99:0:0
     RDKit          3D

 33 35  0  0  1  0  0  0  0  0999 V2000
    2.0514    0.2552   -5.0920 C   0  0  0  0  0  0  0  0  0  0  0  0
    2.7095   -0.2941   -3.8932 N   0  0  2  0  0  0  0  0  0  0  0  0
    4.0326    0.3048   -3.6440 C   0  0  0  0  0  0  0  0  0  0  0  0
    4.7376   -0.2412   -2.3760 C   0  0  0  0  0  0  0  0  0  0  0  0
    4.8044   -1.7364   -2.4704 C   0  0  1  0  0  0  0  0  0  0  0  0
    5.4137   -2.5639   -1.3753 C   0  0  0  0  0  0  0  0  0  0  0  0
    6.5313   -2.3098   -0.5651 C   0  0  0  0  0  0  0  0  0  0  0  0
    6.9308   -3.3164    0.3479 C   0  0  0  0  0  0  0  0  0  0  0  0
    6.2126   -4.5344    0.4392 C   0  0  0  0  0  0  0  0  0  0  0  0
    5.0783   -4.7635   -0.3765 C   0  0  0  0  0  0  0  0  0  0  0  0
    4.4150   -5.9538   -0.3121 O   0  0  0  0  0  0  0  0  0  0  0  0
    4.7054   -3.7560   -1.2840 C   0  0  0  0  0  0  0  0  0  0  0  0
    3.5305   -3.7247   -2.2392 C   0  0  0  0  0  0  0  0  0  0  0  0
    3.3651   -2.2368   -2.5437 C   0  0  2  0  0  0  0  0  0  0  0  0
    2.7308   -1.7800   -3.8620 C   0  0  0  0  0  0  0  0  0  0  0  0
    2.6179    0.0148   -5.9838 H   0  0  0  0  0  0  0  0  0  0  0  0
    1.9536    1.3346   -5.0379 H   0  0  0  0  0  0  0  0  0  0  0  0
    1.0506   -0.1407   -5.2049 H   0  0  0  0  0  0  0  0  0  0  0  0
    4.6087    0.1249   -4.5430 H   0  0  0  0  0  0  0  0  0  0  0  0
    3.9406    1.3795   -3.5714 H   0  0  0  0  0  0  0  0  0  0  0  0
    5.7496    0.1396   -2.3194 H   0  0  0  0  0  0  0  0  0  0  0  0
    4.2199    0.0594   -1.4641 H   0  0  0  0  0  0  0  0  0  0  0  0
    5.3467   -2.0220   -3.3712 H   0  0  0  0  0  0  0  0  0  0  0  0
    7.0756   -1.3895   -0.6278 H   0  0  0  0  0  0  0  0  0  0  0  0
    7.8044   -3.1578    0.9658 H   0  0  0  0  0  0  0  0  0  0  0  0
    6.5470   -5.3047    1.1217 H   0  0  0  0  0  0  0  0  0  0  0  0
    3.8038   -6.0503   -1.0418 H   0  0  0  0  0  0  0  0  0  0  0  0
    3.8372   -4.1881   -3.1759 H   0  0  0  0  0  0  0  0  0  0  0  0
    2.6161   -4.1586   -1.8205 H   0  0  0  0  0  0  0  0  0  0  0  0
    2.7881   -1.8222   -1.7098 H   0  0  0  0  0  0  0  0  0  0  0  0
    1.7355   -2.2157   -3.9371 H   0  0  0  0  0  0  0  0  0  0  0  0
    3.2899   -2.1677   -4.7047 H   0  0  0  0  0  0  0  0  0  0  0  0
    2.1421   -0.0028   -3.1119 H   0  0  0  0  0  0  0  0  0  0  0  0
  1  2  1  0
  1 16  1  0
  1 17  1  0
  1 18  1  0
  2 15  1  0
  2  3  1  0
  2 33  1  1
  3  4  1  0
  3 19  1  0
  3 20  1  0
  4  5  1  0
  4 21  1  0
  4 22  1  0
  5 14  1  0
  5  6  1  0
  5 23  1  6
  6 12  2  0
  6  7  1  0
  7  8  2  0
  7 24  1  0
  8  9  1  0
  8 25  1  0
  9 10  2  0
  9 26  1  0
 10 11  1  0
 10 12  1  0
 11 27  1  0
 12 13  1  0
 13 14  1  0
 13 28  1  0
 13 29  1  0
 14 15  1  0
 14 30  1  1
 15 31  1  0
 15 32  1  0
M  CHG  1   2   1
M  END
>  <i_m_ct_stereo_status>  (384) 
1

>  <s_m_source_file>  (384) 
/var/tmp/pbs.5076255.sched01/tmpg0s73j8k/135j_ekwz2c.sdf

>  <i_m_source_file_index>  (384) 
22

>  <i_lp_mmshare_version>  (384) 
48012

>  <i_f3d_flags>  (384) 
0

>  <s_epik_input>  (384) 
W0NIMl0xW0NIMl1OKFtDSDNdKVtDSDJdW0NASF0yW0NIMl1jKGMzW0NASF0xMiljKFtPSF0pW2NIXVtjSF1bY0hdMw==

>  <s_epik_cmdline>  (384) 
J2VwaWtfcHl0aG9uJywgJy1waHQnLCAnMi4wJywgJy1waCcsICc3LjAnLCAnLXRuJywgJzgnLCAnLW1hJywgJzIwMCcsICctaW1hZScsICc8aW5maWxlLm1hZT4nLCAnLW9tYWUnLCAnPG91dGZpbGUubWFlPic=

>  <r_lp_tautomer_probability>  (384) 
1

>  <r_epik_Ionization_Penalty>  (384) 
0.00277522

>  <r_epik_Ionization_Penalty_Charging>  (384) 
0.00188857

>  <r_epik_Ionization_Penalty_Neutral>  (384) 
0.000886649

>  <r_epik_State_Penalty>  (384) 
-0

>  <r_epik_Charging_Adjusted_Penalty>  (384) 
0.00188857

>  <i_epik_Tot_Q>  (384) 
1

>  <i_epik_Tot_abs_Q>  (384) 
1

>  <s_lp_Force_Field>  (384) 
OPLS3e

>  <r_lp_Energy>  (384) 
33.0321

>  <b_lp_Chiralities_Consistent>  (384) 
1

>  <s_lp_Variant>  (384) 
99:0-1

>  <s_i_glide_gridfile>  (384) 
pfpi4k_grid

>  <i_i_glide_lignum>  (384) 
22

>  <i_i_glide_rotatable_bonds>  (384) 
1

>  <r_i_docking_score>  (384) 
-4.18285

>  <r_i_glide_ligand_efficiency>  (384) 
-0.278857

>  <r_i_glide_ligand_efficiency_sa>  (384) 
-0.68772

>  <r_i_glide_ligand_efficiency_ln>  (384) 
-1.12805

>  <r_i_glide_gscore>  (384) 
-4.18285

>  <r_i_glide_lipo>  (384) 
-0.370475

>  <r_i_glide_hbond>  (384) 
-0.32

>  <r_i_glide_metal>  (384) 
-0

>  <r_i_glide_rewards>  (384) 
-2.01622

>  <r_i_glide_evdw>  (384) 
-12.7715

>  <r_i_glide_ecoul>  (384) 
-5.58391

>  <r_i_glide_erotb>  (384) 
0

>  <r_i_glide_esite>  (384) 
0

>  <r_i_glide_emodel>  (384) 
-21.7524

>  <r_i_glide_energy>  (384) 
-18.3554

>  <r_i_glide_einternal>  (384) 
0.134996

>  <r_i_glide_intrahb_reward>  (384) 
-0

>  <i_i_glide_confnum>  (384) 
2

>  <i_i_glide_posenum>  (384) 
1

>  <r_i_glide_eff_state_penalty>  (384) 
0

>  <ligand_id>  (384) 
99

>  <original_smiles>  (384) 
CN1CCC2c3cccc(O)c3CC2C1

>  <smiles>  (384) 
[H]Oc1c([H])c([H])c([H])c2c1C([H])([H])C1([H])C2([H])C([H])([H])C([H])([H])[N+]([H])(C([H])([H])[H])C1([H])[H]

$$$$
99:0:1
     RDKit          3D

 33 35  0  0  1  0  0  0  0  0999 V2000
    2.6295    0.2685   -5.5600 C   0  0  0  0  0  0  0  0  0  0  0  0
    2.9198   -0.2377   -4.2196 N   0  0  2  0  0  0  0  0  0  0  0  0
    4.2925    0.0952   -3.8406 C   0  0  0  0  0  0  0  0  0  0  0  0
    4.7304   -0.4087   -2.4443 C   0  0  0  0  0  0  0  0  0  0  0  0
    4.4378   -1.8932   -2.3748 C   0  0  1  0  0  0  0  0  0  0  0  0
    4.6495   -2.6588   -1.1066 C   0  0  0  0  0  0  0  0  0  0  0  0
    5.6866   -2.5374   -0.1601 C   0  0  0  0  0  0  0  0  0  0  0  0
    5.6881   -3.4512    0.9175 C   0  0  0  0  0  0  0  0  0  0  0  0
    4.6779   -4.4416    1.0301 C   0  0  0  0  0  0  0  0  0  0  0  0
    3.6455   -4.5254    0.0803 C   0  0  0  0  0  0  0  0  0  0  0  0
    2.6800   -5.4851    0.1659 O   0  0  0  0  0  0  0  0  0  0  0  0
    3.6488   -3.6102   -0.9892 C   0  0  0  0  0  0  0  0  0  0  0  0
    2.6331   -3.4699   -2.1093 C   0  0  0  0  0  0  0  0  0  0  0  0
    2.9432   -2.0753   -2.6278 C   0  0  2  0  0  0  0  0  0  0  0  0
    2.6269   -1.7018   -4.0681 C   0  0  0  0  0  0  0  0  0  0  0  0
    3.2118   -0.2319   -6.3448 H   0  0  0  0  0  0  0  0  0  0  0  0
    2.7776    1.3535   -5.6624 H   0  0  0  0  0  0  0  0  0  0  0  0
    1.5792    0.0270   -5.6410 H   0  0  0  0  0  0  0  0  0  0  0  0
    4.8977   -0.3845   -4.6189 H   0  0  0  0  0  0  0  0  0  0  0  0
    4.4270    1.1756   -3.9252 H   0  0  0  0  0  0  0  0  0  0  0  0
    5.7956   -0.2377   -2.3138 H   0  0  0  0  0  0  0  0  0  0  0  0
    4.2183    0.1276   -1.6481 H   0  0  0  0  0  0  0  0  0  0  0  0
    5.0200   -2.4174   -3.1385 H   0  0  0  0  0  0  0  0  0  0  0  0
    6.4557   -1.7859   -0.2579 H   0  0  0  0  0  0  0  0  0  0  0  0
    6.4757   -3.4164    1.6519 H   0  0  0  0  0  0  0  0  0  0  0  0
    4.7129   -5.1531    1.8432 H   0  0  0  0  0  0  0  0  0  0  0  0
    2.3922   -5.7461   -0.6966 H   0  0  0  0  0  0  0  0  0  0  0  0
    2.8547   -4.1470   -2.9332 H   0  0  0  0  0  0  0  0  0  0  0  0
    1.6005   -3.6016   -1.7965 H   0  0  0  0  0  0  0  0  0  0  0  0
    2.4309   -1.3760   -1.9716 H   0  0  0  0  0  0  0  0  0  0  0  0
    1.5962   -1.9503   -4.3145 H   0  0  0  0  0  0  0  0  0  0  0  0
    3.2479   -2.2938   -4.7454 H   0  0  0  0  0  0  0  0  0  0  0  0
    2.3250    0.2995   -3.5922 H   0  0  0  0  0  0  0  0  0  0  0  0
  1  2  1  0
  1 16  1  0
  1 17  1  0
  1 18  1  0
  2 15  1  0
  2  3  1  0
  2 33  1  1
  3  4  1  0
  3 19  1  0
  3 20  1  0
  4  5  1  0
  4 21  1  0
  4 22  1  0
  5 14  1  0
  5  6  1  0
  5 23  1  6
  6 12  2  0
  6  7  1  0
  7  8  2  0
  7 24  1  0
  8  9  1  0
  8 25  1  0
  9 10  2  0
  9 26  1  0
 10 11  1  0
 10 12  1  0
 11 27  1  0
 12 13  1  0
 13 14  1  0
 13 28  1  0
 13 29  1  0
 14 15  1  0
 14 30  1  1
 15 31  1  0
 15 32  1  0
M  CHG  1   2   1
M  END
>  <i_m_ct_stereo_status>  (385) 
1

>  <s_m_source_file>  (385) 
/var/tmp/pbs.5076255.sched01/tmpg0s73j8k/135j_ekwz2c.sdf

>  <i_m_source_file_index>  (385) 
22

>  <i_lp_mmshare_version>  (385) 
48012

>  <i_f3d_flags>  (385) 
0

>  <s_epik_input>  (385) 
W0NIMl0xW0NIMl1OKFtDSDNdKVtDSDJdW0NASF0yW0NIMl1jKGMzW0NASF0xMiljKFtPSF0pW2NIXVtjSF1bY0hdMw==

>  <s_epik_cmdline>  (385) 
J2VwaWtfcHl0aG9uJywgJy1waHQnLCAnMi4wJywgJy1waCcsICc3LjAnLCAnLXRuJywgJzgnLCAnLW1hJywgJzIwMCcsICctaW1hZScsICc8aW5maWxlLm1hZT4nLCAnLW9tYWUnLCAnPG91dGZpbGUubWFlPic=

>  <r_lp_tautomer_probability>  (385) 
1

>  <r_epik_Ionization_Penalty>  (385) 
0.00277522

>  <r_epik_Ionization_Penalty_Charging>  (385) 
0.00188857

>  <r_epik_Ionization_Penalty_Neutral>  (385) 
0.000886649

>  <r_epik_State_Penalty>  (385) 
-0

>  <r_epik_Charging_Adjusted_Penalty>  (385) 
0.00188857

>  <i_epik_Tot_Q>  (385) 
1

>  <i_epik_Tot_abs_Q>  (385) 
1

>  <s_lp_Force_Field>  (385) 
OPLS3e

>  <r_lp_Energy>  (385) 
33.0321

>  <b_lp_Chiralities_Consistent>  (385) 
1

>  <s_lp_Variant>  (385) 
99:0-1

>  <s_i_glide_gridfile>  (385) 
pfpi4k_grid

>  <i_i_glide_lignum>  (385) 
22

>  <i_i_glide_rotatable_bonds>  (385) 
1

>  <r_i_docking_score>  (385) 
-3.77938

>  <r_i_glide_ligand_efficiency>  (385) 
-0.251959

>  <r_i_glide_ligand_efficiency_sa>  (385) 
-0.621384

>  <r_i_glide_ligand_efficiency_ln>  (385) 
-1.01924

>  <r_i_glide_gscore>  (385) 
-3.77938

>  <r_i_glide_lipo>  (385) 
-0.407179

>  <r_i_glide_hbond>  (385) 
-0.297494

>  <r_i_glide_metal>  (385) 
-0

>  <r_i_glide_rewards>  (385) 
-2.01622

>  <r_i_glide_evdw>  (385) 
-9.56444

>  <r_i_glide_ecoul>  (385) 
-3.86848

>  <r_i_glide_erotb>  (385) 
0

>  <r_i_glide_esite>  (385) 
0

>  <r_i_glide_emodel>  (385) 
-15.8999

>  <r_i_glide_energy>  (385) 
-13.4329

>  <r_i_glide_einternal>  (385) 
0.800257

>  <r_i_glide_intrahb_reward>  (385) 
-0

>  <i_i_glide_confnum>  (385) 
1

>  <i_i_glide_posenum>  (385) 
10

>  <r_i_glide_eff_state_penalty>  (385) 
0

>  <ligand_id>  (385) 
99

>  <original_smiles>  (385) 
CN1CCC2c3cccc(O)c3CC2C1

>  <smiles>  (385) 
[H]Oc1c([H])c([H])c([H])c2c1C([H])([H])C1([H])C2([H])C([H])([H])C([H])([H])[N+]([H])(C([H])([H])[H])C1([H])[H]

$$$$
99:0:2
     RDKit          3D

 33 35  0  0  1  0  0  0  0  0999 V2000
    2.0827    0.1479   -5.0885 C   0  0  0  0  0  0  0  0  0  0  0  0
    2.7400   -0.3653   -3.8648 N   0  0  2  0  0  0  0  0  0  0  0  0
    4.0625    0.2503   -3.6460 C   0  0  0  0  0  0  0  0  0  0  0  0
    4.7714   -0.2584   -2.3593 C   0  0  0  0  0  0  0  0  0  0  0  0
    4.8371   -1.7580   -2.3956 C   0  0  1  0  0  0  0  0  0  0  0  0
    5.4441   -2.5463   -1.2689 C   0  0  0  0  0  0  0  0  0  0  0  0
    6.5645   -2.2600   -0.4694 C   0  0  0  0  0  0  0  0  0  0  0  0
    6.9686   -3.2309    0.4733 C   0  0  0  0  0  0  0  0  0  0  0  0
    6.2598   -4.4452    0.6099 C   0  0  0  0  0  0  0  0  0  0  0  0
    5.1202   -4.7115   -0.1822 C   0  0  0  0  0  0  0  0  0  0  0  0
    4.4436   -5.8835   -0.0304 O   0  0  0  0  0  0  0  0  0  0  0  0
    4.7327   -3.7323   -1.1262 C   0  0  0  0  0  0  0  0  0  0  0  0
    3.5648   -3.7412   -2.0855 C   0  0  0  0  0  0  0  0  0  0  0  0
    3.3995   -2.2669   -2.4532 C   0  0  2  0  0  0  0  0  0  0  0  0
    2.7603   -1.8539   -3.7889 C   0  0  0  0  0  0  0  0  0  0  0  0
    2.6406   -0.1454   -5.9711 H   0  0  0  0  0  0  0  0  0  0  0  0
    1.9924    1.2340   -5.0782 H   0  0  0  0  0  0  0  0  0  0  0  0
    1.0777   -0.2522   -5.1825 H   0  0  0  0  0  0  0  0  0  0  0  0
    4.6154    0.0190   -4.5521 H   0  0  0  0  0  0  0  0  0  0  0  0
    3.9673    1.3333   -3.6152 H   0  0  0  0  0  0  0  0  0  0  0  0
    5.7805    0.1251   -2.3148 H   0  0  0  0  0  0  0  0  0  0  0  0
    4.2525    0.0832   -1.4619 H   0  0  0  0  0  0  0  0  0  0  0  0
    5.3876   -2.0734   -3.2839 H   0  0  0  0  0  0  0  0  0  0  0  0
    7.1066   -1.3393   -0.5618 H   0  0  0  0  0  0  0  0  0  0  0  0
    7.8367   -3.0491    1.0875 H   0  0  0  0  0  0  0  0  0  0  0  0
    6.5994   -5.1763    1.3310 H   0  0  0  0  0  0  0  0  0  0  0  0
    4.8679   -6.4803    0.5666 H   0  0  0  0  0  0  0  0  0  0  0  0
    3.8927   -4.2286   -3.0010 H   0  0  0  0  0  0  0  0  0  0  0  0
    2.6625   -4.1828   -1.6577 H   0  0  0  0  0  0  0  0  0  0  0  0
    2.8264   -1.8204   -1.6388 H   0  0  0  0  0  0  0  0  0  0  0  0
    1.7482   -2.2615   -3.8376 H   0  0  0  0  0  0  0  0  0  0  0  0
    3.2971   -2.2672   -4.6413 H   0  0  0  0  0  0  0  0  0  0  0  0
    2.1706   -0.0495   -3.0906 H   0  0  0  0  0  0  0  0  0  0  0  0
  1  2  1  0
  1 16  1  0
  1 17  1  0
  1 18  1  0
  2 15  1  0
  2  3  1  0
  2 33  1  1
  3  4  1  0
  3 19  1  0
  3 20  1  0
  4  5  1  0
  4 21  1  0
  4 22  1  0
  5 14  1  0
  5  6  1  0
  5 23  1  6
  6 12  2  0
  6  7  1  0
  7  8  2  0
  7 24  1  0
  8  9  1  0
  8 25  1  0
  9 10  2  0
  9 26  1  0
 10 11  1  0
 10 12  1  0
 11 27  1  0
 12 13  1  0
 13 14  1  0
 13 28  1  0
 13 29  1  0
 14 15  1  0
 14 30  1  1
 15 31  1  0
 15 32  1  0
M  CHG  1   2   1
M  END
>  <i_m_ct_stereo_status>  (386) 
1

>  <s_m_source_file>  (386) 
/var/tmp/pbs.5076255.sched01/tmpg0s73j8k/135j_ekwz2c.sdf

>  <i_m_source_file_index>  (386) 
22

>  <i_lp_mmshare_version>  (386) 
48012

>  <i_f3d_flags>  (386) 
0

>  <s_epik_input>  (386) 
W0NIMl0xW0NIMl1OKFtDSDNdKVtDSDJdW0NASF0yW0NIMl1jKGMzW0NASF0xMiljKFtPSF0pW2NIXVtjSF1bY0hdMw==

>  <s_epik_cmdline>  (386) 
J2VwaWtfcHl0aG9uJywgJy1waHQnLCAnMi4wJywgJy1waCcsICc3LjAnLCAnLXRuJywgJzgnLCAnLW1hJywgJzIwMCcsICctaW1hZScsICc8aW5maWxlLm1hZT4nLCAnLW9tYWUnLCAnPG91dGZpbGUubWFlPic=

>  <r_lp_tautomer_probability>  (386) 
1

>  <r_epik_Ionization_Penalty>  (386) 
0.00277522

>  <r_epik_Ionization_Penalty_Charging>  (386) 
0.00188857

>  <r_epik_Ionization_Penalty_Neutral>  (386) 
0.000886649

>  <r_epik_State_Penalty>  (386) 
-0

>  <r_epik_Charging_Adjusted_Penalty>  (386) 
0.00188857

>  <i_epik_Tot_Q>  (386) 
1

>  <i_epik_Tot_abs_Q>  (386) 
1

>  <s_lp_Force_Field>  (386) 
OPLS3e

>  <r_lp_Energy>  (386) 
33.0321

>  <b_lp_Chiralities_Consistent>  (386) 
1

>  <s_lp_Variant>  (386) 
99:0-1

>  <s_i_glide_gridfile>  (386) 
pfpi4k_grid

>  <i_i_glide_lignum>  (386) 
22

>  <i_i_glide_rotatable_bonds>  (386) 
1

>  <r_i_docking_score>  (386) 
-3.23331

>  <r_i_glide_ligand_efficiency>  (386) 
-0.215554

>  <r_i_glide_ligand_efficiency_sa>  (386) 
-0.531602

>  <r_i_glide_ligand_efficiency_ln>  (386) 
-0.87197

>  <r_i_glide_gscore>  (386) 
-3.23331

>  <r_i_glide_lipo>  (386) 
-0.41422

>  <r_i_glide_hbond>  (386) 
0

>  <r_i_glide_metal>  (386) 
-0

>  <r_i_glide_rewards>  (386) 
-2.01622

>  <r_i_glide_evdw>  (386) 
-14.287

>  <r_i_glide_ecoul>  (386) 
-0.590137

>  <r_i_glide_erotb>  (386) 
0

>  <r_i_glide_esite>  (386) 
0

>  <r_i_glide_emodel>  (386) 
-17.3875

>  <r_i_glide_energy>  (386) 
-14.8771

>  <r_i_glide_einternal>  (386) 
0.0031382

>  <r_i_glide_intrahb_reward>  (386) 
-0

>  <i_i_glide_confnum>  (386) 
1

>  <i_i_glide_posenum>  (386) 
19

>  <r_i_glide_eff_state_penalty>  (386) 
0

>  <ligand_id>  (386) 
99

>  <original_smiles>  (386) 
CN1CCC2c3cccc(O)c3CC2C1

>  <smiles>  (386) 
[H]Oc1c([H])c([H])c([H])c2c1C([H])([H])C1([H])C2([H])C([H])([H])C([H])([H])[N+]([H])(C([H])([H])[H])C1([H])[H]

$$$$
100:0:0
     RDKit          3D

 19 21  0  0  1  0  0  0  0  0999 V2000
    4.3694   -4.0629    3.4747 O   0  0  0  0  0  0  0  0  0  0  0  0
    4.5993   -3.1179    2.7184 C   0  0  0  0  0  0  0  0  0  0  0  0
    5.2675   -1.9724    3.0325 N   0  0  0  0  0  0  0  0  0  0  0  0
    5.4484   -1.0141    2.0466 C   0  0  0  0  0  0  0  0  0  0  0  0
    5.0426   -1.0735    0.8271 N   0  0  0  0  0  0  0  0  0  0  0  0
    4.3475   -2.2220    0.4822 C   0  0  0  0  0  0  0  0  0  0  0  0
    3.7920   -2.5901   -0.7127 C   0  0  0  0  0  0  0  0  0  0  0  0
    3.7598   -1.8773   -1.9840 C   0  0  0  0  0  0  0  0  0  0  0  0
    4.2585   -0.6584   -2.2128 N   0  0  0  0  0  0  0  0  0  0  0  0
    4.0236   -0.2161   -3.5139 C   0  0  0  0  0  0  0  0  0  0  0  0
    3.4147   -1.1454   -4.3070 C   0  0  0  0  0  0  0  0  0  0  0  0
    3.0287   -2.5941   -3.4219 S   0  0  0  0  0  0  0  0  0  0  0  0
    3.2193   -3.8694   -0.4420 C   0  0  0  0  0  0  0  0  0  0  0  0
    3.4121   -4.2697    0.8148 N   0  0  0  0  0  0  0  0  0  0  0  0
    4.1074   -3.2473    1.3707 N   0  0  0  0  0  0  0  0  0  0  0  0
    6.0061   -0.1510    2.4207 H   0  0  0  0  0  0  0  0  0  0  0  0
    4.3369    0.7811   -3.7851 H   0  0  0  0  0  0  0  0  0  0  0  0
    3.1358   -1.0426   -5.3454 H   0  0  0  0  0  0  0  0  0  0  0  0
    2.6808   -4.5136   -1.1184 H   0  0  0  0  0  0  0  0  0  0  0  0
  1  2  2  0
  2 15  1  0
  2  3  1  0
  3  4  1  0
  4  5  2  0
  4 16  1  0
  5  6  1  0
  6 15  1  0
  6  7  2  0
  7  8  1  0
  7 13  1  0
  8 12  1  0
  8  9  2  0
  9 10  1  0
 10 11  2  0
 10 17  1  0
 11 12  1  0
 11 18  1  0
 13 14  2  0
 13 19  1  0
 14 15  1  0
M  CHG  1   3  -1
M  END
>  <i_m_ct_stereo_status>  (387) 
1

>  <s_m_source_file>  (387) 
/var/tmp/pbs.5076255.sched01/tmpg0s73j8k/135j_ekwz2c.sdf

>  <i_m_source_file_index>  (387) 
23

>  <i_lp_mmshare_version>  (387) 
48012

>  <i_f3d_flags>  (387) 
0

>  <s_epik_input>  (387) 
bjFbY0hdbmMoPU8pbihjMTIpW25IXVtjSF1jMi1jM25bY0hdW2NIXXMz

>  <s_epik_cmdline>  (387) 
J2VwaWtfcHl0aG9uJywgJy1waHQnLCAnMi4wJywgJy1waCcsICc3LjAnLCAnLXRuJywgJzgnLCAnLW1hJywgJzIwMCcsICctaW1hZScsICc8aW5maWxlLm1hZT4nLCAnLW9tYWUnLCAnPG91dGZpbGUubWFlPic=

>  <r_epik_Ionization_Penalty>  (387) 
0.0238403

>  <r_epik_Ionization_Penalty_Charging>  (387) 
7.39436e-12

>  <r_epik_Ionization_Penalty_Neutral>  (387) 
0.0238403

>  <r_epik_State_Penalty>  (387) 
0.0182518

>  <r_epik_Charging_Adjusted_Penalty>  (387) 
0.0182518

>  <i_epik_Tot_Q>  (387) 
-1

>  <i_epik_Tot_abs_Q>  (387) 
1

>  <s_lp_Force_Field>  (387) 
OPLS3e

>  <r_lp_Energy>  (387) 
31.1302

>  <b_lp_Chiralities_Consistent>  (387) 
1

>  <s_lp_Variant>  (387) 
100:0-1

>  <s_i_glide_gridfile>  (387) 
pfpi4k_grid

>  <i_i_glide_lignum>  (387) 
23

>  <i_i_glide_rotatable_bonds>  (387) 
1

>  <r_i_docking_score>  (387) 
-3.24927

>  <r_i_glide_ligand_efficiency>  (387) 
-0.216618

>  <r_i_glide_ligand_efficiency_sa>  (387) 
-0.534226

>  <r_i_glide_ligand_efficiency_ln>  (387) 
-0.876275

>  <r_i_glide_gscore>  (387) 
-3.24927

>  <r_i_glide_lipo>  (387) 
-0.376883

>  <r_i_glide_hbond>  (387) 
0

>  <r_i_glide_metal>  (387) 
-0

>  <r_i_glide_rewards>  (387) 
-2.12162

>  <r_i_glide_evdw>  (387) 
-22.1929

>  <r_i_glide_ecoul>  (387) 
0.0784817

>  <r_i_glide_erotb>  (387) 
0.352823

>  <r_i_glide_esite>  (387) 
-0.00571913

>  <r_i_glide_emodel>  (387) 
-28.4057

>  <r_i_glide_energy>  (387) 
-22.1144

>  <r_i_glide_einternal>  (387) 
0.00983113

>  <r_i_glide_intrahb_reward>  (387) 
-0

>  <i_i_glide_confnum>  (387) 
3

>  <i_i_glide_posenum>  (387) 
3

>  <r_i_glide_eff_state_penalty>  (387) 
0

>  <ligand_id>  (387) 
100

>  <original_smiles>  (387) 
O=c1ncnc2c(-c3nccs3)c[nH]n12

>  <smiles>  (387) 
[H]c1nc2c(-c3nc([H])c([H])s3)c([H])nn2c(=O)[n-]1

$$$$
100:0:1
     RDKit          3D

 19 21  0  0  1  0  0  0  0  0999 V2000
   -0.6034   -4.3117    9.7857 O   0  0  0  0  0  0  0  0  0  0  0  0
   -0.4712   -4.2615    8.5646 C   0  0  0  0  0  0  0  0  0  0  0  0
   -0.5824   -3.1470    7.7795 N   0  0  0  0  0  0  0  0  0  0  0  0
   -0.4209   -3.2885    6.4124 C   0  0  0  0  0  0  0  0  0  0  0  0
   -0.1704   -4.3728    5.7680 N   0  0  0  0  0  0  0  0  0  0  0  0
   -0.0434   -5.5186    6.5400 C   0  0  0  0  0  0  0  0  0  0  0  0
    0.2200   -6.8078    6.1620 C   0  0  0  0  0  0  0  0  0  0  0  0
    0.4362   -7.3580    4.8221 C   0  0  0  0  0  0  0  0  0  0  0  0
    0.4188   -6.6752    3.6665 N   0  0  0  0  0  0  0  0  0  0  0  0
    0.6880   -7.4860    2.5601 C   0  0  0  0  0  0  0  0  0  0  0  0
    0.8830   -8.8034    2.8787 C   0  0  0  0  0  0  0  0  0  0  0  0
    0.7530   -9.0776    4.5911 S   0  0  0  0  0  0  0  0  0  0  0  0
    0.2374   -7.5283    7.3985 C   0  0  0  0  0  0  0  0  0  0  0  0
   -0.0165   -6.7491    8.4522 N   0  0  0  0  0  0  0  0  0  0  0  0
   -0.1809   -5.5135    7.9079 N   0  0  0  0  0  0  0  0  0  0  0  0
   -0.5380   -2.3344    5.8831 H   0  0  0  0  0  0  0  0  0  0  0  0
    0.7181   -7.0414    1.5730 H   0  0  0  0  0  0  0  0  0  0  0  0
    1.0925   -9.6305    2.2116 H   0  0  0  0  0  0  0  0  0  0  0  0
    0.4032   -8.5852    7.5567 H   0  0  0  0  0  0  0  0  0  0  0  0
  1  2  2  0
  2 15  1  0
  2  3  1  0
  3  4  1  0
  4  5  2  0
  4 16  1  0
  5  6  1  0
  6 15  1  0
  6  7  2  0
  7  8  1  0
  7 13  1  0
  8 12  1  0
  8  9  2  0
  9 10  1  0
 10 11  2  0
 10 17  1  0
 11 12  1  0
 11 18  1  0
 13 14  2  0
 13 19  1  0
 14 15  1  0
M  CHG  1   3  -1
M  END
>  <i_m_ct_stereo_status>  (388) 
1

>  <s_m_source_file>  (388) 
/var/tmp/pbs.5076255.sched01/tmpg0s73j8k/135j_ekwz2c.sdf

>  <i_m_source_file_index>  (388) 
23

>  <i_lp_mmshare_version>  (388) 
48012

>  <i_f3d_flags>  (388) 
0

>  <s_epik_input>  (388) 
bjFbY0hdbmMoPU8pbihjMTIpW25IXVtjSF1jMi1jM25bY0hdW2NIXXMz

>  <s_epik_cmdline>  (388) 
J2VwaWtfcHl0aG9uJywgJy1waHQnLCAnMi4wJywgJy1waCcsICc3LjAnLCAnLXRuJywgJzgnLCAnLW1hJywgJzIwMCcsICctaW1hZScsICc8aW5maWxlLm1hZT4nLCAnLW9tYWUnLCAnPG91dGZpbGUubWFlPic=

>  <r_epik_Ionization_Penalty>  (388) 
0.0238403

>  <r_epik_Ionization_Penalty_Charging>  (388) 
7.39436e-12

>  <r_epik_Ionization_Penalty_Neutral>  (388) 
0.0238403

>  <r_epik_State_Penalty>  (388) 
0.0182518

>  <r_epik_Charging_Adjusted_Penalty>  (388) 
0.0182518

>  <i_epik_Tot_Q>  (388) 
-1

>  <i_epik_Tot_abs_Q>  (388) 
1

>  <s_lp_Force_Field>  (388) 
OPLS3e

>  <r_lp_Energy>  (388) 
31.1302

>  <b_lp_Chiralities_Consistent>  (388) 
1

>  <s_lp_Variant>  (388) 
100:0-1

>  <s_i_glide_gridfile>  (388) 
pfpi4k_grid

>  <i_i_glide_lignum>  (388) 
23

>  <i_i_glide_rotatable_bonds>  (388) 
1

>  <r_i_docking_score>  (388) 
-3.20576

>  <r_i_glide_ligand_efficiency>  (388) 
-0.213717

>  <r_i_glide_ligand_efficiency_sa>  (388) 
-0.527073

>  <r_i_glide_ligand_efficiency_ln>  (388) 
-0.864541

>  <r_i_glide_gscore>  (388) 
-3.20576

>  <r_i_glide_lipo>  (388) 
0

>  <r_i_glide_hbond>  (388) 
-0.205811

>  <r_i_glide_metal>  (388) 
-0

>  <r_i_glide_rewards>  (388) 
-1.95561

>  <r_i_glide_evdw>  (388) 
-14.2881

>  <r_i_glide_ecoul>  (388) 
-4.23961

>  <r_i_glide_erotb>  (388) 
0.352823

>  <r_i_glide_esite>  (388) 
-0.046819

>  <r_i_glide_emodel>  (388) 
-24.7419

>  <r_i_glide_energy>  (388) 
-18.5277

>  <r_i_glide_einternal>  (388) 
0.000108359

>  <r_i_glide_intrahb_reward>  (388) 
-0

>  <i_i_glide_confnum>  (388) 
1

>  <i_i_glide_posenum>  (388) 
11

>  <r_i_glide_eff_state_penalty>  (388) 
0

>  <ligand_id>  (388) 
100

>  <original_smiles>  (388) 
O=c1ncnc2c(-c3nccs3)c[nH]n12

>  <smiles>  (388) 
[H]c1nc2c(-c3nc([H])c([H])s3)c([H])nn2c(=O)[n-]1

$$$$
100:0:2
     RDKit          3D

 19 21  0  0  1  0  0  0  0  0999 V2000
   -0.1852   -2.5911    8.3683 O   0  0  0  0  0  0  0  0  0  0  0  0
    0.0315   -2.8022    7.1734 C   0  0  0  0  0  0  0  0  0  0  0  0
    0.2163   -1.8610    6.2054 N   0  0  0  0  0  0  0  0  0  0  0  0
    0.4568   -2.2828    4.9052 C   0  0  0  0  0  0  0  0  0  0  0  0
    0.4886   -3.4995    4.4839 N   0  0  0  0  0  0  0  0  0  0  0  0
    0.2578   -4.4758    5.4400 C   0  0  0  0  0  0  0  0  0  0  0  0
    0.1847   -5.8367    5.3085 C   0  0  0  0  0  0  0  0  0  0  0  0
    0.3195   -6.6727    4.1136 C   0  0  0  0  0  0  0  0  0  0  0  0
    0.4793   -6.2420    2.8534 N   0  0  0  0  0  0  0  0  0  0  0  0
    0.6072   -7.2845    1.9306 C   0  0  0  0  0  0  0  0  0  0  0  0
    0.5018   -8.5248    2.5012 C   0  0  0  0  0  0  0  0  0  0  0  0
    0.2575   -8.4299    4.2213 S   0  0  0  0  0  0  0  0  0  0  0  0
   -0.0584   -6.2869    6.6430 C   0  0  0  0  0  0  0  0  0  0  0  0
   -0.1682   -5.2905    7.5207 N   0  0  0  0  0  0  0  0  0  0  0  0
    0.0387   -4.1826    6.7668 N   0  0  0  0  0  0  0  0  0  0  0  0
    0.6240   -1.4448    4.2199 H   0  0  0  0  0  0  0  0  0  0  0  0
    0.7635   -7.0499    0.8876 H   0  0  0  0  0  0  0  0  0  0  0  0
    0.5533   -9.4879    2.0101 H   0  0  0  0  0  0  0  0  0  0  0  0
   -0.1785   -7.3012    6.9930 H   0  0  0  0  0  0  0  0  0  0  0  0
  1  2  2  0
  2 15  1  0
  2  3  1  0
  3  4  1  0
  4  5  2  0
  4 16  1  0
  5  6  1  0
  6 15  1  0
  6  7  2  0
  7  8  1  0
  7 13  1  0
  8 12  1  0
  8  9  2  0
  9 10  1  0
 10 11  2  0
 10 17  1  0
 11 12  1  0
 11 18  1  0
 13 14  2  0
 13 19  1  0
 14 15  1  0
M  CHG  1   3  -1
M  END
>  <i_m_ct_stereo_status>  (389) 
1

>  <s_m_source_file>  (389) 
/var/tmp/pbs.5076255.sched01/tmpg0s73j8k/135j_ekwz2c.sdf

>  <i_m_source_file_index>  (389) 
23

>  <i_lp_mmshare_version>  (389) 
48012

>  <i_f3d_flags>  (389) 
0

>  <s_epik_input>  (389) 
bjFbY0hdbmMoPU8pbihjMTIpW25IXVtjSF1jMi1jM25bY0hdW2NIXXMz

>  <s_epik_cmdline>  (389) 
J2VwaWtfcHl0aG9uJywgJy1waHQnLCAnMi4wJywgJy1waCcsICc3LjAnLCAnLXRuJywgJzgnLCAnLW1hJywgJzIwMCcsICctaW1hZScsICc8aW5maWxlLm1hZT4nLCAnLW9tYWUnLCAnPG91dGZpbGUubWFlPic=

>  <r_epik_Ionization_Penalty>  (389) 
0.0238403

>  <r_epik_Ionization_Penalty_Charging>  (389) 
7.39436e-12

>  <r_epik_Ionization_Penalty_Neutral>  (389) 
0.0238403

>  <r_epik_State_Penalty>  (389) 
0.0182518

>  <r_epik_Charging_Adjusted_Penalty>  (389) 
0.0182518

>  <i_epik_Tot_Q>  (389) 
-1

>  <i_epik_Tot_abs_Q>  (389) 
1

>  <s_lp_Force_Field>  (389) 
OPLS3e

>  <r_lp_Energy>  (389) 
31.1302

>  <b_lp_Chiralities_Consistent>  (389) 
1

>  <s_lp_Variant>  (389) 
100:0-1

>  <s_i_glide_gridfile>  (389) 
pfpi4k_grid

>  <i_i_glide_lignum>  (389) 
23

>  <i_i_glide_rotatable_bonds>  (389) 
1

>  <r_i_docking_score>  (389) 
-3.04197

>  <r_i_glide_ligand_efficiency>  (389) 
-0.202798

>  <r_i_glide_ligand_efficiency_sa>  (389) 
-0.500143

>  <r_i_glide_ligand_efficiency_ln>  (389) 
-0.820369

>  <r_i_glide_gscore>  (389) 
-3.04197

>  <r_i_glide_lipo>  (389) 
0

>  <r_i_glide_hbond>  (389) 
-0.207113

>  <r_i_glide_metal>  (389) 
-0

>  <r_i_glide_rewards>  (389) 
-1.93921

>  <r_i_glide_evdw>  (389) 
-14.1234

>  <r_i_glide_ecoul>  (389) 
-3.29175

>  <r_i_glide_erotb>  (389) 
0.352823

>  <r_i_glide_esite>  (389) 
-0.0485306

>  <r_i_glide_emodel>  (389) 
-23.2902

>  <r_i_glide_energy>  (389) 
-17.4152

>  <r_i_glide_einternal>  (389) 
0.00621574

>  <r_i_glide_intrahb_reward>  (389) 
-0

>  <i_i_glide_confnum>  (389) 
3

>  <i_i_glide_posenum>  (389) 
25

>  <r_i_glide_eff_state_penalty>  (389) 
0

>  <ligand_id>  (389) 
100

>  <original_smiles>  (389) 
O=c1ncnc2c(-c3nccs3)c[nH]n12

>  <smiles>  (389) 
[H]c1nc2c(-c3nc([H])c([H])s3)c([H])nn2c(=O)[n-]1

$$$$
100:1:0
     RDKit          3D

 20 22  0  0  1  0  0  0  0  0999 V2000
    9.2609   -5.0962    1.5799 O   0  0  0  0  0  0  0  0  0  0  0  0
    8.0787   -4.9693    1.2688 C   0  0  0  0  0  0  0  0  0  0  0  0
    7.0369   -5.5460    1.8958 N   0  0  0  0  0  0  0  0  0  0  0  0
    5.7027   -5.3522    1.4842 C   0  0  0  0  0  0  0  0  0  0  0  0
    5.3424   -4.6043    0.4740 N   0  0  0  0  0  0  0  0  0  0  0  0
    6.4033   -3.9900   -0.1782 C   0  0  0  0  0  0  0  0  0  0  0  0
    6.3691   -3.1606   -1.2621 C   0  0  0  0  0  0  0  0  0  0  0  0
    5.2386   -2.7052   -2.0535 C   0  0  0  0  0  0  0  0  0  0  0  0
    4.6298   -3.4202   -3.0050 N   0  0  0  0  0  0  0  0  0  0  0  0
    3.5813   -2.7218   -3.6078 C   0  0  0  0  0  0  0  0  0  0  0  0
    3.4447   -1.4390   -3.1431 C   0  0  0  0  0  0  0  0  0  0  0  0
    4.6115   -1.0709   -1.9037 S   0  0  0  0  0  0  0  0  0  0  0  0
    7.7430   -2.8698   -1.5196 C   0  0  0  0  0  0  0  0  0  0  0  0
    8.5583   -3.4536   -0.6466 N   0  0  0  0  0  0  0  0  0  0  0  0
    7.7272   -4.1402    0.1633 N   0  0  0  0  0  0  0  0  0  0  0  0
    4.9846   -5.8913    2.1061 H   0  0  0  0  0  0  0  0  0  0  0  0
    2.9829   -3.2151   -4.3604 H   0  0  0  0  0  0  0  0  0  0  0  0
    2.7144   -0.6954   -3.4328 H   0  0  0  0  0  0  0  0  0  0  0  0
    8.1691   -2.2614   -2.3042 H   0  0  0  0  0  0  0  0  0  0  0  0
    7.2386   -6.1324    2.6924 H   0  0  0  0  0  0  0  0  0  0  0  0
  1  2  2  0
  2 15  1  0
  2  3  1  0
  3  4  1  0
  3 20  1  0
  4  5  2  0
  4 16  1  0
  5  6  1  0
  6 15  1  0
  6  7  2  0
  7  8  1  0
  7 13  1  0
  8 12  1  0
  8  9  2  0
  9 10  1  0
 10 11  2  0
 10 17  1  0
 11 12  1  0
 11 18  1  0
 13 14  2  0
 13 19  1  0
 14 15  1  0
M  END
>  <i_m_ct_stereo_status>  (390) 
1

>  <s_m_source_file>  (390) 
/var/tmp/pbs.5076255.sched01/tmpg0s73j8k/135j_ekwz2c.sdf

>  <i_m_source_file_index>  (390) 
24

>  <i_lp_mmshare_version>  (390) 
48012

>  <i_f3d_flags>  (390) 
0

>  <s_epik_input>  (390) 
bjFbY0hdbmMoPU8pbihjMTIpW25IXVtjSF1jMi1jM25bY0hdW2NIXXMz

>  <s_epik_cmdline>  (390) 
J2VwaWtfcHl0aG9uJywgJy1waHQnLCAnMi4wJywgJy1waCcsICc3LjAnLCAnLXRuJywgJzgnLCAnLW1hJywgJzIwMCcsICctaW1hZScsICc8aW5maWxlLm1hZT4nLCAnLW9tYWUnLCAnPG91dGZpbGUubWFlPic=

>  <r_epik_Ionization_Penalty>  (390) 
2.31714

>  <r_epik_Ionization_Penalty_Charging>  (390) 
2.31713

>  <r_epik_Ionization_Penalty_Neutral>  (390) 
8.81948e-06

>  <r_epik_State_Penalty>  (390) 
2.47803

>  <r_epik_Charging_Adjusted_Penalty>  (390) 
4.79516

>  <i_epik_Tot_Q>  (390) 
0

>  <i_epik_Tot_abs_Q>  (390) 
0

>  <s_lp_Force_Field>  (390) 
OPLS3e

>  <r_lp_Energy>  (390) 
18.8255

>  <b_lp_Chiralities_Consistent>  (390) 
1

>  <s_lp_Variant>  (390) 
100:0-2

>  <s_i_glide_gridfile>  (390) 
pfpi4k_grid

>  <i_i_glide_lignum>  (390) 
24

>  <i_i_glide_rotatable_bonds>  (390) 
1

>  <r_i_docking_score>  (390) 
-3.79852

>  <r_i_glide_ligand_efficiency>  (390) 
-0.253235

>  <r_i_glide_ligand_efficiency_sa>  (390) 
-0.62453

>  <r_i_glide_ligand_efficiency_ln>  (390) 
-1.0244

>  <r_i_glide_gscore>  (390) 
-3.79852

>  <r_i_glide_lipo>  (390) 
-0.415237

>  <r_i_glide_hbond>  (390) 
-0.00880166

>  <r_i_glide_metal>  (390) 
-0

>  <r_i_glide_rewards>  (390) 
-2.46949

>  <r_i_glide_evdw>  (390) 
-26.9559

>  <r_i_glide_ecoul>  (390) 
0.61811

>  <r_i_glide_erotb>  (390) 
0.350092

>  <r_i_glide_esite>  (390) 
0

>  <r_i_glide_emodel>  (390) 
-31.0562

>  <r_i_glide_energy>  (390) 
-26.3378

>  <r_i_glide_einternal>  (390) 
3.73009

>  <r_i_glide_intrahb_reward>  (390) 
-0

>  <i_i_glide_confnum>  (390) 
3

>  <i_i_glide_posenum>  (390) 
8

>  <r_i_glide_eff_state_penalty>  (390) 
0

>  <ligand_id>  (390) 
100

>  <original_smiles>  (390) 
O=c1ncnc2c(-c3nccs3)c[nH]n12

>  <smiles>  (390) 
[H]c1nc(-c2c([H])nn3c(=O)n([H])c([H])nc23)sc1[H]

$$$$
100:1:1
     RDKit          3D

 20 22  0  0  1  0  0  0  0  0999 V2000
    6.1986   -1.4406   -0.6932 O   0  0  0  0  0  0  0  0  0  0  0  0
    5.1714   -1.8426   -0.1474 C   0  0  0  0  0  0  0  0  0  0  0  0
    4.1855   -1.0586    0.3306 N   0  0  0  0  0  0  0  0  0  0  0  0
    3.0267   -1.5869    0.9357 C   0  0  0  0  0  0  0  0  0  0  0  0
    2.8011   -2.8631    1.1128 N   0  0  0  0  0  0  0  0  0  0  0  0
    3.8068   -3.6870    0.6307 C   0  0  0  0  0  0  0  0  0  0  0  0
    3.8717   -5.0513    0.6691 C   0  0  0  0  0  0  0  0  0  0  0  0
    2.9109   -6.0255    1.1820 C   0  0  0  0  0  0  0  0  0  0  0  0
    1.5873   -5.8487    1.2927 N   0  0  0  0  0  0  0  0  0  0  0  0
    0.9284   -6.9600    1.8192 C   0  0  0  0  0  0  0  0  0  0  0  0
    1.7665   -8.0123    2.0765 C   0  0  0  0  0  0  0  0  0  0  0  0
    3.4217   -7.6361    1.6844 S   0  0  0  0  0  0  0  0  0  0  0  0
    5.1287   -5.3472    0.0609 C   0  0  0  0  0  0  0  0  0  0  0  0
    5.7856   -4.2538   -0.3178 N   0  0  0  0  0  0  0  0  0  0  0  0
    4.9599   -3.2457    0.0274 N   0  0  0  0  0  0  0  0  0  0  0  0
    2.3222   -0.8110    1.2467 H   0  0  0  0  0  0  0  0  0  0  0  0
   -0.1395   -6.9088    1.9740 H   0  0  0  0  0  0  0  0  0  0  0  0
    1.5061   -8.9857    2.4681 H   0  0  0  0  0  0  0  0  0  0  0  0
    5.5676   -6.3130   -0.1313 H   0  0  0  0  0  0  0  0  0  0  0  0
    4.2779   -0.0584    0.2234 H   0  0  0  0  0  0  0  0  0  0  0  0
  1  2  2  0
  2 15  1  0
  2  3  1  0
  3  4  1  0
  3 20  1  0
  4  5  2  0
  4 16  1  0
  5  6  1  0
  6 15  1  0
  6  7  2  0
  7  8  1  0
  7 13  1  0
  8 12  1  0
  8  9  2  0
  9 10  1  0
 10 11  2  0
 10 17  1  0
 11 12  1  0
 11 18  1  0
 13 14  2  0
 13 19  1  0
 14 15  1  0
M  END
>  <i_m_ct_stereo_status>  (391) 
1

>  <s_m_source_file>  (391) 
/var/tmp/pbs.5076255.sched01/tmpg0s73j8k/135j_ekwz2c.sdf

>  <i_m_source_file_index>  (391) 
24

>  <i_lp_mmshare_version>  (391) 
48012

>  <i_f3d_flags>  (391) 
0

>  <s_epik_input>  (391) 
bjFbY0hdbmMoPU8pbihjMTIpW25IXVtjSF1jMi1jM25bY0hdW2NIXXMz

>  <s_epik_cmdline>  (391) 
J2VwaWtfcHl0aG9uJywgJy1waHQnLCAnMi4wJywgJy1waCcsICc3LjAnLCAnLXRuJywgJzgnLCAnLW1hJywgJzIwMCcsICctaW1hZScsICc8aW5maWxlLm1hZT4nLCAnLW9tYWUnLCAnPG91dGZpbGUubWFlPic=

>  <r_epik_Ionization_Penalty>  (391) 
2.31714

>  <r_epik_Ionization_Penalty_Charging>  (391) 
2.31713

>  <r_epik_Ionization_Penalty_Neutral>  (391) 
8.81948e-06

>  <r_epik_State_Penalty>  (391) 
2.47803

>  <r_epik_Charging_Adjusted_Penalty>  (391) 
4.79516

>  <i_epik_Tot_Q>  (391) 
0

>  <i_epik_Tot_abs_Q>  (391) 
0

>  <s_lp_Force_Field>  (391) 
OPLS3e

>  <r_lp_Energy>  (391) 
18.8255

>  <b_lp_Chiralities_Consistent>  (391) 
1

>  <s_lp_Variant>  (391) 
100:0-2

>  <s_i_glide_gridfile>  (391) 
pfpi4k_grid

>  <i_i_glide_lignum>  (391) 
24

>  <i_i_glide_rotatable_bonds>  (391) 
1

>  <r_i_docking_score>  (391) 
-3.63436

>  <r_i_glide_ligand_efficiency>  (391) 
-0.242291

>  <r_i_glide_ligand_efficiency_sa>  (391) 
-0.597541

>  <r_i_glide_ligand_efficiency_ln>  (391) 
-0.980128

>  <r_i_glide_gscore>  (391) 
-3.63436

>  <r_i_glide_lipo>  (391) 
-0.0749632

>  <r_i_glide_hbond>  (391) 
-0.215314

>  <r_i_glide_metal>  (391) 
-0

>  <r_i_glide_rewards>  (391) 
-1.96784

>  <r_i_glide_evdw>  (391) 
-18.5026

>  <r_i_glide_ecoul>  (391) 
-4.89999

>  <r_i_glide_erotb>  (391) 
0.350092

>  <r_i_glide_esite>  (391) 
-0.0662116

>  <r_i_glide_emodel>  (391) 
-29.4068

>  <r_i_glide_energy>  (391) 
-23.4026

>  <r_i_glide_einternal>  (391) 
0.588505

>  <r_i_glide_intrahb_reward>  (391) 
-0

>  <i_i_glide_confnum>  (391) 
1

>  <i_i_glide_posenum>  (391) 
1

>  <r_i_glide_eff_state_penalty>  (391) 
0

>  <ligand_id>  (391) 
100

>  <original_smiles>  (391) 
O=c1ncnc2c(-c3nccs3)c[nH]n12

>  <smiles>  (391) 
[H]c1nc(-c2c([H])nn3c(=O)n([H])c([H])nc23)sc1[H]

$$$$
100:1:2
     RDKit          3D

 20 22  0  0  1  0  0  0  0  0999 V2000
    5.5946   -4.1911    2.7591 O   0  0  0  0  0  0  0  0  0  0  0  0
    5.3193   -3.1783    2.1263 C   0  0  0  0  0  0  0  0  0  0  0  0
    5.2552   -1.9399    2.6475 N   0  0  0  0  0  0  0  0  0  0  0  0
    4.9266   -0.8108    1.8768 C   0  0  0  0  0  0  0  0  0  0  0  0
    4.6614   -0.8453    0.5963 N   0  0  0  0  0  0  0  0  0  0  0  0
    4.7180   -2.1164    0.0375 C   0  0  0  0  0  0  0  0  0  0  0  0
    4.4801   -2.4945   -1.2563 C   0  0  0  0  0  0  0  0  0  0  0  0
    4.1156   -1.6862   -2.4114 C   0  0  0  0  0  0  0  0  0  0  0  0
    4.2565   -0.3647   -2.5030 N   0  0  0  0  0  0  0  0  0  0  0  0
    3.8141    0.1495   -3.7171 C   0  0  0  0  0  0  0  0  0  0  0  0
    3.4138   -0.8156   -4.5991 C   0  0  0  0  0  0  0  0  0  0  0  0
    3.4923   -2.4065   -3.8937 S   0  0  0  0  0  0  0  0  0  0  0  0
    4.6879   -3.9053   -1.2499 C   0  0  0  0  0  0  0  0  0  0  0  0
    5.0289   -4.3658   -0.0473 N   0  0  0  0  0  0  0  0  0  0  0  0
    5.0345   -3.2621    0.7304 N   0  0  0  0  0  0  0  0  0  0  0  0
    4.9151    0.1134    2.4621 H   0  0  0  0  0  0  0  0  0  0  0  0
    3.8399    1.2190   -3.8787 H   0  0  0  0  0  0  0  0  0  0  0  0
    3.0203   -0.6555   -5.5873 H   0  0  0  0  0  0  0  0  0  0  0  0
    4.6151   -4.5981   -2.0769 H   0  0  0  0  0  0  0  0  0  0  0  0
    5.4514   -1.8367    3.6305 H   0  0  0  0  0  0  0  0  0  0  0  0
  1  2  2  0
  2 15  1  0
  2  3  1  0
  3  4  1  0
  3 20  1  0
  4  5  2  0
  4 16  1  0
  5  6  1  0
  6 15  1  0
  6  7  2  0
  7  8  1  0
  7 13  1  0
  8 12  1  0
  8  9  2  0
  9 10  1  0
 10 11  2  0
 10 17  1  0
 11 12  1  0
 11 18  1  0
 13 14  2  0
 13 19  1  0
 14 15  1  0
M  END
>  <i_m_ct_stereo_status>  (392) 
1

>  <s_m_source_file>  (392) 
/var/tmp/pbs.5076255.sched01/tmpg0s73j8k/135j_ekwz2c.sdf

>  <i_m_source_file_index>  (392) 
24

>  <i_lp_mmshare_version>  (392) 
48012

>  <i_f3d_flags>  (392) 
0

>  <s_epik_input>  (392) 
bjFbY0hdbmMoPU8pbihjMTIpW25IXVtjSF1jMi1jM25bY0hdW2NIXXMz

>  <s_epik_cmdline>  (392) 
J2VwaWtfcHl0aG9uJywgJy1waHQnLCAnMi4wJywgJy1waCcsICc3LjAnLCAnLXRuJywgJzgnLCAnLW1hJywgJzIwMCcsICctaW1hZScsICc8aW5maWxlLm1hZT4nLCAnLW9tYWUnLCAnPG91dGZpbGUubWFlPic=

>  <r_epik_Ionization_Penalty>  (392) 
2.31714

>  <r_epik_Ionization_Penalty_Charging>  (392) 
2.31713

>  <r_epik_Ionization_Penalty_Neutral>  (392) 
8.81948e-06

>  <r_epik_State_Penalty>  (392) 
2.47803

>  <r_epik_Charging_Adjusted_Penalty>  (392) 
4.79516

>  <i_epik_Tot_Q>  (392) 
0

>  <i_epik_Tot_abs_Q>  (392) 
0

>  <s_lp_Force_Field>  (392) 
OPLS3e

>  <r_lp_Energy>  (392) 
18.8255

>  <b_lp_Chiralities_Consistent>  (392) 
1

>  <s_lp_Variant>  (392) 
100:0-2

>  <s_i_glide_gridfile>  (392) 
pfpi4k_grid

>  <i_i_glide_lignum>  (392) 
24

>  <i_i_glide_rotatable_bonds>  (392) 
1

>  <r_i_docking_score>  (392) 
-3.37689

>  <r_i_glide_ligand_efficiency>  (392) 
-0.225126

>  <r_i_glide_ligand_efficiency_sa>  (392) 
-0.555208

>  <r_i_glide_ligand_efficiency_ln>  (392) 
-0.910691

>  <r_i_glide_gscore>  (392) 
-3.37689

>  <r_i_glide_lipo>  (392) 
-0.217826

>  <r_i_glide_hbond>  (392) 
0

>  <r_i_glide_metal>  (392) 
-0

>  <r_i_glide_rewards>  (392) 
-2.17687

>  <r_i_glide_evdw>  (392) 
-23.0159

>  <r_i_glide_ecoul>  (392) 
-1.16663

>  <r_i_glide_erotb>  (392) 
0.350092

>  <r_i_glide_esite>  (392) 
-0.00650195

>  <r_i_glide_emodel>  (392) 
-29.9559

>  <r_i_glide_energy>  (392) 
-24.1825

>  <r_i_glide_einternal>  (392) 
0.239888

>  <r_i_glide_intrahb_reward>  (392) 
-0

>  <i_i_glide_confnum>  (392) 
1

>  <i_i_glide_posenum>  (392) 
5

>  <r_i_glide_eff_state_penalty>  (392) 
0

>  <ligand_id>  (392) 
100

>  <original_smiles>  (392) 
O=c1ncnc2c(-c3nccs3)c[nH]n12

>  <smiles>  (392) 
[H]c1nc(-c2c([H])nn3c(=O)n([H])c([H])nc23)sc1[H]

$$$$
100:2:0
     RDKit          3D

 20 22  0  0  1  0  0  0  0  0999 V2000
    7.5516   -5.1923    2.0471 O   0  0  0  0  0  0  0  0  0  0  0  0
    6.6237   -5.2149    1.2387 C   0  0  0  0  0  0  0  0  0  0  0  0
    5.7783   -6.3111    1.0096 N   0  0  0  0  0  0  0  0  0  0  0  0
    4.8419   -6.2013    0.1112 C   0  0  0  0  0  0  0  0  0  0  0  0
    4.6162   -5.0585   -0.6379 N   0  0  0  0  0  0  0  0  0  0  0  0
    5.3961   -3.9235   -0.4770 C   0  0  0  0  0  0  0  0  0  0  0  0
    5.4626   -2.6739   -1.0155 C   0  0  0  0  0  0  0  0  0  0  0  0
    4.6387   -2.0647   -2.0528 C   0  0  0  0  0  0  0  0  0  0  0  0
    4.6337   -0.7568   -2.3196 N   0  0  0  0  0  0  0  0  0  0  0  0
    3.7709   -0.4210   -3.3591 C   0  0  0  0  0  0  0  0  0  0  0  0
    3.1329   -1.5046   -3.9015 C   0  0  0  0  0  0  0  0  0  0  0  0
    3.5779   -2.9886   -3.1173 S   0  0  0  0  0  0  0  0  0  0  0  0
    6.5208   -2.0405   -0.3079 C   0  0  0  0  0  0  0  0  0  0  0  0
    7.1013   -2.8512    0.5628 N   0  0  0  0  0  0  0  0  0  0  0  0
    6.4006   -4.0042    0.4654 N   0  0  0  0  0  0  0  0  0  0  0  0
    4.1934   -7.0485   -0.1304 H   0  0  0  0  0  0  0  0  0  0  0  0
    3.6614    0.6200   -3.6337 H   0  0  0  0  0  0  0  0  0  0  0  0
    2.4035   -1.5085   -4.6958 H   0  0  0  0  0  0  0  0  0  0  0  0
    6.8901   -1.0344   -0.3913 H   0  0  0  0  0  0  0  0  0  0  0  0
    3.9103   -5.0730   -1.3719 H   0  0  0  0  0  0  0  0  0  0  0  0
  1  2  2  0
  2 15  1  0
  2  3  1  0
  3  4  2  0
  4  5  1  0
  4 16  1  0
  5  6  1  0
  5 20  1  0
  6 15  1  0
  6  7  2  0
  7  8  1  0
  7 13  1  0
  8 12  1  0
  8  9  2  0
  9 10  1  0
 10 11  2  0
 10 17  1  0
 11 12  1  0
 11 18  1  0
 13 14  2  0
 13 19  1  0
 14 15  1  0
M  END
>  <i_m_ct_stereo_status>  (393) 
1

>  <s_m_source_file>  (393) 
/var/tmp/pbs.5076255.sched01/tmpg0s73j8k/135j_ekwz2c.sdf

>  <i_m_source_file_index>  (393) 
25

>  <i_lp_mmshare_version>  (393) 
48012

>  <i_f3d_flags>  (393) 
0

>  <s_epik_input>  (393) 
bjFbY0hdbmMoPU8pbihjMTIpW25IXVtjSF1jMi1jM25bY0hdW2NIXXMz

>  <s_epik_cmdline>  (393) 
J2VwaWtfcHl0aG9uJywgJy1waHQnLCAnMi4wJywgJy1waCcsICc3LjAnLCAnLXRuJywgJzgnLCAnLW1hJywgJzIwMCcsICctaW1hZScsICc8aW5maWxlLm1hZT4nLCAnLW9tYWUnLCAnPG91dGZpbGUubWFlPic=

>  <r_epik_Ionization_Penalty>  (393) 
2.32385

>  <r_epik_Ionization_Penalty_Charging>  (393) 
2.32384

>  <r_epik_Ionization_Penalty_Neutral>  (393) 
8.81864e-06

>  <r_epik_State_Penalty>  (393) 
2.48533

>  <r_epik_Charging_Adjusted_Penalty>  (393) 
4.80917

>  <i_epik_Tot_Q>  (393) 
0

>  <i_epik_Tot_abs_Q>  (393) 
0

>  <s_lp_Force_Field>  (393) 
OPLS3e

>  <r_lp_Energy>  (393) 
18.3153

>  <b_lp_Chiralities_Consistent>  (393) 
1

>  <s_lp_Variant>  (393) 
100:0-3

>  <s_i_glide_gridfile>  (393) 
pfpi4k_grid

>  <i_i_glide_lignum>  (393) 
25

>  <i_i_glide_rotatable_bonds>  (393) 
1

>  <r_i_docking_score>  (393) 
-4.61523

>  <r_i_glide_ligand_efficiency>  (393) 
-0.307682

>  <r_i_glide_ligand_efficiency_sa>  (393) 
-0.758809

>  <r_i_glide_ligand_efficiency_ln>  (393) 
-1.24465

>  <r_i_glide_gscore>  (393) 
-4.61523

>  <r_i_glide_lipo>  (393) 
-0.393516

>  <r_i_glide_hbond>  (393) 
-0.293739

>  <r_i_glide_metal>  (393) 
-0

>  <r_i_glide_rewards>  (393) 
-2.39143

>  <r_i_glide_evdw>  (393) 
-22.8358

>  <r_i_glide_ecoul>  (393) 
-4.73482

>  <r_i_glide_erotb>  (393) 
0.350092

>  <r_i_glide_esite>  (393) 
-0.0346253

>  <r_i_glide_emodel>  (393) 
-34.8704

>  <r_i_glide_energy>  (393) 
-27.5707

>  <r_i_glide_einternal>  (393) 
0.251077

>  <r_i_glide_intrahb_reward>  (393) 
-0

>  <i_i_glide_confnum>  (393) 
2

>  <i_i_glide_posenum>  (393) 
1

>  <r_i_glide_eff_state_penalty>  (393) 
0

>  <ligand_id>  (393) 
100

>  <original_smiles>  (393) 
O=c1ncnc2c(-c3nccs3)c[nH]n12

>  <smiles>  (393) 
[H]c1nc(-c2c([H])nn3c(=O)nc([H])n([H])c23)sc1[H]

$$$$
100:2:1
     RDKit          3D

 20 22  0  0  1  0  0  0  0  0999 V2000
    5.7315   -4.2638    2.9094 O   0  0  0  0  0  0  0  0  0  0  0  0
    5.0245   -4.3311    1.9061 C   0  0  0  0  0  0  0  0  0  0  0  0
    4.1784   -5.4080    1.5900 N   0  0  0  0  0  0  0  0  0  0  0  0
    3.4798   -5.3468    0.4925 C   0  0  0  0  0  0  0  0  0  0  0  0
    3.5089   -4.2714   -0.3834 N   0  0  0  0  0  0  0  0  0  0  0  0
    4.3252   -3.1751   -0.1583 C   0  0  0  0  0  0  0  0  0  0  0  0
    4.6144   -2.0037   -0.7937 C   0  0  0  0  0  0  0  0  0  0  0  0
    4.1064   -1.4850   -2.0517 C   0  0  0  0  0  0  0  0  0  0  0  0
    4.4459   -0.2960   -2.5452 N   0  0  0  0  0  0  0  0  0  0  0  0
    3.8108    0.0025   -3.7468 C   0  0  0  0  0  0  0  0  0  0  0  0
    3.0326   -1.0252   -4.2028 C   0  0  0  0  0  0  0  0  0  0  0  0
    3.0160   -2.3797   -3.1113 S   0  0  0  0  0  0  0  0  0  0  0  0
    5.5505   -1.3525    0.0629 C   0  0  0  0  0  0  0  0  0  0  0  0
    5.8408   -2.0845    1.1307 N   0  0  0  0  0  0  0  0  0  0  0  0
    5.0838   -3.2011    0.9910 N   0  0  0  0  0  0  0  0  0  0  0  0
    2.8184   -6.1672    0.1958 H   0  0  0  0  0  0  0  0  0  0  0  0
    3.9746    0.9682   -4.2080 H   0  0  0  0  0  0  0  0  0  0  0  0
    2.4441   -1.0428   -5.0986 H   0  0  0  0  0  0  0  0  0  0  0  0
    6.0300   -0.3895   -0.0596 H   0  0  0  0  0  0  0  0  0  0  0  0
    2.9985   -4.3186   -1.2546 H   0  0  0  0  0  0  0  0  0  0  0  0
  1  2  2  0
  2 15  1  0
  2  3  1  0
  3  4  2  0
  4  5  1  0
  4 16  1  0
  5  6  1  0
  5 20  1  0
  6 15  1  0
  6  7  2  0
  7  8  1  0
  7 13  1  0
  8 12  1  0
  8  9  2  0
  9 10  1  0
 10 11  2  0
 10 17  1  0
 11 12  1  0
 11 18  1  0
 13 14  2  0
 13 19  1  0
 14 15  1  0
M  END
>  <i_m_ct_stereo_status>  (394) 
1

>  <s_m_source_file>  (394) 
/var/tmp/pbs.5076255.sched01/tmpg0s73j8k/135j_ekwz2c.sdf

>  <i_m_source_file_index>  (394) 
25

>  <i_lp_mmshare_version>  (394) 
48012

>  <i_f3d_flags>  (394) 
0

>  <s_epik_input>  (394) 
bjFbY0hdbmMoPU8pbihjMTIpW25IXVtjSF1jMi1jM25bY0hdW2NIXXMz

>  <s_epik_cmdline>  (394) 
J2VwaWtfcHl0aG9uJywgJy1waHQnLCAnMi4wJywgJy1waCcsICc3LjAnLCAnLXRuJywgJzgnLCAnLW1hJywgJzIwMCcsICctaW1hZScsICc8aW5maWxlLm1hZT4nLCAnLW9tYWUnLCAnPG91dGZpbGUubWFlPic=

>  <r_epik_Ionization_Penalty>  (394) 
2.32385

>  <r_epik_Ionization_Penalty_Charging>  (394) 
2.32384

>  <r_epik_Ionization_Penalty_Neutral>  (394) 
8.81864e-06

>  <r_epik_State_Penalty>  (394) 
2.48533

>  <r_epik_Charging_Adjusted_Penalty>  (394) 
4.80917

>  <i_epik_Tot_Q>  (394) 
0

>  <i_epik_Tot_abs_Q>  (394) 
0

>  <s_lp_Force_Field>  (394) 
OPLS3e

>  <r_lp_Energy>  (394) 
18.3153

>  <b_lp_Chiralities_Consistent>  (394) 
1

>  <s_lp_Variant>  (394) 
100:0-3

>  <s_i_glide_gridfile>  (394) 
pfpi4k_grid

>  <i_i_glide_lignum>  (394) 
25

>  <i_i_glide_rotatable_bonds>  (394) 
1

>  <r_i_docking_score>  (394) 
-3.66234

>  <r_i_glide_ligand_efficiency>  (394) 
-0.244156

>  <r_i_glide_ligand_efficiency_sa>  (394) 
-0.60214

>  <r_i_glide_ligand_efficiency_ln>  (394) 
-0.987672

>  <r_i_glide_gscore>  (394) 
-3.66234

>  <r_i_glide_lipo>  (394) 
-0.253359

>  <r_i_glide_hbond>  (394) 
-0.0741826

>  <r_i_glide_metal>  (394) 
-0

>  <r_i_glide_rewards>  (394) 
-2.03183

>  <r_i_glide_evdw>  (394) 
-20.6595

>  <r_i_glide_ecoul>  (394) 
-3.86289

>  <r_i_glide_erotb>  (394) 
0.350092

>  <r_i_glide_esite>  (394) 
-0.0406456

>  <r_i_glide_emodel>  (394) 
-30.3774

>  <r_i_glide_energy>  (394) 
-24.5224

>  <r_i_glide_einternal>  (394) 
0.106056

>  <r_i_glide_intrahb_reward>  (394) 
-0

>  <i_i_glide_confnum>  (394) 
4

>  <i_i_glide_posenum>  (394) 
7

>  <r_i_glide_eff_state_penalty>  (394) 
0

>  <ligand_id>  (394) 
100

>  <original_smiles>  (394) 
O=c1ncnc2c(-c3nccs3)c[nH]n12

>  <smiles>  (394) 
[H]c1nc(-c2c([H])nn3c(=O)nc([H])n([H])c23)sc1[H]

$$$$
100:2:2
     RDKit          3D

 20 22  0  0  1  0  0  0  0  0999 V2000
    5.4077   -4.0036    2.7826 O   0  0  0  0  0  0  0  0  0  0  0  0
    5.1338   -2.9585    2.1963 C   0  0  0  0  0  0  0  0  0  0  0  0
    5.0407   -1.6924    2.8050 N   0  0  0  0  0  0  0  0  0  0  0  0
    4.7464   -0.6653    2.0642 C   0  0  0  0  0  0  0  0  0  0  0  0
    4.5202   -0.7396    0.6932 N   0  0  0  0  0  0  0  0  0  0  0  0
    4.5783   -1.9547    0.0146 C   0  0  0  0  0  0  0  0  0  0  0  0
    4.4025   -2.3961   -1.2667 C   0  0  0  0  0  0  0  0  0  0  0  0
    4.0655   -1.6223   -2.4492 C   0  0  0  0  0  0  0  0  0  0  0  0
    4.2314   -0.3033   -2.5678 N   0  0  0  0  0  0  0  0  0  0  0  0
    3.8175    0.1819   -3.8047 C   0  0  0  0  0  0  0  0  0  0  0  0
    3.3998   -0.7940   -4.6577 C   0  0  0  0  0  0  0  0  0  0  0  0
    3.4266   -2.3695   -3.9085 S   0  0  0  0  0  0  0  0  0  0  0  0
    4.6365   -3.7978   -1.2104 C   0  0  0  0  0  0  0  0  0  0  0  0
    4.9401   -4.1970    0.0219 N   0  0  0  0  0  0  0  0  0  0  0  0
    4.8923   -3.0634    0.7677 N   0  0  0  0  0  0  0  0  0  0  0  0
    4.6565    0.3353    2.4991 H   0  0  0  0  0  0  0  0  0  0  0  0
    3.8754    1.2451   -3.9959 H   0  0  0  0  0  0  0  0  0  0  0  0
    3.0177   -0.6588   -5.6556 H   0  0  0  0  0  0  0  0  0  0  0  0
    4.6142   -4.5273   -2.0112 H   0  0  0  0  0  0  0  0  0  0  0  0
    4.2804    0.0759    0.1501 H   0  0  0  0  0  0  0  0  0  0  0  0
  1  2  2  0
  2 15  1  0
  2  3  1  0
  3  4  2  0
  4  5  1  0
  4 16  1  0
  5  6  1  0
  5 20  1  0
  6 15  1  0
  6  7  2  0
  7  8  1  0
  7 13  1  0
  8 12  1  0
  8  9  2  0
  9 10  1  0
 10 11  2  0
 10 17  1  0
 11 12  1  0
 11 18  1  0
 13 14  2  0
 13 19  1  0
 14 15  1  0
M  END
>  <i_m_ct_stereo_status>  (395) 
1

>  <s_m_source_file>  (395) 
/var/tmp/pbs.5076255.sched01/tmpg0s73j8k/135j_ekwz2c.sdf

>  <i_m_source_file_index>  (395) 
25

>  <i_lp_mmshare_version>  (395) 
48012

>  <i_f3d_flags>  (395) 
0

>  <s_epik_input>  (395) 
bjFbY0hdbmMoPU8pbihjMTIpW25IXVtjSF1jMi1jM25bY0hdW2NIXXMz

>  <s_epik_cmdline>  (395) 
J2VwaWtfcHl0aG9uJywgJy1waHQnLCAnMi4wJywgJy1waCcsICc3LjAnLCAnLXRuJywgJzgnLCAnLW1hJywgJzIwMCcsICctaW1hZScsICc8aW5maWxlLm1hZT4nLCAnLW9tYWUnLCAnPG91dGZpbGUubWFlPic=

>  <r_epik_Ionization_Penalty>  (395) 
2.32385

>  <r_epik_Ionization_Penalty_Charging>  (395) 
2.32384

>  <r_epik_Ionization_Penalty_Neutral>  (395) 
8.81864e-06

>  <r_epik_State_Penalty>  (395) 
2.48533

>  <r_epik_Charging_Adjusted_Penalty>  (395) 
4.80917

>  <i_epik_Tot_Q>  (395) 
0

>  <i_epik_Tot_abs_Q>  (395) 
0

>  <s_lp_Force_Field>  (395) 
OPLS3e

>  <r_lp_Energy>  (395) 
18.3153

>  <b_lp_Chiralities_Consistent>  (395) 
1

>  <s_lp_Variant>  (395) 
100:0-3

>  <s_i_glide_gridfile>  (395) 
pfpi4k_grid

>  <i_i_glide_lignum>  (395) 
25

>  <i_i_glide_rotatable_bonds>  (395) 
1

>  <r_i_docking_score>  (395) 
-3.53829

>  <r_i_glide_ligand_efficiency>  (395) 
-0.235886

>  <r_i_glide_ligand_efficiency_sa>  (395) 
-0.581745

>  <r_i_glide_ligand_efficiency_ln>  (395) 
-0.954219

>  <r_i_glide_gscore>  (395) 
-3.53829

>  <r_i_glide_lipo>  (395) 
-0.2233

>  <r_i_glide_hbond>  (395) 
0

>  <r_i_glide_metal>  (395) 
-0

>  <r_i_glide_rewards>  (395) 
-2.16748

>  <r_i_glide_evdw>  (395) 
-23.2197

>  <r_i_glide_ecoul>  (395) 
-2.16916

>  <r_i_glide_erotb>  (395) 
0.350092

>  <r_i_glide_esite>  (395) 
-0.0112449

>  <r_i_glide_emodel>  (395) 
-30.9069

>  <r_i_glide_energy>  (395) 
-25.3888

>  <r_i_glide_einternal>  (395) 
0.377647

>  <r_i_glide_intrahb_reward>  (395) 
-0

>  <i_i_glide_confnum>  (395) 
1

>  <i_i_glide_posenum>  (395) 
13

>  <r_i_glide_eff_state_penalty>  (395) 
0

>  <ligand_id>  (395) 
100

>  <original_smiles>  (395) 
O=c1ncnc2c(-c3nccs3)c[nH]n12

>  <smiles>  (395) 
[H]c1nc(-c2c([H])nn3c(=O)nc([H])n([H])c23)sc1[H]

$$$$
101:0:0
     RDKit          3D

 25 27  0  0  1  0  0  0  0  0999 V2000
    4.4364   -2.7895    2.7788 C   0  0  0  0  0  0  0  0  0  0  0  0
    4.6291   -4.2349    2.2829 C   0  0  2  0  0  0  0  0  0  0  0  0
    5.7637   -4.3883    1.2522 C   0  0  0  0  0  0  0  0  0  0  0  0
    5.3803   -3.8460   -0.1098 C   0  0  0  0  0  0  0  0  0  0  0  0
    6.3851   -3.4496   -1.0286 C   0  0  0  0  0  0  0  0  0  0  0  0
    6.0381   -2.9896   -2.2787 C   0  0  0  0  0  0  0  0  0  0  0  0
    4.7212   -2.9049   -2.6094 N   0  0  0  0  0  0  0  0  0  0  0  0
    4.2060   -2.4662   -3.7924 N   0  0  0  0  0  0  0  0  0  0  0  0
    2.9035   -2.5712   -3.5726 C   0  0  0  0  0  0  0  0  0  0  0  0
    2.5253   -3.0570   -2.3607 N   0  0  0  0  0  0  0  0  0  0  0  0
    3.6792   -3.2657   -1.7399 C   0  0  0  0  0  0  0  0  0  0  0  0
    4.0480   -3.7528   -0.4532 C   0  0  0  0  0  0  0  0  0  0  0  0
    2.9633   -4.1223    0.5464 C   0  0  0  0  0  0  0  0  0  0  0  0
    3.4386   -4.7769    1.7207 O   0  0  0  0  0  0  0  0  0  0  0  0
    5.3333   -2.4322    3.2857 H   0  0  0  0  0  0  0  0  0  0  0  0
    3.6105   -2.7322    3.4876 H   0  0  0  0  0  0  0  0  0  0  0  0
    4.2258   -2.0910    1.9664 H   0  0  0  0  0  0  0  0  0  0  0  0
    4.8795   -4.8458    3.1520 H   0  0  0  0  0  0  0  0  0  0  0  0
    6.6772   -3.9117    1.6067 H   0  0  0  0  0  0  0  0  0  0  0  0
    5.9857   -5.4477    1.1253 H   0  0  0  0  0  0  0  0  0  0  0  0
    7.4344   -3.5203   -0.7603 H   0  0  0  0  0  0  0  0  0  0  0  0
    6.7610   -2.6836   -3.0291 H   0  0  0  0  0  0  0  0  0  0  0  0
    2.1747   -2.2912   -4.3177 H   0  0  0  0  0  0  0  0  0  0  0  0
    2.4390   -3.2138    0.8337 H   0  0  0  0  0  0  0  0  0  0  0  0
    2.2347   -4.7679    0.0590 H   0  0  0  0  0  0  0  0  0  0  0  0
  1  2  1  0
  1 15  1  0
  1 16  1  0
  1 17  1  0
  2 14  1  0
  2  3  1  0
  2 18  1  1
  3  4  1  0
  3 19  1  0
  3 20  1  0
  4 12  2  0
  4  5  1  0
  5  6  2  0
  5 21  1  0
  6  7  1  0
  6 22  1  0
  7 11  1  0
  7  8  1  0
  8  9  2  0
  9 10  1  0
  9 23  1  0
 10 11  2  0
 11 12  1  0
 12 13  1  0
 13 14  1  0
 13 24  1  0
 13 25  1  0
M  END
>  <i_m_ct_stereo_status>  (396) 
1

>  <s_m_source_file>  (396) 
/var/tmp/pbs.5076255.sched01/tmpg0s73j8k/135j_ekwz2c.sdf

>  <i_m_source_file_index>  (396) 
26

>  <i_lp_mmshare_version>  (396) 
48012

>  <i_f3d_flags>  (396) 
0

>  <s_epik_input>  (396) 
W0NIM11bQ0BIXShbQ0gyXTEpT1tDSDJdYyhjMTIpYzNuKFtjSF1bY0hdMiluW2NIXW4z

>  <s_epik_cmdline>  (396) 
J2VwaWtfcHl0aG9uJywgJy1waHQnLCAnMi4wJywgJy1waCcsICc3LjAnLCAnLXRuJywgJzgnLCAnLW1hJywgJzIwMCcsICctaW1hZScsICc8aW5maWxlLm1hZT4nLCAnLW9tYWUnLCAnPG91dGZpbGUubWFlPic=

>  <r_epik_Ionization_Penalty>  (396) 
0.00764808

>  <r_epik_Ionization_Penalty_Charging>  (396) 
0

>  <r_epik_Ionization_Penalty_Neutral>  (396) 
0.00764808

>  <r_epik_State_Penalty>  (396) 
0.00572432

>  <r_epik_Charging_Adjusted_Penalty>  (396) 
0.00572432

>  <i_epik_Tot_Q>  (396) 
0

>  <i_epik_Tot_abs_Q>  (396) 
0

>  <s_lp_Force_Field>  (396) 
OPLS3e

>  <r_lp_Energy>  (396) 
19.8357

>  <b_lp_Chiralities_Consistent>  (396) 
1

>  <s_lp_Variant>  (396) 
101:0-1

>  <s_i_glide_gridfile>  (396) 
pfpi4k_grid

>  <i_i_glide_lignum>  (396) 
26

>  <i_i_glide_rotatable_bonds>  (396) 
0

>  <r_i_docking_score>  (396) 
-4.34624

>  <r_i_glide_ligand_efficiency>  (396) 
-0.310446

>  <r_i_glide_ligand_efficiency_sa>  (396) 
-0.748218

>  <r_i_glide_ligand_efficiency_ln>  (396) 
-1.19433

>  <r_i_glide_gscore>  (396) 
-4.34624

>  <r_i_glide_lipo>  (396) 
-0.425663

>  <r_i_glide_hbond>  (396) 
-0.0709483

>  <r_i_glide_metal>  (396) 
-0

>  <r_i_glide_rewards>  (396) 
-2.59898

>  <r_i_glide_evdw>  (396) 
-20.0594

>  <r_i_glide_ecoul>  (396) 
-1.62572

>  <r_i_glide_erotb>  (396) 
0

>  <r_i_glide_esite>  (396) 
-0.00382349

>  <r_i_glide_emodel>  (396) 
-27.6722

>  <r_i_glide_energy>  (396) 
-21.6851

>  <r_i_glide_einternal>  (396) 
0

>  <r_i_glide_intrahb_reward>  (396) 
-0

>  <i_i_glide_confnum>  (396) 
1

>  <i_i_glide_posenum>  (396) 
2

>  <r_i_glide_eff_state_penalty>  (396) 
0

>  <ligand_id>  (396) 
101

>  <original_smiles>  (396) 
CC1Cc2ccn3ncnc3c2CO1

>  <smiles>  (396) 
[H]c1nc2c3c(c([H])c([H])n2n1)C([H])([H])C([H])(C([H])([H])[H])OC3([H])[H]

$$$$
101:0:1
     RDKit          3D

 25 27  0  0  1  0  0  0  0  0999 V2000
    5.1210   -3.4464   -2.7431 C   0  0  0  0  0  0  0  0  0  0  0  0
    5.1681   -2.7003   -1.3958 C   0  0  2  0  0  0  0  0  0  0  0  0
    5.8554   -3.4924   -0.2710 C   0  0  0  0  0  0  0  0  0  0  0  0
    4.9865   -4.6183    0.2610 C   0  0  0  0  0  0  0  0  0  0  0  0
    5.5846   -5.7246    0.9183 C   0  0  0  0  0  0  0  0  0  0  0  0
    4.7998   -6.7427    1.4110 C   0  0  0  0  0  0  0  0  0  0  0  0
    3.4487   -6.6657    1.2587 N   0  0  0  0  0  0  0  0  0  0  0  0
    2.5411   -7.5779    1.6929 N   0  0  0  0  0  0  0  0  0  0  0  0
    1.3944   -7.0522    1.2856 C   0  0  0  0  0  0  0  0  0  0  0  0
    1.4785   -5.8607    0.6251 N   0  0  0  0  0  0  0  0  0  0  0  0
    2.7918   -5.6075    0.6113 C   0  0  0  0  0  0  0  0  0  0  0  0
    3.6148   -4.5569    0.1078 C   0  0  0  0  0  0  0  0  0  0  0  0
    2.9847   -3.3982   -0.6554 C   0  0  0  0  0  0  0  0  0  0  0  0
    3.8753   -2.3224   -0.9398 O   0  0  0  0  0  0  0  0  0  0  0  0
    6.1290   -3.6396   -3.1112 H   0  0  0  0  0  0  0  0  0  0  0  0
    4.5996   -2.8563   -3.4968 H   0  0  0  0  0  0  0  0  0  0  0  0
    4.6156   -4.4085   -2.6675 H   0  0  0  0  0  0  0  0  0  0  0  0
    5.7304   -1.7797   -1.5553 H   0  0  0  0  0  0  0  0  0  0  0  0
    6.8217   -3.8749   -0.5992 H   0  0  0  0  0  0  0  0  0  0  0  0
    6.0527   -2.8204    0.5657 H   0  0  0  0  0  0  0  0  0  0  0  0
    6.6642   -5.7792    1.0345 H   0  0  0  0  0  0  0  0  0  0  0  0
    5.1955   -7.6169    1.9177 H   0  0  0  0  0  0  0  0  0  0  0  0
    0.4564   -7.5510    1.4813 H   0  0  0  0  0  0  0  0  0  0  0  0
    2.5702   -3.7808   -1.5863 H   0  0  0  0  0  0  0  0  0  0  0  0
    2.1508   -3.0086   -0.0746 H   0  0  0  0  0  0  0  0  0  0  0  0
  1  2  1  0
  1 15  1  0
  1 16  1  0
  1 17  1  0
  2 14  1  0
  2  3  1  0
  2 18  1  6
  3  4  1  0
  3 19  1  0
  3 20  1  0
  4 12  2  0
  4  5  1  0
  5  6  2  0
  5 21  1  0
  6  7  1  0
  6 22  1  0
  7 11  1  0
  7  8  1  0
  8  9  2  0
  9 10  1  0
  9 23  1  0
 10 11  2  0
 11 12  1  0
 12 13  1  0
 13 14  1  0
 13 24  1  0
 13 25  1  0
M  END
>  <i_m_ct_stereo_status>  (397) 
1

>  <s_m_source_file>  (397) 
/var/tmp/pbs.5076255.sched01/tmpg0s73j8k/135j_ekwz2c.sdf

>  <i_m_source_file_index>  (397) 
26

>  <i_lp_mmshare_version>  (397) 
48012

>  <i_f3d_flags>  (397) 
0

>  <s_epik_input>  (397) 
W0NIM11bQ0BIXShbQ0gyXTEpT1tDSDJdYyhjMTIpYzNuKFtjSF1bY0hdMiluW2NIXW4z

>  <s_epik_cmdline>  (397) 
J2VwaWtfcHl0aG9uJywgJy1waHQnLCAnMi4wJywgJy1waCcsICc3LjAnLCAnLXRuJywgJzgnLCAnLW1hJywgJzIwMCcsICctaW1hZScsICc8aW5maWxlLm1hZT4nLCAnLW9tYWUnLCAnPG91dGZpbGUubWFlPic=

>  <r_epik_Ionization_Penalty>  (397) 
0.00764808

>  <r_epik_Ionization_Penalty_Charging>  (397) 
0

>  <r_epik_Ionization_Penalty_Neutral>  (397) 
0.00764808

>  <r_epik_State_Penalty>  (397) 
0.00572432

>  <r_epik_Charging_Adjusted_Penalty>  (397) 
0.00572432

>  <i_epik_Tot_Q>  (397) 
0

>  <i_epik_Tot_abs_Q>  (397) 
0

>  <s_lp_Force_Field>  (397) 
OPLS3e

>  <r_lp_Energy>  (397) 
19.8357

>  <b_lp_Chiralities_Consistent>  (397) 
1

>  <s_lp_Variant>  (397) 
101:0-1

>  <s_i_glide_gridfile>  (397) 
pfpi4k_grid

>  <i_i_glide_lignum>  (397) 
26

>  <i_i_glide_rotatable_bonds>  (397) 
0

>  <r_i_docking_score>  (397) 
-4.33429

>  <r_i_glide_ligand_efficiency>  (397) 
-0.309592

>  <r_i_glide_ligand_efficiency_sa>  (397) 
-0.746162

>  <r_i_glide_ligand_efficiency_ln>  (397) 
-1.19105

>  <r_i_glide_gscore>  (397) 
-4.33429

>  <r_i_glide_lipo>  (397) 
-0.515467

>  <r_i_glide_hbond>  (397) 
-0.153384

>  <r_i_glide_metal>  (397) 
-0

>  <r_i_glide_rewards>  (397) 
-2.20053

>  <r_i_glide_evdw>  (397) 
-18.612

>  <r_i_glide_ecoul>  (397) 
-3.03459

>  <r_i_glide_erotb>  (397) 
0

>  <r_i_glide_esite>  (397) 
-0.0791308

>  <r_i_glide_emodel>  (397) 
-27.615

>  <r_i_glide_energy>  (397) 
-21.6466

>  <r_i_glide_einternal>  (397) 
0

>  <r_i_glide_intrahb_reward>  (397) 
-0

>  <i_i_glide_confnum>  (397) 
2

>  <i_i_glide_posenum>  (397) 
1

>  <r_i_glide_eff_state_penalty>  (397) 
0

>  <ligand_id>  (397) 
101

>  <original_smiles>  (397) 
CC1Cc2ccn3ncnc3c2CO1

>  <smiles>  (397) 
[H]c1nc2c3c(c([H])c([H])n2n1)C([H])([H])C([H])(C([H])([H])[H])OC3([H])[H]

$$$$
101:0:2
     RDKit          3D

 25 27  0  0  1  0  0  0  0  0999 V2000
    4.6829   -3.1324   -3.3883 C   0  0  0  0  0  0  0  0  0  0  0  0
    4.0447   -2.0848   -2.4602 C   0  0  2  0  0  0  0  0  0  0  0  0
    4.6158   -2.0825   -1.0313 C   0  0  0  0  0  0  0  0  0  0  0  0
    4.1287   -3.2656   -0.2144 C   0  0  0  0  0  0  0  0  0  0  0  0
    4.8870   -3.7201    0.8965 C   0  0  0  0  0  0  0  0  0  0  0  0
    4.4464   -4.7894    1.6430 C   0  0  0  0  0  0  0  0  0  0  0  0
    3.2763   -5.3987    1.3005 N   0  0  0  0  0  0  0  0  0  0  0  0
    2.7000   -6.4505    1.9393 N   0  0  0  0  0  0  0  0  0  0  0  0
    1.6081   -6.6576    1.2147 C   0  0  0  0  0  0  0  0  0  0  0  0
    1.4181   -5.8142    0.1590 N   0  0  0  0  0  0  0  0  0  0  0  0
    2.4820   -5.0072    0.2106 C   0  0  0  0  0  0  0  0  0  0  0  0
    2.9460   -3.8965   -0.5539 C   0  0  0  0  0  0  0  0  0  0  0  0
    2.1722   -3.4557   -1.7938 C   0  0  0  0  0  0  0  0  0  0  0  0
    2.6354   -2.2449   -2.3907 O   0  0  0  0  0  0  0  0  0  0  0  0
    5.7482   -2.9388   -3.5159 H   0  0  0  0  0  0  0  0  0  0  0  0
    4.2141   -3.1021   -4.3708 H   0  0  0  0  0  0  0  0  0  0  0  0
    4.5818   -4.1493   -3.0048 H   0  0  0  0  0  0  0  0  0  0  0  0
    4.2281   -1.1021   -2.8956 H   0  0  0  0  0  0  0  0  0  0  0  0
    5.7066   -2.0536   -1.0511 H   0  0  0  0  0  0  0  0  0  0  0  0
    4.2857   -1.1782   -0.5160 H   0  0  0  0  0  0  0  0  0  0  0  0
    5.8213   -3.2320    1.1647 H   0  0  0  0  0  0  0  0  0  0  0  0
    4.9765   -5.1846    2.5033 H   0  0  0  0  0  0  0  0  0  0  0  0
    0.9133   -7.4493    1.4563 H   0  0  0  0  0  0  0  0  0  0  0  0
    2.2061   -4.2337   -2.5495 H   0  0  0  0  0  0  0  0  0  0  0  0
    1.1202   -3.3424   -1.5329 H   0  0  0  0  0  0  0  0  0  0  0  0
  1  2  1  0
  1 15  1  0
  1 16  1  0
  1 17  1  0
  2 14  1  0
  2  3  1  0
  2 18  1  6
  3  4  1  0
  3 19  1  0
  3 20  1  0
  4 12  2  0
  4  5  1  0
  5  6  2  0
  5 21  1  0
  6  7  1  0
  6 22  1  0
  7 11  1  0
  7  8  1  0
  8  9  2  0
  9 10  1  0
  9 23  1  0
 10 11  2  0
 11 12  1  0
 12 13  1  0
 13 14  1  0
 13 24  1  0
 13 25  1  0
M  END
>  <i_m_ct_stereo_status>  (398) 
1

>  <s_m_source_file>  (398) 
/var/tmp/pbs.5076255.sched01/tmpg0s73j8k/135j_ekwz2c.sdf

>  <i_m_source_file_index>  (398) 
26

>  <i_lp_mmshare_version>  (398) 
48012

>  <i_f3d_flags>  (398) 
0

>  <s_epik_input>  (398) 
W0NIM11bQ0BIXShbQ0gyXTEpT1tDSDJdYyhjMTIpYzNuKFtjSF1bY0hdMiluW2NIXW4z

>  <s_epik_cmdline>  (398) 
J2VwaWtfcHl0aG9uJywgJy1waHQnLCAnMi4wJywgJy1waCcsICc3LjAnLCAnLXRuJywgJzgnLCAnLW1hJywgJzIwMCcsICctaW1hZScsICc8aW5maWxlLm1hZT4nLCAnLW9tYWUnLCAnPG91dGZpbGUubWFlPic=

>  <r_epik_Ionization_Penalty>  (398) 
0.00764808

>  <r_epik_Ionization_Penalty_Charging>  (398) 
0

>  <r_epik_Ionization_Penalty_Neutral>  (398) 
0.00764808

>  <r_epik_State_Penalty>  (398) 
0.00572432

>  <r_epik_Charging_Adjusted_Penalty>  (398) 
0.00572432

>  <i_epik_Tot_Q>  (398) 
0

>  <i_epik_Tot_abs_Q>  (398) 
0

>  <s_lp_Force_Field>  (398) 
OPLS3e

>  <r_lp_Energy>  (398) 
19.8357

>  <b_lp_Chiralities_Consistent>  (398) 
1

>  <s_lp_Variant>  (398) 
101:0-1

>  <s_i_glide_gridfile>  (398) 
pfpi4k_grid

>  <i_i_glide_lignum>  (398) 
26

>  <i_i_glide_rotatable_bonds>  (398) 
0

>  <r_i_docking_score>  (398) 
-4.12377

>  <r_i_glide_ligand_efficiency>  (398) 
-0.294555

>  <r_i_glide_ligand_efficiency_sa>  (398) 
-0.709919

>  <r_i_glide_ligand_efficiency_ln>  (398) 
-1.1332

>  <r_i_glide_gscore>  (398) 
-4.12377

>  <r_i_glide_lipo>  (398) 
-0.439578

>  <r_i_glide_hbond>  (398) 
-0.180145

>  <r_i_glide_metal>  (398) 
-0

>  <r_i_glide_rewards>  (398) 
-2.12239

>  <r_i_glide_evdw>  (398) 
-16.1608

>  <r_i_glide_ecoul>  (398) 
-3.13674

>  <r_i_glide_erotb>  (398) 
0

>  <r_i_glide_esite>  (398) 
-0.103103

>  <r_i_glide_emodel>  (398) 
-24.9612

>  <r_i_glide_energy>  (398) 
-19.2976

>  <r_i_glide_einternal>  (398) 
0

>  <r_i_glide_intrahb_reward>  (398) 
-0

>  <i_i_glide_confnum>  (398) 
2

>  <i_i_glide_posenum>  (398) 
10

>  <r_i_glide_eff_state_penalty>  (398) 
0

>  <ligand_id>  (398) 
101

>  <original_smiles>  (398) 
CC1Cc2ccn3ncnc3c2CO1

>  <smiles>  (398) 
[H]c1nc2c3c(c([H])c([H])n2n1)C([H])([H])C([H])(C([H])([H])[H])OC3([H])[H]

$$$$
102:0:0
     RDKit          3D

 32 35  0  0  1  0  0  0  0  0999 V2000
    3.0837    0.8893   -5.5499 C   0  0  0  0  0  0  0  0  0  0  0  0
    3.3931   -0.0272   -4.4247 C   0  0  0  0  0  0  0  0  0  0  0  0
    4.2109    0.1485   -3.3473 C   0  0  0  0  0  0  0  0  0  0  0  0
    4.1129   -1.0225   -2.5339 C   0  0  0  0  0  0  0  0  0  0  0  0
    4.6884   -1.4500   -1.3117 C   0  0  0  0  0  0  0  0  0  0  0  0
    5.5593   -0.6408   -0.6763 F   0  0  0  0  0  0  0  0  0  0  0  0
    4.4032   -2.7156   -0.7475 C   0  0  0  0  0  0  0  0  0  0  0  0
    4.9562   -3.1360    0.4500 O   0  0  0  0  0  0  0  0  0  0  0  0
    6.2804   -3.5202    0.4844 C   0  0  0  0  0  0  0  0  0  0  0  0
    7.1976   -2.7338   -0.1462 N   0  0  0  0  0  0  0  0  0  0  0  0
    8.5016   -3.0914   -0.0447 C   0  0  0  0  0  0  0  0  0  0  0  0
    9.0132   -4.1713    0.6135 N   0  0  0  0  0  0  0  0  0  0  0  0
    8.0756   -4.8848    1.1887 N   0  0  0  0  0  0  0  0  0  0  0  0
    8.2482   -6.0314    1.9287 C   0  0  0  0  0  0  0  0  0  0  0  0
    7.0076   -6.4765    2.3640 C   0  0  0  0  0  0  0  0  0  0  0  0
    5.9602   -5.5977    1.9103 C   0  0  0  0  0  0  0  0  0  0  0  0
    6.7334   -4.6594    1.1946 C   0  0  0  0  0  0  0  0  0  0  0  0
    3.4663   -3.5384   -1.3855 C   0  0  0  0  0  0  0  0  0  0  0  0
    2.8601   -3.1320   -2.5912 C   0  0  0  0  0  0  0  0  0  0  0  0
    3.1931   -1.8988   -3.1584 C   0  0  0  0  0  0  0  0  0  0  0  0
    2.8003   -1.2682   -4.3188 N   0  0  0  0  0  0  0  0  0  0  0  0
    2.1215   -1.6105   -4.9989 H   0  0  0  0  0  0  0  0  0  0  0  0
    3.6527    1.8141   -5.4743 H   0  0  0  0  0  0  0  0  0  0  0  0
    2.0237    1.1545   -5.5477 H   0  0  0  0  0  0  0  0  0  0  0  0
    3.3357    0.4027   -6.4937 H   0  0  0  0  0  0  0  0  0  0  0  0
    4.7890    1.0248   -3.1193 H   0  0  0  0  0  0  0  0  0  0  0  0
    9.2282   -2.4474   -0.5412 H   0  0  0  0  0  0  0  0  0  0  0  0
    9.2495   -6.4123    2.0631 H   0  0  0  0  0  0  0  0  0  0  0  0
    6.8824   -7.3719    2.9630 H   0  0  0  0  0  0  0  0  0  0  0  0
    4.8709   -5.5681    2.0174 H   0  0  0  0  0  0  0  0  0  0  0  0
    3.2274   -4.5086   -0.9758 H   0  0  0  0  0  0  0  0  0  0  0  0
    2.1651   -3.7834   -3.0990 H   0  0  0  0  0  0  0  0  0  0  0  0
  1  2  1  0
  1 23  1  0
  1 24  1  0
  1 25  1  0
  2 21  1  0
  2  3  2  0
  3  4  1  0
  3 26  1  0
  4 20  2  0
  4  5  1  0
  5  6  1  0
  5  7  2  0
  7  8  1  0
  7 18  1  0
  8  9  1  0
  9 17  1  0
  9 10  2  0
 10 11  1  0
 11 12  2  0
 11 27  1  0
 12 13  1  0
 13 17  1  0
 13 14  1  0
 14 15  2  0
 14 28  1  0
 15 16  1  0
 15 29  1  0
 16 17  2  0
 16 30  1  0
 18 19  2  0
 18 31  1  0
 19 20  1  0
 19 32  1  0
 20 21  1  0
 21 22  1  0
M  END
>  <i_m_ct_stereo_status>  (399) 
1

>  <s_m_source_file>  (399) 
/var/tmp/pbs.5076255.sched01/tmpg0s73j8k/135j_ekwz2c.sdf

>  <i_m_source_file_index>  (399) 
27

>  <i_lp_mmshare_version>  (399) 
48012

>  <i_f3d_flags>  (399) 
0

>  <s_epik_input>  (399) 
W0NIM11jKFtjSF0xKVtuSF1jKGMxMilbY0hdW2NIXWMoYzJGKU9jKG5bY0hdbjMpYyhuMzQpW2NIXVtjSF1bY0hdNA==

>  <s_epik_cmdline>  (399) 
J2VwaWtfcHl0aG9uJywgJy1waHQnLCAnMi4wJywgJy1waCcsICc3LjAnLCAnLXRuJywgJzgnLCAnLW1hJywgJzIwMCcsICctaW1hZScsICc8aW5maWxlLm1hZT4nLCAnLW9tYWUnLCAnPG91dGZpbGUubWFlPic=

>  <r_lp_tautomer_probability>  (399) 
1

>  <r_epik_Ionization_Penalty>  (399) 
5.12385e-06

>  <r_epik_Ionization_Penalty_Charging>  (399) 
0

>  <r_epik_Ionization_Penalty_Neutral>  (399) 
5.12385e-06

>  <r_epik_State_Penalty>  (399) 
-0

>  <r_epik_Charging_Adjusted_Penalty>  (399) 
0

>  <i_epik_Tot_Q>  (399) 
0

>  <i_epik_Tot_abs_Q>  (399) 
0

>  <s_lp_Force_Field>  (399) 
OPLS3e

>  <r_lp_Energy>  (399) 
25.3397

>  <b_lp_Chiralities_Consistent>  (399) 
1

>  <s_lp_Variant>  (399) 
102:0-1

>  <s_i_glide_gridfile>  (399) 
pfpi4k_grid

>  <i_i_glide_lignum>  (399) 
27

>  <i_i_glide_rotatable_bonds>  (399) 
2

>  <r_i_docking_score>  (399) 
-4.63589

>  <r_i_glide_ligand_efficiency>  (399) 
-0.220757

>  <r_i_glide_ligand_efficiency_sa>  (399) 
-0.609051

>  <r_i_glide_ligand_efficiency_ln>  (399) 
-1.14621

>  <r_i_glide_gscore>  (399) 
-4.63589

>  <r_i_glide_lipo>  (399) 
-0.849459

>  <r_i_glide_hbond>  (399) 
-0.353223

>  <r_i_glide_metal>  (399) 
-0

>  <r_i_glide_rewards>  (399) 
-1.77514

>  <r_i_glide_evdw>  (399) 
-25.0751

>  <r_i_glide_ecoul>  (399) 
-5.25881

>  <r_i_glide_erotb>  (399) 
0.454103

>  <r_i_glide_esite>  (399) 
-0.069596

>  <r_i_glide_emodel>  (399) 
-38.6018

>  <r_i_glide_energy>  (399) 
-30.334

>  <r_i_glide_einternal>  (399) 
1.38836

>  <r_i_glide_intrahb_reward>  (399) 
-0

>  <i_i_glide_confnum>  (399) 
4

>  <i_i_glide_posenum>  (399) 
11

>  <r_i_glide_eff_state_penalty>  (399) 
0

>  <ligand_id>  (399) 
102

>  <original_smiles>  (399) 
Cc1cc2c(F)c(Oc3ncnn4cccc34)ccc2[nH]1

>  <smiles>  (399) 
[H]c1nc(Oc2c([H])c([H])c3c(c([H])c(C([H])([H])[H])n3[H])c2F)c2c([H])c([H])c([H])n2n1

$$$$
102:0:1
     RDKit          3D

 32 35  0  0  1  0  0  0  0  0999 V2000
    3.0719    0.3289   -5.4203 C   0  0  0  0  0  0  0  0  0  0  0  0
    3.3809   -0.4698   -4.1910 C   0  0  0  0  0  0  0  0  0  0  0  0
    4.2132   -0.1844   -3.1502 C   0  0  0  0  0  0  0  0  0  0  0  0
    4.2047   -1.3139   -2.2681 C   0  0  0  0  0  0  0  0  0  0  0  0
    4.8753   -1.6604   -1.0784 C   0  0  0  0  0  0  0  0  0  0  0  0
    5.8534   -0.8448   -0.6045 F   0  0  0  0  0  0  0  0  0  0  0  0
    4.4606   -2.7733   -0.3074 C   0  0  0  0  0  0  0  0  0  0  0  0
    5.0178   -2.9581    0.9324 O   0  0  0  0  0  0  0  0  0  0  0  0
    4.3020   -2.5638    2.0538 C   0  0  0  0  0  0  0  0  0  0  0  0
    4.4086   -3.4114    3.1134 N   0  0  0  0  0  0  0  0  0  0  0  0
    3.7881   -3.0546    4.2730 C   0  0  0  0  0  0  0  0  0  0  0  0
    3.0630   -1.9295    4.5257 N   0  0  0  0  0  0  0  0  0  0  0  0
    3.0036   -1.1331    3.4737 N   0  0  0  0  0  0  0  0  0  0  0  0
    2.3571    0.0881    3.4359 C   0  0  0  0  0  0  0  0  0  0  0  0
    2.5369    0.6171    2.1598 C   0  0  0  0  0  0  0  0  0  0  0  0
    3.3143   -0.2676    1.3331 C   0  0  0  0  0  0  0  0  0  0  0  0
    3.5680   -1.3410    2.2293 C   0  0  0  0  0  0  0  0  0  0  0  0
    3.4946   -3.6704   -0.8131 C   0  0  0  0  0  0  0  0  0  0  0  0
    2.8604   -3.3665   -2.0318 C   0  0  0  0  0  0  0  0  0  0  0  0
    3.2241   -2.2186   -2.7447 C   0  0  0  0  0  0  0  0  0  0  0  0
    2.7783   -1.6899   -3.9365 N   0  0  0  0  0  0  0  0  0  0  0  0
    2.0873   -2.0845   -4.5527 H   0  0  0  0  0  0  0  0  0  0  0  0
    3.6451    1.2638   -5.4531 H   0  0  0  0  0  0  0  0  0  0  0  0
    2.0093    0.5902   -5.4611 H   0  0  0  0  0  0  0  0  0  0  0  0
    3.3171   -0.2434   -6.3210 H   0  0  0  0  0  0  0  0  0  0  0  0
    4.7611    0.7235   -3.0191 H   0  0  0  0  0  0  0  0  0  0  0  0
    3.8873   -3.7816    5.0806 H   0  0  0  0  0  0  0  0  0  0  0  0
    1.8214    0.4492    4.3253 H   0  0  0  0  0  0  0  0  0  0  0  0
    2.1317    1.5637    1.8117 H   0  0  0  0  0  0  0  0  0  0  0  0
    3.6424   -0.1939    0.2989 H   0  0  0  0  0  0  0  0  0  0  0  0
    3.1985   -4.5418   -0.2452 H   0  0  0  0  0  0  0  0  0  0  0  0
    2.1033   -4.0086   -2.4312 H   0  0  0  0  0  0  0  0  0  0  0  0
  1  2  1  0
  1 23  1  0
  1 24  1  0
  1 25  1  0
  2 21  1  0
  2  3  2  0
  3  4  1  0
  3 26  1  0
  4 20  2  0
  4  5  1  0
  5  6  1  0
  5  7  2  0
  7  8  1  0
  7 18  1  0
  8  9  1  0
  9 17  1  0
  9 10  2  0
 10 11  1  0
 11 12  2  0
 11 27  1  0
 12 13  1  0
 13 17  1  0
 13 14  1  0
 14 15  2  0
 14 28  1  0
 15 16  1  0
 15 29  1  0
 16 17  2  0
 16 30  1  0
 18 19  2  0
 18 31  1  0
 19 20  1  0
 19 32  1  0
 20 21  1  0
 21 22  1  0
M  END
>  <i_m_ct_stereo_status>  (400) 
1

>  <s_m_source_file>  (400) 
/var/tmp/pbs.5076255.sched01/tmpg0s73j8k/135j_ekwz2c.sdf

>  <i_m_source_file_index>  (400) 
27

>  <i_lp_mmshare_version>  (400) 
48012

>  <i_f3d_flags>  (400) 
0

>  <s_epik_input>  (400) 
W0NIM11jKFtjSF0xKVtuSF1jKGMxMilbY0hdW2NIXWMoYzJGKU9jKG5bY0hdbjMpYyhuMzQpW2NIXVtjSF1bY0hdNA==

>  <s_epik_cmdline>  (400) 
J2VwaWtfcHl0aG9uJywgJy1waHQnLCAnMi4wJywgJy1waCcsICc3LjAnLCAnLXRuJywgJzgnLCAnLW1hJywgJzIwMCcsICctaW1hZScsICc8aW5maWxlLm1hZT4nLCAnLW9tYWUnLCAnPG91dGZpbGUubWFlPic=

>  <r_lp_tautomer_probability>  (400) 
1

>  <r_epik_Ionization_Penalty>  (400) 
5.12385e-06

>  <r_epik_Ionization_Penalty_Charging>  (400) 
0

>  <r_epik_Ionization_Penalty_Neutral>  (400) 
5.12385e-06

>  <r_epik_State_Penalty>  (400) 
-0

>  <r_epik_Charging_Adjusted_Penalty>  (400) 
0

>  <i_epik_Tot_Q>  (400) 
0

>  <i_epik_Tot_abs_Q>  (400) 
0

>  <s_lp_Force_Field>  (400) 
OPLS3e

>  <r_lp_Energy>  (400) 
25.3397

>  <b_lp_Chiralities_Consistent>  (400) 
1

>  <s_lp_Variant>  (400) 
102:0-1

>  <s_i_glide_gridfile>  (400) 
pfpi4k_grid

>  <i_i_glide_lignum>  (400) 
27

>  <i_i_glide_rotatable_bonds>  (400) 
2

>  <r_i_docking_score>  (400) 
-3.56056

>  <r_i_glide_ligand_efficiency>  (400) 
-0.169551

>  <r_i_glide_ligand_efficiency_sa>  (400) 
-0.467777

>  <r_i_glide_ligand_efficiency_ln>  (400) 
-0.880342

>  <r_i_glide_gscore>  (400) 
-3.56056

>  <r_i_glide_lipo>  (400) 
-0.737075

>  <r_i_glide_hbond>  (400) 
-0.205613

>  <r_i_glide_metal>  (400) 
-0

>  <r_i_glide_rewards>  (400) 
-1.48451

>  <r_i_glide_evdw>  (400) 
-23.9047

>  <r_i_glide_ecoul>  (400) 
-2.1554

>  <r_i_glide_erotb>  (400) 
0.454103

>  <r_i_glide_esite>  (400) 
-0.0689259

>  <r_i_glide_emodel>  (400) 
-30.9457

>  <r_i_glide_energy>  (400) 
-26.0601

>  <r_i_glide_einternal>  (400) 
2.90652

>  <r_i_glide_intrahb_reward>  (400) 
-0

>  <i_i_glide_confnum>  (400) 
4

>  <i_i_glide_posenum>  (400) 
21

>  <r_i_glide_eff_state_penalty>  (400) 
0

>  <ligand_id>  (400) 
102

>  <original_smiles>  (400) 
Cc1cc2c(F)c(Oc3ncnn4cccc34)ccc2[nH]1

>  <smiles>  (400) 
[H]c1nc(Oc2c([H])c([H])c3c(c([H])c(C([H])([H])[H])n3[H])c2F)c2c([H])c([H])c([H])n2n1

$$$$
102:0:2
     RDKit          3D

 32 35  0  0  1  0  0  0  0  0999 V2000
    3.4116    0.0051   -5.4486 C   0  0  0  0  0  0  0  0  0  0  0  0
    3.4538   -0.7025   -4.1325 C   0  0  0  0  0  0  0  0  0  0  0  0
    4.0835   -0.3533   -2.9686 C   0  0  0  0  0  0  0  0  0  0  0  0
    3.8053   -1.3958   -2.0168 C   0  0  0  0  0  0  0  0  0  0  0  0
    4.1696   -1.6466   -0.6835 C   0  0  0  0  0  0  0  0  0  0  0  0
    5.0377   -0.7969   -0.0863 F   0  0  0  0  0  0  0  0  0  0  0  0
    3.6184   -2.7298    0.0425 C   0  0  0  0  0  0  0  0  0  0  0  0
    3.9274   -2.8709    1.3702 O   0  0  0  0  0  0  0  0  0  0  0  0
    2.9606   -2.5928    2.3035 C   0  0  0  0  0  0  0  0  0  0  0  0
    2.6895   -3.5980    3.1845 N   0  0  0  0  0  0  0  0  0  0  0  0
    1.7793   -3.3390    4.1597 C   0  0  0  0  0  0  0  0  0  0  0  0
    1.0839   -2.1908    4.3894 N   0  0  0  0  0  0  0  0  0  0  0  0
    1.4118   -1.2523    3.5059 N   0  0  0  0  0  0  0  0  0  0  0  0
    0.9156    0.0333    3.4663 C   0  0  0  0  0  0  0  0  0  0  0  0
    1.5077    0.7026    2.4092 C   0  0  0  0  0  0  0  0  0  0  0  0
    2.4348   -0.1539    1.7324 C   0  0  0  0  0  0  0  0  0  0  0  0
    2.3048   -1.3453    2.4702 C   0  0  0  0  0  0  0  0  0  0  0  0
    2.7746   -3.6652   -0.5948 C   0  0  0  0  0  0  0  0  0  0  0  0
    2.4329   -3.4534   -1.9413 C   0  0  0  0  0  0  0  0  0  0  0  0
    2.9386   -2.3367   -2.6330 C   0  0  0  0  0  0  0  0  0  0  0  0
    2.7774   -1.8919   -3.9233 N   0  0  0  0  0  0  0  0  0  0  0  0
    2.1918   -2.3220   -4.6277 H   0  0  0  0  0  0  0  0  0  0  0  0
    4.0100    0.9195   -5.4336 H   0  0  0  0  0  0  0  0  0  0  0  0
    2.3843    0.2601   -5.7196 H   0  0  0  0  0  0  0  0  0  0  0  0
    3.7850   -0.6400   -6.2372 H   0  0  0  0  0  0  0  0  0  0  0  0
    4.6571    0.5408   -2.7810 H   0  0  0  0  0  0  0  0  0  0  0  0
    1.5925   -4.1595    4.8301 H   0  0  0  0  0  0  0  0  0  0  0  0
    0.1761    0.3309    4.2059 H   0  0  0  0  0  0  0  0  0  0  0  0
    1.2936    1.7219    2.1224 H   0  0  0  0  0  0  0  0  0  0  0  0
    3.0792   -0.0257    0.8779 H   0  0  0  0  0  0  0  0  0  0  0  0
    2.4065   -4.5379   -0.0641 H   0  0  0  0  0  0  0  0  0  0  0  0
    1.8048   -4.1501   -2.4615 H   0  0  0  0  0  0  0  0  0  0  0  0
  1  2  1  0
  1 23  1  0
  1 24  1  0
  1 25  1  0
  2 21  1  0
  2  3  2  0
  3  4  1  0
  3 26  1  0
  4 20  2  0
  4  5  1  0
  5  6  1  0
  5  7  2  0
  7  8  1  0
  7 18  1  0
  8  9  1  0
  9 17  1  0
  9 10  2  0
 10 11  1  0
 11 12  2  0
 11 27  1  0
 12 13  1  0
 13 17  1  0
 13 14  1  0
 14 15  2  0
 14 28  1  0
 15 16  1  0
 15 29  1  0
 16 17  2  0
 16 30  1  0
 18 19  2  0
 18 31  1  0
 19 20  1  0
 19 32  1  0
 20 21  1  0
 21 22  1  0
M  END
>  <i_m_ct_stereo_status>  (401) 
1

>  <s_m_source_file>  (401) 
/var/tmp/pbs.5076255.sched01/tmpg0s73j8k/135j_ekwz2c.sdf

>  <i_m_source_file_index>  (401) 
27

>  <i_lp_mmshare_version>  (401) 
48012

>  <i_f3d_flags>  (401) 
0

>  <s_epik_input>  (401) 
W0NIM11jKFtjSF0xKVtuSF1jKGMxMilbY0hdW2NIXWMoYzJGKU9jKG5bY0hdbjMpYyhuMzQpW2NIXVtjSF1bY0hdNA==

>  <s_epik_cmdline>  (401) 
J2VwaWtfcHl0aG9uJywgJy1waHQnLCAnMi4wJywgJy1waCcsICc3LjAnLCAnLXRuJywgJzgnLCAnLW1hJywgJzIwMCcsICctaW1hZScsICc8aW5maWxlLm1hZT4nLCAnLW9tYWUnLCAnPG91dGZpbGUubWFlPic=

>  <r_lp_tautomer_probability>  (401) 
1

>  <r_epik_Ionization_Penalty>  (401) 
5.12385e-06

>  <r_epik_Ionization_Penalty_Charging>  (401) 
0

>  <r_epik_Ionization_Penalty_Neutral>  (401) 
5.12385e-06

>  <r_epik_State_Penalty>  (401) 
-0

>  <r_epik_Charging_Adjusted_Penalty>  (401) 
0

>  <i_epik_Tot_Q>  (401) 
0

>  <i_epik_Tot_abs_Q>  (401) 
0

>  <s_lp_Force_Field>  (401) 
OPLS3e

>  <r_lp_Energy>  (401) 
25.3397

>  <b_lp_Chiralities_Consistent>  (401) 
1

>  <s_lp_Variant>  (401) 
102:0-1

>  <s_i_glide_gridfile>  (401) 
pfpi4k_grid

>  <i_i_glide_lignum>  (401) 
27

>  <i_i_glide_rotatable_bonds>  (401) 
2

>  <r_i_docking_score>  (401) 
-3.5479

>  <r_i_glide_ligand_efficiency>  (401) 
-0.168948

>  <r_i_glide_ligand_efficiency_sa>  (401) 
-0.466114

>  <r_i_glide_ligand_efficiency_ln>  (401) 
-0.877212

>  <r_i_glide_gscore>  (401) 
-3.5479

>  <r_i_glide_lipo>  (401) 
-0.643226

>  <r_i_glide_hbond>  (401) 
-0.258134

>  <r_i_glide_metal>  (401) 
-0

>  <r_i_glide_rewards>  (401) 
-1.5084

>  <r_i_glide_evdw>  (401) 
-26.2985

>  <r_i_glide_ecoul>  (401) 
-1.81147

>  <r_i_glide_erotb>  (401) 
0.454103

>  <r_i_glide_esite>  (401) 
-0.00560096

>  <r_i_glide_emodel>  (401) 
-33.5917

>  <r_i_glide_energy>  (401) 
-28.11

>  <r_i_glide_einternal>  (401) 
2.49976

>  <r_i_glide_intrahb_reward>  (401) 
-0

>  <i_i_glide_confnum>  (401) 
3

>  <i_i_glide_posenum>  (401) 
13

>  <r_i_glide_eff_state_penalty>  (401) 
0

>  <ligand_id>  (401) 
102

>  <original_smiles>  (401) 
Cc1cc2c(F)c(Oc3ncnn4cccc34)ccc2[nH]1

>  <smiles>  (401) 
[H]c1nc(Oc2c([H])c([H])c3c(c([H])c(C([H])([H])[H])n3[H])c2F)c2c([H])c([H])c([H])n2n1

$$$$
103:0:0
     RDKit          3D

 82 89  0  0  1  0  0  0  0  0999 V2000
    1.0243    2.8703    7.2621 C   0  0  0  0  0  0  0  0  0  0  0  0
    0.1990    1.9764    6.2959 C   0  0  1  0  0  0  0  0  0  0  0  0
   -0.6492    1.0033    7.1679 C   0  0  0  0  0  0  0  0  0  0  0  0
   -1.7122    1.7147    8.0229 C   0  0  0  0  0  0  0  0  0  0  0  0
   -2.5861    2.6669    7.1994 C   0  0  1  0  0  0  0  0  0  0  0  0
   -3.3742    3.3920    8.1131 O   0  0  0  0  0  0  0  0  0  0  0  0
   -1.7771    3.5995    6.2889 C   0  0  0  0  0  0  0  0  0  0  0  0
   -0.7563    2.8403    5.4110 C   0  0  2  0  0  0  0  0  0  0  0  0
   -1.4367    1.9852    4.3134 C   0  0  1  0  0  0  0  0  0  0  0  0
   -2.1920    2.8246    3.4593 O   0  0  0  0  0  0  0  0  0  0  0  0
   -0.4297    1.2176    3.4423 C   0  0  0  0  0  0  0  0  0  0  0  0
    0.4996    0.3236    4.2939 C   0  0  2  0  0  0  0  0  0  0  0  0
    1.1916    1.1636    5.4022 C   0  0  1  0  0  0  0  0  0  0  0  0
    2.3320    2.0002    4.7515 C   0  0  0  0  0  0  0  0  0  0  0  0
    3.3600    1.0919    4.0687 C   0  0  1  0  0  0  0  0  0  0  0  0
    3.9419    0.4151    5.1682 O   0  0  0  0  0  0  0  0  0  0  0  0
    2.7761    0.1479    2.9395 C   0  0  2  0  0  0  0  0  0  0  0  0
    2.5108    1.0578    1.7133 C   0  0  0  0  0  0  0  0  0  0  0  0
    1.4871   -0.5403    3.4594 C   0  0  1  0  0  0  0  0  0  0  0  0
    2.0161   -1.7764    4.2141 C   0  0  1  0  0  0  0  0  0  0  0  0
    1.0199   -2.7418    4.4843 O   0  0  0  0  0  0  0  0  0  0  0  0
    3.2752   -2.2601    3.4806 C   0  0  1  0  0  0  0  0  0  0  0  0
    3.3728   -3.6082    2.6612 C   0  0  1  0  0  0  0  0  0  0  0  0
    4.5215   -4.4534    3.2307 C   0  0  0  0  0  0  0  0  0  0  0  0
    2.1892   -4.5761    2.4402 C   0  0  0  0  0  0  0  0  0  0  0  0
    2.4240   -5.1051    1.1199 O   0  0  0  0  0  0  0  0  0  0  0  0
    2.6695   -3.9566    0.2981 C   0  0  2  0  0  0  0  0  0  0  0  0
    3.7642   -3.7249   -0.7677 C   0  0  1  0  0  0  0  0  0  0  0  0
    3.7301   -2.3014   -1.3572 C   0  0  0  0  0  0  0  0  0  0  0  0
    3.9119   -1.2244   -0.2354 C   0  0  0  0  0  0  0  0  0  0  0  0
    3.3263   -1.7082    1.1246 C   0  0  1  0  0  0  0  0  0  0  0  0
    3.5881   -3.1864    1.2325 C   0  0  1  0  0  0  0  0  0  0  0  0
    4.7175   -3.8696    0.3947 C   0  0  0  0  0  0  0  0  0  0  0  0
    3.6976   -1.0784    2.5182 C   0  0  1  0  0  0  0  0  0  0  0  0
    5.2037   -0.7979    2.4618 C   0  0  0  0  0  0  0  0  0  0  0  0
    5.8340   -0.6709    3.7295 O   0  0  0  0  0  0  0  0  0  0  0  0
    1.7990    2.2877    7.7747 H   0  0  0  0  0  0  0  0  0  0  0  0
    0.4173    3.3298    8.0398 H   0  0  0  0  0  0  0  0  0  0  0  0
    1.5062    3.6987    6.7407 H   0  0  0  0  0  0  0  0  0  0  0  0
   -1.1657    0.2847    6.5381 H   0  0  0  0  0  0  0  0  0  0  0  0
    0.0033    0.4081    7.8166 H   0  0  0  0  0  0  0  0  0  0  0  0
   -2.3578    0.9732    8.4858 H   0  0  0  0  0  0  0  0  0  0  0  0
   -1.2374    2.2430    8.8511 H   0  0  0  0  0  0  0  0  0  0  0  0
   -3.2740    2.1092    6.5750 H   0  0  0  0  0  0  0  0  0  0  0  0
   -2.7827    3.8588    8.7120 H   0  0  0  0  0  0  0  0  0  0  0  0
   -2.4536    4.1496    5.6470 H   0  0  0  0  0  0  0  0  0  0  0  0
   -1.2518    4.3434    6.8785 H   0  0  0  0  0  0  0  0  0  0  0  0
   -0.1500    3.5865    4.8950 H   0  0  0  0  0  0  0  0  0  0  0  0
   -2.1169    1.2645    4.7606 H   0  0  0  0  0  0  0  0  0  0  0  0
   -1.6162    3.2197    2.8308 H   0  0  0  0  0  0  0  0  0  0  0  0
   -0.9587    0.6062    2.7088 H   0  0  0  0  0  0  0  0  0  0  0  0
    0.1469    1.9400    2.8697 H   0  0  0  0  0  0  0  0  0  0  0  0
   -0.1534   -0.3989    4.7769 H   0  0  0  0  0  0  0  0  0  0  0  0
    1.6597    0.4617    6.0989 H   0  0  0  0  0  0  0  0  0  0  0  0
    1.9380    2.7477    4.0608 H   0  0  0  0  0  0  0  0  0  0  0  0
    2.8833    2.5679    5.5103 H   0  0  0  0  0  0  0  0  0  0  0  0
    4.1474    1.7220    3.6600 H   0  0  0  0  0  0  0  0  0  0  0  0
    4.6650   -0.0750    4.8340 H   0  0  0  0  0  0  0  0  0  0  0  0
    1.8076    0.6163    1.0042 H   0  0  0  0  0  0  0  0  0  0  0  0
    3.4471    1.2466    1.1938 H   0  0  0  0  0  0  0  0  0  0  0  0
    2.1137    2.0373    1.9743 H   0  0  0  0  0  0  0  0  0  0  0  0
    0.9286   -0.9136    2.6001 H   0  0  0  0  0  0  0  0  0  0  0  0
    2.3453   -1.4612    5.2002 H   0  0  0  0  0  0  0  0  0  0  0  0
    0.6930   -3.0619    3.6701 H   0  0  0  0  0  0  0  0  0  0  0  0
    4.0024   -2.3678    4.2871 H   0  0  0  0  0  0  0  0  0  0  0  0
    4.5993   -5.4277    2.7292 H   0  0  0  0  0  0  0  0  0  0  0  0
    4.3517   -4.6694    4.2946 H   0  0  0  0  0  0  0  0  0  0  0  0
    5.4794   -3.9390    3.1315 H   0  0  0  0  0  0  0  0  0  0  0  0
    2.1252   -5.3716    3.1995 H   0  0  0  0  0  0  0  0  0  0  0  0
    1.2431   -4.0636    2.4300 H   0  0  0  0  0  0  0  0  0  0  0  0
    1.7905   -3.3911    0.0199 H   0  0  0  0  0  0  0  0  0  0  0  0
    3.8472   -4.5479   -1.4665 H   0  0  0  0  0  0  0  0  0  0  0  0
    4.4650   -2.1955   -2.1464 H   0  0  0  0  0  0  0  0  0  0  0  0
    2.7695   -2.1423   -1.8494 H   0  0  0  0  0  0  0  0  0  0  0  0
    4.9690   -1.0072   -0.1476 H   0  0  0  0  0  0  0  0  0  0  0  0
    3.4272   -0.3119   -0.5319 H   0  0  0  0  0  0  0  0  0  0  0  0
    2.2547   -1.5688    1.0094 H   0  0  0  0  0  0  0  0  0  0  0  0
    4.8964   -4.9258    0.6092 H   0  0  0  0  0  0  0  0  0  0  0  0
    5.6319   -3.2814    0.2887 H   0  0  0  0  0  0  0  0  0  0  0  0
    5.7311   -1.5808    1.9401 H   0  0  0  0  0  0  0  0  0  0  0  0
    5.4292    0.0994    1.9013 H   0  0  0  0  0  0  0  0  0  0  0  0
    6.7500   -0.5533    3.5765 H   0  0  0  0  0  0  0  0  0  0  0  0
  2  1  1  1
  1 37  1  0
  1 38  1  0
  1 39  1  0
  2  8  1  0
  2 13  1  0
  2  3  1  0
  3  4  1  0
  3 40  1  0
  3 41  1  0
  4  5  1  0
  4 42  1  0
  4 43  1  0
  5  6  1  0
  5  7  1  0
  5 44  1  6
  6 45  1  0
  7  8  1  0
  7 46  1  0
  7 47  1  0
  8  9  1  0
  8 48  1  6
  9 10  1  0
  9 11  1  0
  9 49  1  1
 10 50  1  0
 11 12  1  0
 11 51  1  0
 11 52  1  0
 12 19  1  0
 12 13  1  0
 12 53  1  1
 13 14  1  0
 13 54  1  1
 14 15  1  0
 14 55  1  0
 14 56  1  0
 15 16  1  0
 15 17  1  0
 15 57  1  6
 16 58  1  0
 17 34  1  0
 17 18  1  6
 17 19  1  0
 18 59  1  0
 18 60  1  0
 18 61  1  0
 19 20  1  0
 19 62  1  6
 20 21  1  0
 20 22  1  0
 20 63  1  1
 21 64  1  0
 22 34  1  0
 22 23  1  0
 22 65  1  1
 23 32  1  0
 23 24  1  1
 23 25  1  0
 24 66  1  0
 24 67  1  0
 24 68  1  0
 25 26  1  0
 25 69  1  0
 25 70  1  0
 26 27  1  0
 27 32  1  0
 27 28  1  0
 27 71  1  6
 28 33  1  0
 28 29  1  0
 28 72  1  6
 29 30  1  0
 29 73  1  0
 29 74  1  0
 30 31  1  0
 30 75  1  0
 30 76  1  0
 31 32  1  0
 31 34  1  0
 31 77  1  6
 32 33  1  6
 33 78  1  0
 33 79  1  0
 34 35  1  6
 35 36  1  0
 35 80  1  0
 35 81  1  0
 36 82  1  0
M  END
>  <i_m_ct_stereo_status>  (402) 
1

>  <s_m_source_file>  (402) 
/var/tmp/pbs.5076255.sched01/tmpg0s73j8k/135j_ekwz2c.sdf

>  <i_m_source_file_index>  (402) 
28

>  <i_lp_mmshare_version>  (402) 
48012

>  <i_f3d_flags>  (402) 
0

>  <s_epik_input>  (402) 
W0NIMl0xW0NIMl1bQ0BASF0oW09IXSlbQ0gyXVtDQEhdKFtDQEBIXShbT0hdKVtDSDJdMilbQ0BdMShbQ0gzXSlbQ0BIXShbQ0gyXVtDQEhdM1tPSF0pW0NAQEhdMltDQEhdKFtDQEhdNFtPSF0pW0NAXTMoW0NIM10pW0NAQF0oW0NIMl1bT0hdKShbQ0BASF00W0NAQF01KFtDQEBdNjc4KVtDSDNdKVtDQEhdN1tDSDJdW0NIMl1bQ0BASF0oW0NIMl04KVtDQEhdNk9bQ0gyXTU=

>  <s_epik_cmdline>  (402) 
J2VwaWtfcHl0aG9uJywgJy1waHQnLCAnMi4wJywgJy1waCcsICc3LjAnLCAnLXRuJywgJzgnLCAnLW1hJywgJzIwMCcsICctaW1hZScsICc8aW5maWxlLm1hZT4nLCAnLW9tYWUnLCAnPG91dGZpbGUubWFlPic=

>  <r_lp_tautomer_probability>  (402) 
1

>  <r_epik_Ionization_Penalty>  (402) 
7.93597e-06

>  <r_epik_Ionization_Penalty_Charging>  (402) 
0

>  <r_epik_Ionization_Penalty_Neutral>  (402) 
7.93597e-06

>  <r_epik_State_Penalty>  (402) 
-0

>  <r_epik_Charging_Adjusted_Penalty>  (402) 
0

>  <i_epik_Tot_Q>  (402) 
0

>  <i_epik_Tot_abs_Q>  (402) 
0

>  <s_lp_Force_Field>  (402) 
OPLS3e

>  <r_lp_Energy>  (402) 
122.116

>  <b_lp_Chiralities_Consistent>  (402) 
1

>  <s_lp_Variant>  (402) 
103:0-1

>  <s_i_glide_gridfile>  (402) 
pfpi4k_grid

>  <i_i_glide_lignum>  (402) 
28

>  <i_i_glide_rotatable_bonds>  (402) 
6

>  <r_i_docking_score>  (402) 
-2.45053

>  <r_i_glide_ligand_efficiency>  (402) 
-0.0680703

>  <r_i_glide_ligand_efficiency_sa>  (402) 
-0.224763

>  <r_i_glide_ligand_efficiency_ln>  (402) 
-0.53464

>  <r_i_glide_gscore>  (402) 
-2.45053

>  <r_i_glide_lipo>  (402) 
-0.373347

>  <r_i_glide_hbond>  (402) 
0

>  <r_i_glide_metal>  (402) 
-0

>  <r_i_glide_rewards>  (402) 
-0.5

>  <r_i_glide_evdw>  (402) 
-20.7815

>  <r_i_glide_ecoul>  (402) 
-4.12651

>  <r_i_glide_erotb>  (402) 
0.0808693

>  <r_i_glide_esite>  (402) 
0

>  <r_i_glide_emodel>  (402) 
-29.3782

>  <r_i_glide_energy>  (402) 
-24.9081

>  <r_i_glide_einternal>  (402) 
8.52322

>  <r_i_glide_intrahb_reward>  (402) 
-0.5

>  <i_i_glide_confnum>  (402) 
2

>  <i_i_glide_posenum>  (402) 
35

>  <r_i_glide_eff_state_penalty>  (402) 
0

>  <ligand_id>  (402) 
103

>  <original_smiles>  (402) 
CC12CCC(O)CC1C(O)CC1C2CC(O)C2(C)C1C(O)C1C3(C)COC4C5CCC(C43C5)C12CO

>  <smiles>  (402) 
[H]OC([H])([H])C12C([H])(C([H])(O[H])C3([H])C4([H])C([H])([H])C([H])(O[H])C5([H])C([H])([H])C([H])(O[H])C([H])([H])C([H])([H])C5(C([H])([H])[H])C4([H])C([H])([H])C([H])(O[H])C31C([H])([H])[H])C1(C([H])([H])[H])C([H])([H])OC3([H])C4([H])C([H])([H])C([H])([H])C2([H])C31C4([H])[H]

$$$$
103:0:1
     RDKit          3D

 82 89  0  0  1  0  0  0  0  0999 V2000
    0.1291    3.5839    6.7443 C   0  0  0  0  0  0  0  0  0  0  0  0
    0.0385    2.4542    5.6841 C   0  0  1  0  0  0  0  0  0  0  0  0
   -1.4539    2.3445    5.2344 C   0  0  0  0  0  0  0  0  0  0  0  0
   -1.9855    3.5915    4.4931 C   0  0  0  0  0  0  0  0  0  0  0  0
   -1.0613    4.0257    3.3408 C   0  0  1  0  0  0  0  0  0  0  0  0
   -1.4357    5.3093    2.8866 O   0  0  0  0  0  0  0  0  0  0  0  0
    0.4149    4.0946    3.7548 C   0  0  0  0  0  0  0  0  0  0  0  0
    0.9066    2.7945    4.4321 C   0  0  2  0  0  0  0  0  0  0  0  0
    0.9663    1.6036    3.4443 C   0  0  1  0  0  0  0  0  0  0  0  0
    1.8277    1.9192    2.3755 O   0  0  0  0  0  0  0  0  0  0  0  0
    1.4711    0.3167    4.1187 C   0  0  0  0  0  0  0  0  0  0  0  0
    0.6081   -0.0680    5.3424 C   0  0  2  0  0  0  0  0  0  0  0  0
    0.5141    1.1081    6.3508 C   0  0  1  0  0  0  0  0  0  0  0  0
    1.8382    1.1736    7.1647 C   0  0  0  0  0  0  0  0  0  0  0  0
    2.1386   -0.1460    7.9155 C   0  0  1  0  0  0  0  0  0  0  0  0
    1.1603   -0.2202    8.9371 O   0  0  0  0  0  0  0  0  0  0  0  0
    2.2212   -1.4125    6.9866 C   0  0  2  0  0  0  0  0  0  0  0  0
    3.5744   -1.3369    6.2333 C   0  0  0  0  0  0  0  0  0  0  0  0
    1.0070   -1.4213    6.0059 C   0  0  1  0  0  0  0  0  0  0  0  0
   -0.1206   -2.0552    6.8367 C   0  0  1  0  0  0  0  0  0  0  0  0
   -1.2359   -2.4809    6.0771 O   0  0  0  0  0  0  0  0  0  0  0  0
    0.5388   -3.0913    7.7729 C   0  0  1  0  0  0  0  0  0  0  0  0
    0.3167   -4.6426    7.6195 C   0  0  1  0  0  0  0  0  0  0  0  0
   -0.2557   -5.1996    8.9402 C   0  0  0  0  0  0  0  0  0  0  0  0
   -0.4866   -5.3217    6.4849 C   0  0  0  0  0  0  0  0  0  0  0  0
    0.2180   -6.5582    6.2794 O   0  0  0  0  0  0  0  0  0  0  0  0
    1.5816   -6.1621    6.1121 C   0  0  2  0  0  0  0  0  0  0  0  0
    2.8520   -6.8021    6.7165 C   0  0  1  0  0  0  0  0  0  0  0  0
    4.1526   -6.0349    6.4098 C   0  0  0  0  0  0  0  0  0  0  0  0
    4.0634   -4.5558    6.9154 C   0  0  0  0  0  0  0  0  0  0  0  0
    2.5888   -4.0343    6.9226 C   0  0  1  0  0  0  0  0  0  0  0  0
    1.6746   -5.1891    7.2729 C   0  0  1  0  0  0  0  0  0  0  0  0
    2.2439   -6.4114    8.0470 C   0  0  0  0  0  0  0  0  0  0  0  0
    2.0872   -2.8048    7.7426 C   0  0  1  0  0  0  0  0  0  0  0  0
    2.6775   -2.8661    9.1930 C   0  0  0  0  0  0  0  0  0  0  0  0
    4.0249   -2.4498    9.2802 O   0  0  0  0  0  0  0  0  0  0  0  0
   -0.3536    3.2899    7.6806 H   0  0  0  0  0  0  0  0  0  0  0  0
   -0.3502    4.5096    6.4288 H   0  0  0  0  0  0  0  0  0  0  0  0
    1.1615    3.8525    6.9638 H   0  0  0  0  0  0  0  0  0  0  0  0
   -1.5971    1.5009    4.5619 H   0  0  0  0  0  0  0  0  0  0  0  0
   -2.0956    2.1342    6.0946 H   0  0  0  0  0  0  0  0  0  0  0  0
   -2.9766    3.3725    4.0935 H   0  0  0  0  0  0  0  0  0  0  0  0
   -2.1214    4.4064    5.1968 H   0  0  0  0  0  0  0  0  0  0  0  0
   -1.1786    3.3268    2.5116 H   0  0  0  0  0  0  0  0  0  0  0  0
   -0.9430    5.4495    2.1001 H   0  0  0  0  0  0  0  0  0  0  0  0
    1.0323    4.3260    2.8851 H   0  0  0  0  0  0  0  0  0  0  0  0
    0.5703    4.9367    4.4260 H   0  0  0  0  0  0  0  0  0  0  0  0
    1.9277    2.9802    4.7660 H   0  0  0  0  0  0  0  0  0  0  0  0
   -0.0125    1.4001    3.0128 H   0  0  0  0  0  0  0  0  0  0  0  0
    1.4203    2.6054    1.8619 H   0  0  0  0  0  0  0  0  0  0  0  0
    1.4704   -0.4991    3.3924 H   0  0  0  0  0  0  0  0  0  0  0  0
    2.5110    0.4649    4.4029 H   0  0  0  0  0  0  0  0  0  0  0  0
   -0.3884   -0.2425    4.9371 H   0  0  0  0  0  0  0  0  0  0  0  0
   -0.2681    0.8666    7.0693 H   0  0  0  0  0  0  0  0  0  0  0  0
    2.6655    1.4281    6.5051 H   0  0  0  0  0  0  0  0  0  0  0  0
    1.8102    1.9757    7.9048 H   0  0  0  0  0  0  0  0  0  0  0  0
    3.0960   -0.0360    8.4255 H   0  0  0  0  0  0  0  0  0  0  0  0
    1.2998    0.4983    9.5357 H   0  0  0  0  0  0  0  0  0  0  0  0
    3.5883   -1.9628    5.3436 H   0  0  0  0  0  0  0  0  0  0  0  0
    4.3994   -1.6533    6.8688 H   0  0  0  0  0  0  0  0  0  0  0  0
    3.8324   -0.3332    5.9106 H   0  0  0  0  0  0  0  0  0  0  0  0
    1.2259   -2.1128    5.1926 H   0  0  0  0  0  0  0  0  0  0  0  0
   -0.5343   -1.2849    7.4778 H   0  0  0  0  0  0  0  0  0  0  0  0
   -0.9332   -3.0793    5.4221 H   0  0  0  0  0  0  0  0  0  0  0  0
    0.1730   -2.8270    8.7650 H   0  0  0  0  0  0  0  0  0  0  0  0
   -0.4518   -6.2738    8.8778 H   0  0  0  0  0  0  0  0  0  0  0  0
   -1.2141   -4.7280    9.1750 H   0  0  0  0  0  0  0  0  0  0  0  0
    0.4188   -5.0282    9.7806 H   0  0  0  0  0  0  0  0  0  0  0  0
   -1.5368   -5.4975    6.7397 H   0  0  0  0  0  0  0  0  0  0  0  0
   -0.4428   -4.7727    5.5522 H   0  0  0  0  0  0  0  0  0  0  0  0
    1.7750   -5.7185    5.1359 H   0  0  0  0  0  0  0  0  0  0  0  0
    2.8843   -7.8800    6.5686 H   0  0  0  0  0  0  0  0  0  0  0  0
    5.0072   -6.5359    6.8581 H   0  0  0  0  0  0  0  0  0  0  0  0
    4.3391   -6.0502    5.3370 H   0  0  0  0  0  0  0  0  0  0  0  0
    4.4788   -4.5315    7.9221 H   0  0  0  0  0  0  0  0  0  0  0  0
    4.7081   -3.9307    6.3057 H   0  0  0  0  0  0  0  0  0  0  0  0
    2.4024   -3.7907    5.8793 H   0  0  0  0  0  0  0  0  0  0  0  0
    1.5085   -7.1464    8.3880 H   0  0  0  0  0  0  0  0  0  0  0  0
    2.9665   -6.1534    8.8211 H   0  0  0  0  0  0  0  0  0  0  0  0
    2.1069   -2.2660    9.8977 H   0  0  0  0  0  0  0  0  0  0  0  0
    2.6140   -3.8815    9.5838 H   0  0  0  0  0  0  0  0  0  0  0  0
    4.3155   -2.5660   10.1712 H   0  0  0  0  0  0  0  0  0  0  0  0
  2  1  1  1
  1 37  1  0
  1 38  1  0
  1 39  1  0
  2  8  1  0
  2 13  1  0
  2  3  1  0
  3  4  1  0
  3 40  1  0
  3 41  1  0
  4  5  1  0
  4 42  1  0
  4 43  1  0
  5  6  1  0
  5  7  1  0
  5 44  1  6
  6 45  1  0
  7  8  1  0
  7 46  1  0
  7 47  1  0
  8  9  1  0
  8 48  1  1
  9 10  1  0
  9 11  1  0
  9 49  1  6
 10 50  1  0
 11 12  1  0
 11 51  1  0
 11 52  1  0
 12 19  1  0
 12 13  1  0
 12 53  1  6
 13 14  1  0
 13 54  1  1
 14 15  1  0
 14 55  1  0
 14 56  1  0
 15 16  1  0
 15 17  1  0
 15 57  1  1
 16 58  1  0
 17 34  1  0
 17 18  1  6
 17 19  1  0
 18 59  1  0
 18 60  1  0
 18 61  1  0
 19 20  1  0
 19 62  1  6
 20 21  1  0
 20 22  1  0
 20 63  1  1
 21 64  1  0
 22 34  1  0
 22 23  1  0
 22 65  1  1
 23 32  1  0
 23 24  1  1
 23 25  1  0
 24 66  1  0
 24 67  1  0
 24 68  1  0
 25 26  1  0
 25 69  1  0
 25 70  1  0
 26 27  1  0
 27 32  1  0
 27 28  1  0
 27 71  1  6
 28 33  1  0
 28 29  1  0
 28 72  1  1
 29 30  1  0
 29 73  1  0
 29 74  1  0
 30 31  1  0
 30 75  1  0
 30 76  1  0
 31 32  1  0
 31 34  1  0
 31 77  1  6
 32 33  1  1
 33 78  1  0
 33 79  1  0
 34 35  1  1
 35 36  1  0
 35 80  1  0
 35 81  1  0
 36 82  1  0
M  END
>  <i_m_ct_stereo_status>  (403) 
1

>  <s_m_source_file>  (403) 
/var/tmp/pbs.5076255.sched01/tmpg0s73j8k/135j_ekwz2c.sdf

>  <i_m_source_file_index>  (403) 
28

>  <i_lp_mmshare_version>  (403) 
48012

>  <i_f3d_flags>  (403) 
0

>  <s_epik_input>  (403) 
W0NIMl0xW0NIMl1bQ0BASF0oW09IXSlbQ0gyXVtDQEhdKFtDQEBIXShbT0hdKVtDSDJdMilbQ0BdMShbQ0gzXSlbQ0BIXShbQ0gyXVtDQEhdM1tPSF0pW0NAQEhdMltDQEhdKFtDQEhdNFtPSF0pW0NAXTMoW0NIM10pW0NAQF0oW0NIMl1bT0hdKShbQ0BASF00W0NAQF01KFtDQEBdNjc4KVtDSDNdKVtDQEhdN1tDSDJdW0NIMl1bQ0BASF0oW0NIMl04KVtDQEhdNk9bQ0gyXTU=

>  <s_epik_cmdline>  (403) 
J2VwaWtfcHl0aG9uJywgJy1waHQnLCAnMi4wJywgJy1waCcsICc3LjAnLCAnLXRuJywgJzgnLCAnLW1hJywgJzIwMCcsICctaW1hZScsICc8aW5maWxlLm1hZT4nLCAnLW9tYWUnLCAnPG91dGZpbGUubWFlPic=

>  <r_lp_tautomer_probability>  (403) 
1

>  <r_epik_Ionization_Penalty>  (403) 
7.93597e-06

>  <r_epik_Ionization_Penalty_Charging>  (403) 
0

>  <r_epik_Ionization_Penalty_Neutral>  (403) 
7.93597e-06

>  <r_epik_State_Penalty>  (403) 
-0

>  <r_epik_Charging_Adjusted_Penalty>  (403) 
0

>  <i_epik_Tot_Q>  (403) 
0

>  <i_epik_Tot_abs_Q>  (403) 
0

>  <s_lp_Force_Field>  (403) 
OPLS3e

>  <r_lp_Energy>  (403) 
122.116

>  <b_lp_Chiralities_Consistent>  (403) 
1

>  <s_lp_Variant>  (403) 
103:0-1

>  <s_i_glide_gridfile>  (403) 
pfpi4k_grid

>  <i_i_glide_lignum>  (403) 
28

>  <i_i_glide_rotatable_bonds>  (403) 
6

>  <r_i_docking_score>  (403) 
-2.40614

>  <r_i_glide_ligand_efficiency>  (403) 
-0.0668372

>  <r_i_glide_ligand_efficiency_sa>  (403) 
-0.220691

>  <r_i_glide_ligand_efficiency_ln>  (403) 
-0.524954

>  <r_i_glide_gscore>  (403) 
-2.40614

>  <r_i_glide_lipo>  (403) 
-0.0618123

>  <r_i_glide_hbond>  (403) 
-0.285622

>  <r_i_glide_metal>  (403) 
-0

>  <r_i_glide_rewards>  (403) 
0

>  <r_i_glide_evdw>  (403) 
-15.478

>  <r_i_glide_ecoul>  (403) 
-9.10448

>  <r_i_glide_erotb>  (403) 
0.0808693

>  <r_i_glide_esite>  (403) 
0

>  <r_i_glide_emodel>  (403) 
-28.2609

>  <r_i_glide_energy>  (403) 
-24.5825

>  <r_i_glide_einternal>  (403) 
1.37303

>  <r_i_glide_intrahb_reward>  (403) 
-0

>  <i_i_glide_confnum>  (403) 
4

>  <i_i_glide_posenum>  (403) 
5

>  <r_i_glide_eff_state_penalty>  (403) 
0

>  <ligand_id>  (403) 
103

>  <original_smiles>  (403) 
CC12CCC(O)CC1C(O)CC1C2CC(O)C2(C)C1C(O)C1C3(C)COC4C5CCC(C43C5)C12CO

>  <smiles>  (403) 
[H]OC([H])([H])C12C([H])(C([H])(O[H])C3([H])C4([H])C([H])([H])C([H])(O[H])C5([H])C([H])([H])C([H])(O[H])C([H])([H])C([H])([H])C5(C([H])([H])[H])C4([H])C([H])([H])C([H])(O[H])C31C([H])([H])[H])C1(C([H])([H])[H])C([H])([H])OC3([H])C4([H])C([H])([H])C([H])([H])C2([H])C31C4([H])[H]

$$$$
103:0:2
     RDKit          3D

 82 89  0  0  1  0  0  0  0  0999 V2000
    1.0334    2.8213    7.3054 C   0  0  0  0  0  0  0  0  0  0  0  0
    0.2121    1.9492    6.3183 C   0  0  1  0  0  0  0  0  0  0  0  0
   -0.6665    0.9794    7.1721 C   0  0  0  0  0  0  0  0  0  0  0  0
   -1.7265    1.7018    8.0230 C   0  0  0  0  0  0  0  0  0  0  0  0
   -2.5648    2.6761    7.2048 C   0  0  1  0  0  0  0  0  0  0  0  0
   -3.2420    3.4790    8.1365 O   0  0  0  0  0  0  0  0  0  0  0  0
   -1.7347    3.5812    6.2949 C   0  0  0  0  0  0  0  0  0  0  0  0
   -0.7125    2.8260    5.4233 C   0  0  2  0  0  0  0  0  0  0  0  0
   -1.4070    2.0012    4.3094 C   0  0  1  0  0  0  0  0  0  0  0  0
   -2.1460    2.8541    3.4586 O   0  0  0  0  0  0  0  0  0  0  0  0
   -0.3985    1.2295    3.4469 C   0  0  0  0  0  0  0  0  0  0  0  0
    0.5077    0.3188    4.3092 C   0  0  2  0  0  0  0  0  0  0  0  0
    1.2076    1.1350    5.4282 C   0  0  1  0  0  0  0  0  0  0  0  0
    2.3755    1.9522    4.8076 C   0  0  0  0  0  0  0  0  0  0  0  0
    3.4018    1.0173    4.1310 C   0  0  1  0  0  0  0  0  0  0  0  0
    4.0188    0.3573    5.2203 O   0  0  0  0  0  0  0  0  0  0  0  0
    2.8078    0.1150    2.9857 C   0  0  2  0  0  0  0  0  0  0  0  0
    2.5631    1.0427    1.7655 C   0  0  0  0  0  0  0  0  0  0  0  0
    1.4924   -0.5611    3.4760 C   0  0  1  0  0  0  0  0  0  0  0  0
    1.9889   -1.8140    4.2266 C   0  0  1  0  0  0  0  0  0  0  0  0
    0.9783   -2.7690    4.4856 O   0  0  0  0  0  0  0  0  0  0  0  0
    3.2586   -2.3056    3.4956 C   0  0  1  0  0  0  0  0  0  0  0  0
    3.3362   -3.6442    2.6718 C   0  0  1  0  0  0  0  0  0  0  0  0
    4.4744   -4.5178    3.2425 C   0  0  0  0  0  0  0  0  0  0  0  0
    2.1537   -4.6010    2.4247 C   0  0  0  0  0  0  0  0  0  0  0  0
    2.3929   -5.1093    1.0949 O   0  0  0  0  0  0  0  0  0  0  0  0
    2.6616   -3.9598    0.2894 C   0  0  2  0  0  0  0  0  0  0  0  0
    3.7777   -3.7373   -0.7520 C   0  0  1  0  0  0  0  0  0  0  0  0
    3.7627   -2.3118   -1.3354 C   0  0  0  0  0  0  0  0  0  0  0  0
    3.9435   -1.2365   -0.2074 C   0  0  0  0  0  0  0  0  0  0  0  0
    3.3337   -1.7222    1.1490 C   0  0  1  0  0  0  0  0  0  0  0  0
    3.5726   -3.2124    1.2510 C   0  0  1  0  0  0  0  0  0  0  0  0
    4.7112   -3.8942    0.4226 C   0  0  0  0  0  0  0  0  0  0  0  0
    3.6981   -1.1223    2.5483 C   0  0  1  0  0  0  0  0  0  0  0  0
    5.2231   -0.8454    2.5034 C   0  0  0  0  0  0  0  0  0  0  0  0
    5.7938   -0.7864    3.7780 O   0  0  0  0  0  0  0  0  0  0  0  0
    1.7900    2.2204    7.8238 H   0  0  0  0  0  0  0  0  0  0  0  0
    0.4218    3.2837    8.0765 H   0  0  0  0  0  0  0  0  0  0  0  0
    1.5328    3.6474    6.7969 H   0  0  0  0  0  0  0  0  0  0  0  0
   -1.1920    0.2771    6.5250 H   0  0  0  0  0  0  0  0  0  0  0  0
   -0.0342    0.3723    7.8208 H   0  0  0  0  0  0  0  0  0  0  0  0
   -2.3927    0.9774    8.4751 H   0  0  0  0  0  0  0  0  0  0  0  0
   -1.2494    2.2312    8.8461 H   0  0  0  0  0  0  0  0  0  0  0  0
   -3.2827    2.1383    6.5972 H   0  0  0  0  0  0  0  0  0  0  0  0
   -3.7530    2.9350    8.7106 H   0  0  0  0  0  0  0  0  0  0  0  0
   -2.4111    4.1305    5.6413 H   0  0  0  0  0  0  0  0  0  0  0  0
   -1.2173    4.3215    6.9031 H   0  0  0  0  0  0  0  0  0  0  0  0
   -0.0996    3.5807    4.9256 H   0  0  0  0  0  0  0  0  0  0  0  0
   -2.0974    1.2853    4.7478 H   0  0  0  0  0  0  0  0  0  0  0  0
   -1.5627    3.2190    2.8181 H   0  0  0  0  0  0  0  0  0  0  0  0
   -0.9255    0.6334    2.7021 H   0  0  0  0  0  0  0  0  0  0  0  0
    0.1992    1.9473    2.8931 H   0  0  0  0  0  0  0  0  0  0  0  0
   -0.1609   -0.4047    4.7721 H   0  0  0  0  0  0  0  0  0  0  0  0
    1.6395    0.4152    6.1244 H   0  0  0  0  0  0  0  0  0  0  0  0
    1.9947    2.7059    4.1089 H   0  0  0  0  0  0  0  0  0  0  0  0
    2.9023    2.5261    5.5672 H   0  0  0  0  0  0  0  0  0  0  0  0
    4.1941    1.6325    3.7141 H   0  0  0  0  0  0  0  0  0  0  0  0
    4.3380    1.0274    5.7891 H   0  0  0  0  0  0  0  0  0  0  0  0
    1.8631    0.6229    1.0431 H   0  0  0  0  0  0  0  0  0  0  0  0
    3.5012    1.2261    1.2496 H   0  0  0  0  0  0  0  0  0  0  0  0
    2.1761    2.0287    2.0207 H   0  0  0  0  0  0  0  0  0  0  0  0
    0.9396   -0.9105    2.6017 H   0  0  0  0  0  0  0  0  0  0  0  0
    2.3142   -1.5019    5.2130 H   0  0  0  0  0  0  0  0  0  0  0  0
    0.7440   -3.1535    3.6670 H   0  0  0  0  0  0  0  0  0  0  0  0
    3.9614   -2.4365    4.3151 H   0  0  0  0  0  0  0  0  0  0  0  0
    4.5420   -5.4839    2.7261 H   0  0  0  0  0  0  0  0  0  0  0  0
    4.2841   -4.7354    4.2987 H   0  0  0  0  0  0  0  0  0  0  0  0
    5.4352   -4.0021    3.1559 H   0  0  0  0  0  0  0  0  0  0  0  0
    2.0677   -5.3960    3.1684 H   0  0  0  0  0  0  0  0  0  0  0  0
    1.2145   -4.0679    2.4193 H   0  0  0  0  0  0  0  0  0  0  0  0
    1.7910   -3.3680    0.0081 H   0  0  0  0  0  0  0  0  0  0  0  0
    3.8473   -4.5533   -1.4797 H   0  0  0  0  0  0  0  0  0  0  0  0
    4.5127   -2.1943   -2.1134 H   0  0  0  0  0  0  0  0  0  0  0  0
    2.8200   -2.1227   -1.8467 H   0  0  0  0  0  0  0  0  0  0  0  0
    5.0058   -1.0261   -0.0959 H   0  0  0  0  0  0  0  0  0  0  0  0
    3.4771   -0.3042   -0.5003 H   0  0  0  0  0  0  0  0  0  0  0  0
    2.2648   -1.5750    1.0173 H   0  0  0  0  0  0  0  0  0  0  0  0
    4.8635   -4.9642    0.6105 H   0  0  0  0  0  0  0  0  0  0  0  0
    5.6393   -3.3100    0.3190 H   0  0  0  0  0  0  0  0  0  0  0  0
    5.7331   -1.6359    1.9509 H   0  0  0  0  0  0  0  0  0  0  0  0
    5.4421    0.0906    1.9889 H   0  0  0  0  0  0  0  0  0  0  0  0
    5.0937   -0.4335    4.3510 H   0  0  0  0  0  0  0  0  0  0  0  0
  2  1  1  1
  1 37  1  0
  1 38  1  0
  1 39  1  0
  2  8  1  0
  2 13  1  0
  2  3  1  0
  3  4  1  0
  3 40  1  0
  3 41  1  0
  4  5  1  0
  4 42  1  0
  4 43  1  0
  5  6  1  0
  5  7  1  0
  5 44  1  6
  6 45  1  0
  7  8  1  0
  7 46  1  0
  7 47  1  0
  8  9  1  0
  8 48  1  6
  9 10  1  0
  9 11  1  0
  9 49  1  1
 10 50  1  0
 11 12  1  0
 11 51  1  0
 11 52  1  0
 12 19  1  0
 12 13  1  0
 12 53  1  1
 13 14  1  0
 13 54  1  1
 14 15  1  0
 14 55  1  0
 14 56  1  0
 15 16  1  0
 15 17  1  0
 15 57  1  6
 16 58  1  0
 17 34  1  0
 17 18  1  6
 17 19  1  0
 18 59  1  0
 18 60  1  0
 18 61  1  0
 19 20  1  0
 19 62  1  6
 20 21  1  0
 20 22  1  0
 20 63  1  1
 21 64  1  0
 22 34  1  0
 22 23  1  0
 22 65  1  1
 23 32  1  0
 23 24  1  1
 23 25  1  0
 24 66  1  0
 24 67  1  0
 24 68  1  0
 25 26  1  0
 25 69  1  0
 25 70  1  0
 26 27  1  0
 27 32  1  0
 27 28  1  0
 27 71  1  6
 28 33  1  0
 28 29  1  0
 28 72  1  6
 29 30  1  0
 29 73  1  0
 29 74  1  0
 30 31  1  0
 30 75  1  0
 30 76  1  0
 31 32  1  0
 31 34  1  0
 31 77  1  6
 32 33  1  6
 33 78  1  0
 33 79  1  0
 34 35  1  6
 35 36  1  0
 35 80  1  0
 35 81  1  0
 36 82  1  0
M  END
>  <i_m_ct_stereo_status>  (404) 
1

>  <s_m_source_file>  (404) 
/var/tmp/pbs.5076255.sched01/tmpg0s73j8k/135j_ekwz2c.sdf

>  <i_m_source_file_index>  (404) 
28

>  <i_lp_mmshare_version>  (404) 
48012

>  <i_f3d_flags>  (404) 
0

>  <s_epik_input>  (404) 
W0NIMl0xW0NIMl1bQ0BASF0oW09IXSlbQ0gyXVtDQEhdKFtDQEBIXShbT0hdKVtDSDJdMilbQ0BdMShbQ0gzXSlbQ0BIXShbQ0gyXVtDQEhdM1tPSF0pW0NAQEhdMltDQEhdKFtDQEhdNFtPSF0pW0NAXTMoW0NIM10pW0NAQF0oW0NIMl1bT0hdKShbQ0BASF00W0NAQF01KFtDQEBdNjc4KVtDSDNdKVtDQEhdN1tDSDJdW0NIMl1bQ0BASF0oW0NIMl04KVtDQEhdNk9bQ0gyXTU=

>  <s_epik_cmdline>  (404) 
J2VwaWtfcHl0aG9uJywgJy1waHQnLCAnMi4wJywgJy1waCcsICc3LjAnLCAnLXRuJywgJzgnLCAnLW1hJywgJzIwMCcsICctaW1hZScsICc8aW5maWxlLm1hZT4nLCAnLW9tYWUnLCAnPG91dGZpbGUubWFlPic=

>  <r_lp_tautomer_probability>  (404) 
1

>  <r_epik_Ionization_Penalty>  (404) 
7.93597e-06

>  <r_epik_Ionization_Penalty_Charging>  (404) 
0

>  <r_epik_Ionization_Penalty_Neutral>  (404) 
7.93597e-06

>  <r_epik_State_Penalty>  (404) 
-0

>  <r_epik_Charging_Adjusted_Penalty>  (404) 
0

>  <i_epik_Tot_Q>  (404) 
0

>  <i_epik_Tot_abs_Q>  (404) 
0

>  <s_lp_Force_Field>  (404) 
OPLS3e

>  <r_lp_Energy>  (404) 
122.116

>  <b_lp_Chiralities_Consistent>  (404) 
1

>  <s_lp_Variant>  (404) 
103:0-1

>  <s_i_glide_gridfile>  (404) 
pfpi4k_grid

>  <i_i_glide_lignum>  (404) 
28

>  <i_i_glide_rotatable_bonds>  (404) 
6

>  <r_i_docking_score>  (404) 
-2.39005

>  <r_i_glide_ligand_efficiency>  (404) 
-0.0663903

>  <r_i_glide_ligand_efficiency_sa>  (404) 
-0.219216

>  <r_i_glide_ligand_efficiency_ln>  (404) 
-0.521444

>  <r_i_glide_gscore>  (404) 
-2.39005

>  <r_i_glide_lipo>  (404) 
-0.36297

>  <r_i_glide_hbond>  (404) 
0

>  <r_i_glide_metal>  (404) 
-0

>  <r_i_glide_rewards>  (404) 
-0.5

>  <r_i_glide_evdw>  (404) 
-20.5632

>  <r_i_glide_ecoul>  (404) 
-3.86527

>  <r_i_glide_erotb>  (404) 
0.0808693

>  <r_i_glide_esite>  (404) 
0

>  <r_i_glide_emodel>  (404) 
-28.1216

>  <r_i_glide_energy>  (404) 
-24.4284

>  <r_i_glide_einternal>  (404) 
8.31195

>  <r_i_glide_intrahb_reward>  (404) 
-0.5

>  <i_i_glide_confnum>  (404) 
5

>  <i_i_glide_posenum>  (404) 
39

>  <r_i_glide_eff_state_penalty>  (404) 
0

>  <ligand_id>  (404) 
103

>  <original_smiles>  (404) 
CC12CCC(O)CC1C(O)CC1C2CC(O)C2(C)C1C(O)C1C3(C)COC4C5CCC(C43C5)C12CO

>  <smiles>  (404) 
[H]OC([H])([H])C12C([H])(C([H])(O[H])C3([H])C4([H])C([H])([H])C([H])(O[H])C5([H])C([H])([H])C([H])(O[H])C([H])([H])C([H])([H])C5(C([H])([H])[H])C4([H])C([H])([H])C([H])(O[H])C31C([H])([H])[H])C1(C([H])([H])[H])C([H])([H])OC3([H])C4([H])C([H])([H])C([H])([H])C2([H])C31C4([H])[H]

$$$$
105:0:0
     RDKit          3D

 56 59  0  0  1  0  0  0  0  0999 V2000
    7.8478   -1.6355    0.4380 O   0  0  0  0  0  0  0  0  0  0  0  0
    7.2020   -2.8879    0.3138 C   0  0  0  0  0  0  0  0  0  0  0  0
    5.6893   -2.6821    0.1036 C   0  0  2  0  0  0  0  0  0  0  0  0
    4.9658   -3.8454    0.5485 O   0  0  0  0  0  0  0  0  0  0  0  0
    3.5639   -3.8006    0.4576 C   0  0  1  0  0  0  0  0  0  0  0  0
    3.0097   -2.9770    1.5478 N   0  0  0  0  0  0  0  0  0  0  0  0
    3.1813   -1.6305    1.8324 C   0  0  0  0  0  0  0  0  0  0  0  0
    2.4719   -1.4368    2.9591 C   0  0  0  0  0  0  0  0  0  0  0  0
    2.3656   -0.1861    3.6661 C   0  0  0  0  0  0  0  0  0  0  0  0
    1.5143    0.2449    4.6186 C   0  0  0  0  0  0  0  0  0  0  0  0
    1.8805    1.5563    4.8274 N   0  0  0  0  0  0  0  0  0  0  0  0
    1.1809    2.5132    5.6839 C   0  0  2  0  0  0  0  0  0  0  0  0
   -0.2023    2.3075    5.4894 O   0  0  0  0  0  0  0  0  0  0  0  0
   -0.7710    2.6709    4.2073 C   0  0  1  0  0  0  0  0  0  0  0  0
   -2.2708    2.3287    4.2032 C   0  0  0  0  0  0  0  0  0  0  0  0
   -2.9275    2.8995    3.0865 O   0  0  0  0  0  0  0  0  0  0  0  0
   -0.4424    4.1477    3.8885 C   0  0  1  0  0  0  0  0  0  0  0  0
   -1.2098    4.9307    4.7428 O   0  0  0  0  0  0  0  0  0  0  0  0
    1.0436    4.4633    4.0729 C   0  0  1  0  0  0  0  0  0  0  0  0
    1.3689    5.8126    3.7744 O   0  0  0  0  0  0  0  0  0  0  0  0
    1.5415    4.0157    5.4767 C   0  0  1  0  0  0  0  0  0  0  0  0
    0.9840    4.7904    6.5479 O   0  0  0  0  0  0  0  0  0  0  0  0
    2.9935    1.8587    4.1166 N   0  0  0  0  0  0  0  0  0  0  0  0
    3.2312    0.8495    3.3718 N   0  0  0  0  0  0  0  0  0  0  0  0
    1.8553   -2.6234    3.3167 N   0  0  0  0  0  0  0  0  0  0  0  0
    2.2173   -3.5460    2.4962 N   0  0  0  0  0  0  0  0  0  0  0  0
    3.1004   -3.4428   -0.9688 C   0  0  1  0  0  0  0  0  0  0  0  0
    1.7039   -3.4580   -1.1153 O   0  0  0  0  0  0  0  0  0  0  0  0
    3.7964   -2.2409   -1.6002 C   0  0  1  0  0  0  0  0  0  0  0  0
    3.3840   -1.0515   -1.0040 O   0  0  0  0  0  0  0  0  0  0  0  0
    5.2959   -2.3508   -1.3713 C   0  0  1  0  0  0  0  0  0  0  0  0
    5.7968   -1.0611   -1.6998 O   0  0  0  0  0  0  0  0  0  0  0  0
    7.4558   -1.1340    1.1373 H   0  0  0  0  0  0  0  0  0  0  0  0
    7.6725   -3.4780   -0.4706 H   0  0  0  0  0  0  0  0  0  0  0  0
    7.3782   -3.4066    1.2485 H   0  0  0  0  0  0  0  0  0  0  0  0
    5.4152   -1.8554    0.8036 H   0  0  0  0  0  0  0  0  0  0  0  0
    3.2444   -4.8046    0.6639 H   0  0  0  0  0  0  0  0  0  0  0  0
    3.7392   -0.8740    1.2838 H   0  0  0  0  0  0  0  0  0  0  0  0
    0.6806   -0.2627    5.0689 H   0  0  0  0  0  0  0  0  0  0  0  0
    1.4366    2.2013    6.6932 H   0  0  0  0  0  0  0  0  0  0  0  0
   -0.3110    2.0617    3.4171 H   0  0  0  0  0  0  0  0  0  0  0  0
   -2.4205    1.2508    4.1856 H   0  0  0  0  0  0  0  0  0  0  0  0
   -2.7782    2.6830    5.1041 H   0  0  0  0  0  0  0  0  0  0  0  0
   -2.4888    2.6211    2.3013 H   0  0  0  0  0  0  0  0  0  0  0  0
   -0.7270    4.3575    2.8554 H   0  0  0  0  0  0  0  0  0  0  0  0
   -0.8191    4.8415    5.5966 H   0  0  0  0  0  0  0  0  0  0  0  0
    1.5510    3.9012    3.3017 H   0  0  0  0  0  0  0  0  0  0  0  0
    0.9952    6.0289    2.9342 H   0  0  0  0  0  0  0  0  0  0  0  0
    2.6304    4.1579    5.5427 H   0  0  0  0  0  0  0  0  0  0  0  0
    1.4097    4.5777    7.3641 H   0  0  0  0  0  0  0  0  0  0  0  0
    3.5188   -4.2497   -1.5736 H   0  0  0  0  0  0  0  0  0  0  0  0
    1.3477   -2.5869   -1.1258 H   0  0  0  0  0  0  0  0  0  0  0  0
    3.5480   -2.2667   -2.6656 H   0  0  0  0  0  0  0  0  0  0  0  0
    2.4182   -0.9678   -1.0076 H   0  0  0  0  0  0  0  0  0  0  0  0
    5.6817   -3.0925   -2.0559 H   0  0  0  0  0  0  0  0  0  0  0  0
    5.2375   -0.4630   -1.2002 H   0  0  0  0  0  0  0  0  0  0  0  0
  1  2  1  0
  1 33  1  0
  2  3  1  0
  2 34  1  0
  2 35  1  0
  3 31  1  0
  3  4  1  0
  3 36  1  1
  4  5  1  0
  5  6  1  0
  5 27  1  0
  5 37  1  1
  6 26  1  0
  6  7  1  0
  7  8  2  0
  7 38  1  0
  8  9  1  0
  8 25  1  0
  9 24  1  0
  9 10  2  0
 10 11  1  0
 10 39  1  0
 11 12  1  0
 11 23  1  0
 12 21  1  0
 12 13  1  0
 12 40  1  1
 13 14  1  0
 14 15  1  0
 14 17  1  0
 14 41  1  6
 15 16  1  0
 15 42  1  0
 15 43  1  0
 16 44  1  0
 17 18  1  0
 17 19  1  0
 17 45  1  6
 18 46  1  0
 19 20  1  0
 19 21  1  0
 19 47  1  6
 20 48  1  0
 21 22  1  0
 21 49  1  6
 22 50  1  0
 23 24  2  0
 25 26  2  0
 27 28  1  0
 27 29  1  0
 27 51  1  6
 28 52  1  0
 29 30  1  0
 29 31  1  0
 29 53  1  6
 30 54  1  0
 31 32  1  0
 31 55  1  6
 32 56  1  0
M  END
>  <i_m_ct_stereo_status>  (405) 
1

>  <s_m_source_file>  (405) 
/var/tmp/pbs.5076255.sched01/tmpg0s73j8k/135j_ekwz2c.sdf

>  <i_m_source_file_index>  (405) 
31

>  <i_lp_mmshare_version>  (405) 
48012

>  <i_f3d_flags>  (405) 
0

>  <s_epik_input>  (405) 
W09IXVtDSDJdW0NAQEhdMU9bQ0BIXShbQ0BASF0oW09IXSlbQ0BASF0oW09IXSlbQ0BIXTFbT0hdKW4yW2NIXWMobm4yKS1jM1tjSF1uKG5uMylbQ0BASF00T1tDQEBIXShbQ0gyXVtPSF0pW0NAQEhdKFtPSF0pW0NAQEhdKFtPSF0pW0NASF00W09IXQ==

>  <s_epik_cmdline>  (405) 
J2VwaWtfcHl0aG9uJywgJy1waHQnLCAnMi4wJywgJy1waCcsICc3LjAnLCAnLXRuJywgJzgnLCAnLW1hJywgJzIwMCcsICctaW1hZScsICc8aW5maWxlLm1hZT4nLCAnLW9tYWUnLCAnPG91dGZpbGUubWFlPic=

>  <r_lp_tautomer_probability>  (405) 
1

>  <r_epik_Ionization_Penalty>  (405) 
7.98181e-05

>  <r_epik_Ionization_Penalty_Charging>  (405) 
0

>  <r_epik_Ionization_Penalty_Neutral>  (405) 
7.98181e-05

>  <r_epik_State_Penalty>  (405) 
-0

>  <r_epik_Charging_Adjusted_Penalty>  (405) 
0

>  <i_epik_Tot_Q>  (405) 
0

>  <i_epik_Tot_abs_Q>  (405) 
0

>  <s_epik_Chemistry_Notes>  (405) 
This compound contains an acetal/aminal-like group ( X-CH(R)-Y where X, Y are N, S, or O) that may be acid/base labile, releasing an aldehyde.

>  <s_lp_Force_Field>  (405) 
OPLS3e

>  <r_lp_Energy>  (405) 
29.2838

>  <b_lp_Chiralities_Consistent>  (405) 
1

>  <s_lp_Variant>  (405) 
105:0-1

>  <s_i_glide_gridfile>  (405) 
pfpi4k_grid

>  <i_i_glide_lignum>  (405) 
31

>  <i_i_glide_rotatable_bonds>  (405) 
13

>  <r_i_docking_score>  (405) 
-4.0419

>  <r_i_glide_ligand_efficiency>  (405) 
-0.126309

>  <r_i_glide_ligand_efficiency_sa>  (405) 
-0.401007

>  <r_i_glide_ligand_efficiency_ln>  (405) 
-0.905092

>  <r_i_glide_gscore>  (405) 
-4.0419

>  <r_i_glide_lipo>  (405) 
-0.241479

>  <r_i_glide_hbond>  (405) 
0

>  <r_i_glide_metal>  (405) 
-0

>  <r_i_glide_rewards>  (405) 
-0.770028

>  <r_i_glide_evdw>  (405) 
-17.1986

>  <r_i_glide_ecoul>  (405) 
-16.4906

>  <r_i_glide_erotb>  (405) 
0.332359

>  <r_i_glide_esite>  (405) 
-0.0292267

>  <r_i_glide_emodel>  (405) 
-43.8339

>  <r_i_glide_energy>  (405) 
-33.6893

>  <r_i_glide_einternal>  (405) 
10.9951

>  <r_i_glide_intrahb_reward>  (405) 
-0.5

>  <i_i_glide_confnum>  (405) 
4

>  <i_i_glide_posenum>  (405) 
4

>  <r_i_glide_eff_state_penalty>  (405) 
0

>  <ligand_id>  (405) 
105

>  <original_smiles>  (405) 
OCC1OC(n2cc(-c3cn(C4OC(CO)C(O)C(O)C4O)nn3)nn2)C(O)C(O)C1O

>  <smiles>  (405) 
[H]OC([H])([H])C1([H])OC([H])(n2nnc(-c3nnn(C4([H])OC([H])(C([H])([H])O[H])C([H])(O[H])C([H])(O[H])C4([H])O[H])c3[H])c2[H])C([H])(O[H])C([H])(O[H])C1([H])O[H]

$$$$
105:0:1
     RDKit          3D

 56 59  0  0  1  0  0  0  0  0999 V2000
    2.2345   -3.5872   -4.2873 O   0  0  0  0  0  0  0  0  0  0  0  0
    2.3590   -2.3451   -3.6451 C   0  0  0  0  0  0  0  0  0  0  0  0
    3.4393   -2.5044   -2.5931 C   0  0  2  0  0  0  0  0  0  0  0  0
    3.4118   -1.3331   -1.7873 O   0  0  0  0  0  0  0  0  0  0  0  0
    4.3161   -1.3076   -0.7159 C   0  0  1  0  0  0  0  0  0  0  0  0
    3.8972   -2.2377    0.3544 N   0  0  0  0  0  0  0  0  0  0  0  0
    3.6977   -3.6141    0.3187 C   0  0  0  0  0  0  0  0  0  0  0  0
    3.3063   -3.9171    1.5992 C   0  0  0  0  0  0  0  0  0  0  0  0
    2.9360   -5.2592    2.0702 C   0  0  0  0  0  0  0  0  0  0  0  0
    2.5394   -5.6693    3.3136 C   0  0  0  0  0  0  0  0  0  0  0  0
    2.3826   -7.0379    3.1853 N   0  0  0  0  0  0  0  0  0  0  0  0
    2.0169   -8.0006    4.2014 C   0  0  2  0  0  0  0  0  0  0  0  0
    1.2745   -7.3023    5.1676 O   0  0  0  0  0  0  0  0  0  0  0  0
    0.7560   -8.1188    6.2128 C   0  0  1  0  0  0  0  0  0  0  0  0
   -0.2356   -9.1973    5.6728 C   0  0  0  0  0  0  0  0  0  0  0  0
   -1.3642   -8.6516    5.0184 O   0  0  0  0  0  0  0  0  0  0  0  0
    1.9565   -8.7378    6.9717 C   0  0  1  0  0  0  0  0  0  0  0  0
    1.5540   -9.5134    8.0805 O   0  0  0  0  0  0  0  0  0  0  0  0
    2.9128   -9.5082    6.0431 C   0  0  1  0  0  0  0  0  0  0  0  0
    2.3444  -10.7278    5.5780 O   0  0  0  0  0  0  0  0  0  0  0  0
    3.2894   -8.6053    4.8553 C   0  0  1  0  0  0  0  0  0  0  0  0
    4.0438   -9.3599    3.9267 O   0  0  0  0  0  0  0  0  0  0  0  0
    2.6204   -7.4274    1.9137 N   0  0  0  0  0  0  0  0  0  0  0  0
    2.9677   -6.3461    1.2379 N   0  0  0  0  0  0  0  0  0  0  0  0
    3.2711   -2.7872    2.3625 N   0  0  0  0  0  0  0  0  0  0  0  0
    3.6350   -1.7658    1.6016 N   0  0  0  0  0  0  0  0  0  0  0  0
    5.7599   -1.4682   -1.2369 C   0  0  1  0  0  0  0  0  0  0  0  0
    6.7090   -1.4615   -0.1891 O   0  0  0  0  0  0  0  0  0  0  0  0
    5.9622   -2.7011   -2.1193 C   0  0  1  0  0  0  0  0  0  0  0  0
    6.0114   -3.8488   -1.3253 O   0  0  0  0  0  0  0  0  0  0  0  0
    4.8571   -2.7318   -3.1858 C   0  0  1  0  0  0  0  0  0  0  0  0
    4.9889   -3.9869   -3.8251 O   0  0  0  0  0  0  0  0  0  0  0  0
    1.5325   -4.1624   -3.8989 H   0  0  0  0  0  0  0  0  0  0  0  0
    2.4827   -1.5219   -4.3771 H   0  0  0  0  0  0  0  0  0  0  0  0
    1.4370   -2.2563   -3.0872 H   0  0  0  0  0  0  0  0  0  0  0  0
    3.0778   -3.3688   -2.0227 H   0  0  0  0  0  0  0  0  0  0  0  0
    4.2424   -0.2991   -0.2849 H   0  0  0  0  0  0  0  0  0  0  0  0
    3.8299   -4.3381   -0.4680 H   0  0  0  0  0  0  0  0  0  0  0  0
    2.4114   -5.0969    4.2035 H   0  0  0  0  0  0  0  0  0  0  0  0
    1.4014   -8.7206    3.6657 H   0  0  0  0  0  0  0  0  0  0  0  0
    0.2231   -7.4477    6.8956 H   0  0  0  0  0  0  0  0  0  0  0  0
    0.1753   -9.8914    4.9309 H   0  0  0  0  0  0  0  0  0  0  0  0
   -0.5893   -9.8252    6.5059 H   0  0  0  0  0  0  0  0  0  0  0  0
   -1.9007   -9.4399    4.8676 H   0  0  0  0  0  0  0  0  0  0  0  0
    2.4962   -7.9074    7.4200 H   0  0  0  0  0  0  0  0  0  0  0  0
    1.4160  -10.4194    7.7988 H   0  0  0  0  0  0  0  0  0  0  0  0
    3.8118   -9.7450    6.6052 H   0  0  0  0  0  0  0  0  0  0  0  0
    2.0415  -11.2791    6.3079 H   0  0  0  0  0  0  0  0  0  0  0  0
    3.8975   -7.7633    5.1999 H   0  0  0  0  0  0  0  0  0  0  0  0
    3.4881  -10.0851    3.6529 H   0  0  0  0  0  0  0  0  0  0  0  0
    5.8931   -0.5910   -1.8493 H   0  0  0  0  0  0  0  0  0  0  0  0
    6.5573   -2.2319    0.3512 H   0  0  0  0  0  0  0  0  0  0  0  0
    6.9114   -2.6279   -2.6591 H   0  0  0  0  0  0  0  0  0  0  0  0
    5.7491   -4.5684   -1.9053 H   0  0  0  0  0  0  0  0  0  0  0  0
    5.0405   -1.9404   -3.9300 H   0  0  0  0  0  0  0  0  0  0  0  0
    4.4006   -4.6052   -3.3951 H   0  0  0  0  0  0  0  0  0  0  0  0
  1  2  1  0
  1 33  1  0
  2  3  1  0
  2 34  1  0
  2 35  1  0
  3 31  1  0
  3  4  1  0
  3 36  1  1
  4  5  1  0
  5  6  1  0
  5 27  1  0
  5 37  1  1
  6 26  1  0
  6  7  1  0
  7  8  2  0
  7 38  1  0
  8  9  1  0
  8 25  1  0
  9 24  1  0
  9 10  2  0
 10 11  1  0
 10 39  1  0
 11 12  1  0
 11 23  1  0
 12 21  1  0
 12 13  1  0
 12 40  1  6
 13 14  1  0
 14 15  1  0
 14 17  1  0
 14 41  1  1
 15 16  1  0
 15 42  1  0
 15 43  1  0
 16 44  1  0
 17 18  1  0
 17 19  1  0
 17 45  1  1
 18 46  1  0
 19 20  1  0
 19 21  1  0
 19 47  1  1
 20 48  1  0
 21 22  1  0
 21 49  1  1
 22 50  1  0
 23 24  2  0
 25 26  2  0
 27 28  1  0
 27 29  1  0
 27 51  1  6
 28 52  1  0
 29 30  1  0
 29 31  1  0
 29 53  1  6
 30 54  1  0
 31 32  1  0
 31 55  1  6
 32 56  1  0
M  END
>  <i_m_ct_stereo_status>  (406) 
1

>  <s_m_source_file>  (406) 
/var/tmp/pbs.5076255.sched01/tmpg0s73j8k/135j_ekwz2c.sdf

>  <i_m_source_file_index>  (406) 
31

>  <i_lp_mmshare_version>  (406) 
48012

>  <i_f3d_flags>  (406) 
0

>  <s_epik_input>  (406) 
W09IXVtDSDJdW0NAQEhdMU9bQ0BIXShbQ0BASF0oW09IXSlbQ0BASF0oW09IXSlbQ0BIXTFbT0hdKW4yW2NIXWMobm4yKS1jM1tjSF1uKG5uMylbQ0BASF00T1tDQEBIXShbQ0gyXVtPSF0pW0NAQEhdKFtPSF0pW0NAQEhdKFtPSF0pW0NASF00W09IXQ==

>  <s_epik_cmdline>  (406) 
J2VwaWtfcHl0aG9uJywgJy1waHQnLCAnMi4wJywgJy1waCcsICc3LjAnLCAnLXRuJywgJzgnLCAnLW1hJywgJzIwMCcsICctaW1hZScsICc8aW5maWxlLm1hZT4nLCAnLW9tYWUnLCAnPG91dGZpbGUubWFlPic=

>  <r_lp_tautomer_probability>  (406) 
1

>  <r_epik_Ionization_Penalty>  (406) 
7.98181e-05

>  <r_epik_Ionization_Penalty_Charging>  (406) 
0

>  <r_epik_Ionization_Penalty_Neutral>  (406) 
7.98181e-05

>  <r_epik_State_Penalty>  (406) 
-0

>  <r_epik_Charging_Adjusted_Penalty>  (406) 
0

>  <i_epik_Tot_Q>  (406) 
0

>  <i_epik_Tot_abs_Q>  (406) 
0

>  <s_epik_Chemistry_Notes>  (406) 
This compound contains an acetal/aminal-like group ( X-CH(R)-Y where X, Y are N, S, or O) that may be acid/base labile, releasing an aldehyde.

>  <s_lp_Force_Field>  (406) 
OPLS3e

>  <r_lp_Energy>  (406) 
29.2838

>  <b_lp_Chiralities_Consistent>  (406) 
1

>  <s_lp_Variant>  (406) 
105:0-1

>  <s_i_glide_gridfile>  (406) 
pfpi4k_grid

>  <i_i_glide_lignum>  (406) 
31

>  <i_i_glide_rotatable_bonds>  (406) 
13

>  <r_i_docking_score>  (406) 
-3.97782

>  <r_i_glide_ligand_efficiency>  (406) 
-0.124307

>  <r_i_glide_ligand_efficiency_sa>  (406) 
-0.39465

>  <r_i_glide_ligand_efficiency_ln>  (406) 
-0.890743

>  <r_i_glide_gscore>  (406) 
-3.97782

>  <r_i_glide_lipo>  (406) 
-0.441193

>  <r_i_glide_hbond>  (406) 
0

>  <r_i_glide_metal>  (406) 
-0

>  <r_i_glide_rewards>  (406) 
-0.270028

>  <r_i_glide_evdw>  (406) 
-21.1406

>  <r_i_glide_ecoul>  (406) 
-21.4609

>  <r_i_glide_erotb>  (406) 
0.474799

>  <r_i_glide_esite>  (406) 
-0.0869404

>  <r_i_glide_emodel>  (406) 
-46.3546

>  <r_i_glide_energy>  (406) 
-42.6015

>  <r_i_glide_einternal>  (406) 
11.2722

>  <r_i_glide_intrahb_reward>  (406) 
-0

>  <i_i_glide_confnum>  (406) 
3

>  <i_i_glide_posenum>  (406) 
11

>  <r_i_glide_eff_state_penalty>  (406) 
0

>  <ligand_id>  (406) 
105

>  <original_smiles>  (406) 
OCC1OC(n2cc(-c3cn(C4OC(CO)C(O)C(O)C4O)nn3)nn2)C(O)C(O)C1O

>  <smiles>  (406) 
[H]OC([H])([H])C1([H])OC([H])(n2nnc(-c3nnn(C4([H])OC([H])(C([H])([H])O[H])C([H])(O[H])C([H])(O[H])C4([H])O[H])c3[H])c2[H])C([H])(O[H])C([H])(O[H])C1([H])O[H]

$$$$
105:0:2
     RDKit          3D

 56 59  0  0  1  0  0  0  0  0999 V2000
   -2.2626    0.7502    6.8678 O   0  0  0  0  0  0  0  0  0  0  0  0
   -0.9883    1.3463    6.8899 C   0  0  0  0  0  0  0  0  0  0  0  0
   -0.3268    1.1922    5.5038 C   0  0  2  0  0  0  0  0  0  0  0  0
    1.0963    1.3168    5.6792 O   0  0  0  0  0  0  0  0  0  0  0  0
    1.8944    1.1344    4.5362 C   0  0  1  0  0  0  0  0  0  0  0  0
    1.8705   -0.2767    4.1685 N   0  0  0  0  0  0  0  0  0  0  0  0
    1.5215   -1.3640    4.9577 C   0  0  0  0  0  0  0  0  0  0  0  0
    1.7009   -2.4385    4.1504 C   0  0  0  0  0  0  0  0  0  0  0  0
    1.5097   -3.8431    4.4305 C   0  0  0  0  0  0  0  0  0  0  0  0
    1.9005   -4.9399    3.7332 C   0  0  0  0  0  0  0  0  0  0  0  0
    1.4035   -6.0074    4.4670 N   0  0  0  0  0  0  0  0  0  0  0  0
    1.4352   -7.4218    4.1079 C   0  0  2  0  0  0  0  0  0  0  0  0
    1.4247   -7.4888    2.6993 O   0  0  0  0  0  0  0  0  0  0  0  0
    0.2349   -7.0381    2.0292 C   0  0  1  0  0  0  0  0  0  0  0  0
    0.4298   -7.1147    0.5305 C   0  0  0  0  0  0  0  0  0  0  0  0
    1.0121   -5.9113    0.0543 O   0  0  0  0  0  0  0  0  0  0  0  0
   -1.0052   -7.7899    2.5134 C   0  0  1  0  0  0  0  0  0  0  0  0
   -1.0260   -9.1195    2.0847 O   0  0  0  0  0  0  0  0  0  0  0  0
   -1.0521   -7.7652    4.0261 C   0  0  1  0  0  0  0  0  0  0  0  0
   -2.1510   -8.5020    4.4482 O   0  0  0  0  0  0  0  0  0  0  0  0
    0.2482   -8.2615    4.6832 C   0  0  1  0  0  0  0  0  0  0  0  0
    0.4467   -9.6633    4.5002 O   0  0  0  0  0  0  0  0  0  0  0  0
    0.8600   -5.5659    5.6222 N   0  0  0  0  0  0  0  0  0  0  0  0
    0.8673   -4.2666    5.5828 N   0  0  0  0  0  0  0  0  0  0  0  0
    2.1917   -1.9923    2.9363 N   0  0  0  0  0  0  0  0  0  0  0  0
    2.3169   -0.7013    2.9697 N   0  0  0  0  0  0  0  0  0  0  0  0
    1.4715    2.1702    3.4493 C   0  0  1  0  0  0  0  0  0  0  0  0
    2.1680    2.0780    2.2257 O   0  0  0  0  0  0  0  0  0  0  0  0
   -0.0375    2.1221    3.1592 C   0  0  1  0  0  0  0  0  0  0  0  0
   -0.4050    0.9371    2.4611 O   0  0  0  0  0  0  0  0  0  0  0  0
   -0.8088    2.2409    4.4795 C   0  0  1  0  0  0  0  0  0  0  0  0
   -2.1803    2.0892    4.1887 O   0  0  0  0  0  0  0  0  0  0  0  0
   -2.7266    1.1435    6.1388 H   0  0  0  0  0  0  0  0  0  0  0  0
   -1.1041    2.3917    7.1806 H   0  0  0  0  0  0  0  0  0  0  0  0
   -0.4096    0.8549    7.6739 H   0  0  0  0  0  0  0  0  0  0  0  0
   -0.5768    0.1983    5.1236 H   0  0  0  0  0  0  0  0  0  0  0  0
    2.9232    1.3428    4.8409 H   0  0  0  0  0  0  0  0  0  0  0  0
    1.1937   -1.3055    5.9909 H   0  0  0  0  0  0  0  0  0  0  0  0
    2.4360   -5.0306    2.7910 H   0  0  0  0  0  0  0  0  0  0  0  0
    2.3858   -7.8110    4.4647 H   0  0  0  0  0  0  0  0  0  0  0  0
    0.0285   -5.9836    2.2200 H   0  0  0  0  0  0  0  0  0  0  0  0
    0.9982   -7.9924    0.2843 H   0  0  0  0  0  0  0  0  0  0  0  0
   -0.5524   -7.2293    0.0803 H   0  0  0  0  0  0  0  0  0  0  0  0
    1.9570   -6.0338   -0.0173 H   0  0  0  0  0  0  0  0  0  0  0  0
   -1.8886   -7.2912    2.1093 H   0  0  0  0  0  0  0  0  0  0  0  0
   -0.2449   -9.5332    2.4699 H   0  0  0  0  0  0  0  0  0  0  0  0
   -1.2386   -6.7362    4.3268 H   0  0  0  0  0  0  0  0  0  0  0  0
   -1.9598   -9.4326    4.4471 H   0  0  0  0  0  0  0  0  0  0  0  0
    0.2017   -8.1250    5.7647 H   0  0  0  0  0  0  0  0  0  0  0  0
   -0.2936  -10.1556    4.8473 H   0  0  0  0  0  0  0  0  0  0  0  0
    1.7380    3.1396    3.8800 H   0  0  0  0  0  0  0  0  0  0  0  0
    1.9466    1.2526    1.8243 H   0  0  0  0  0  0  0  0  0  0  0  0
   -0.3056    2.9608    2.5204 H   0  0  0  0  0  0  0  0  0  0  0  0
   -0.1459    1.0308    1.5522 H   0  0  0  0  0  0  0  0  0  0  0  0
   -0.6562    3.2350    4.9004 H   0  0  0  0  0  0  0  0  0  0  0  0
   -2.2729    1.3276    3.6285 H   0  0  0  0  0  0  0  0  0  0  0  0
  1  2  1  0
  1 33  1  0
  2  3  1  0
  2 34  1  0
  2 35  1  0
  3 31  1  0
  3  4  1  0
  3 36  1  6
  4  5  1  0
  5  6  1  0
  5 27  1  0
  5 37  1  1
  6 26  1  0
  6  7  1  0
  7  8  2  0
  7 38  1  0
  8  9  1  0
  8 25  1  0
  9 24  1  0
  9 10  2  0
 10 11  1  0
 10 39  1  0
 11 12  1  0
 11 23  1  0
 12 21  1  0
 12 13  1  0
 12 40  1  1
 13 14  1  0
 14 15  1  0
 14 17  1  0
 14 41  1  6
 15 16  1  0
 15 42  1  0
 15 43  1  0
 16 44  1  0
 17 18  1  0
 17 19  1  0
 17 45  1  6
 18 46  1  0
 19 20  1  0
 19 21  1  0
 19 47  1  6
 20 48  1  0
 21 22  1  0
 21 49  1  1
 22 50  1  0
 23 24  2  0
 25 26  2  0
 27 28  1  0
 27 29  1  0
 27 51  1  1
 28 52  1  0
 29 30  1  0
 29 31  1  0
 29 53  1  6
 30 54  1  0
 31 32  1  0
 31 55  1  1
 32 56  1  0
M  END
>  <i_m_ct_stereo_status>  (407) 
1

>  <s_m_source_file>  (407) 
/var/tmp/pbs.5076255.sched01/tmpg0s73j8k/135j_ekwz2c.sdf

>  <i_m_source_file_index>  (407) 
31

>  <i_lp_mmshare_version>  (407) 
48012

>  <i_f3d_flags>  (407) 
0

>  <s_epik_input>  (407) 
W09IXVtDSDJdW0NAQEhdMU9bQ0BIXShbQ0BASF0oW09IXSlbQ0BASF0oW09IXSlbQ0BIXTFbT0hdKW4yW2NIXWMobm4yKS1jM1tjSF1uKG5uMylbQ0BASF00T1tDQEBIXShbQ0gyXVtPSF0pW0NAQEhdKFtPSF0pW0NAQEhdKFtPSF0pW0NASF00W09IXQ==

>  <s_epik_cmdline>  (407) 
J2VwaWtfcHl0aG9uJywgJy1waHQnLCAnMi4wJywgJy1waCcsICc3LjAnLCAnLXRuJywgJzgnLCAnLW1hJywgJzIwMCcsICctaW1hZScsICc8aW5maWxlLm1hZT4nLCAnLW9tYWUnLCAnPG91dGZpbGUubWFlPic=

>  <r_lp_tautomer_probability>  (407) 
1

>  <r_epik_Ionization_Penalty>  (407) 
7.98181e-05

>  <r_epik_Ionization_Penalty_Charging>  (407) 
0

>  <r_epik_Ionization_Penalty_Neutral>  (407) 
7.98181e-05

>  <r_epik_State_Penalty>  (407) 
-0

>  <r_epik_Charging_Adjusted_Penalty>  (407) 
0

>  <i_epik_Tot_Q>  (407) 
0

>  <i_epik_Tot_abs_Q>  (407) 
0

>  <s_epik_Chemistry_Notes>  (407) 
This compound contains an acetal/aminal-like group ( X-CH(R)-Y where X, Y are N, S, or O) that may be acid/base labile, releasing an aldehyde.

>  <s_lp_Force_Field>  (407) 
OPLS3e

>  <r_lp_Energy>  (407) 
29.2838

>  <b_lp_Chiralities_Consistent>  (407) 
1

>  <s_lp_Variant>  (407) 
105:0-1

>  <s_i_glide_gridfile>  (407) 
pfpi4k_grid

>  <i_i_glide_lignum>  (407) 
31

>  <i_i_glide_rotatable_bonds>  (407) 
13

>  <r_i_docking_score>  (407) 
-3.72441

>  <r_i_glide_ligand_efficiency>  (407) 
-0.116388

>  <r_i_glide_ligand_efficiency_sa>  (407) 
-0.369508

>  <r_i_glide_ligand_efficiency_ln>  (407) 
-0.833997

>  <r_i_glide_gscore>  (407) 
-3.72441

>  <r_i_glide_lipo>  (407) 
-0.0167636

>  <r_i_glide_hbond>  (407) 
0

>  <r_i_glide_metal>  (407) 
-0

>  <r_i_glide_rewards>  (407) 
-1.27003

>  <r_i_glide_evdw>  (407) 
-14.9409

>  <r_i_glide_ecoul>  (407) 
-14.2087

>  <r_i_glide_erotb>  (407) 
0.474799

>  <r_i_glide_esite>  (407) 
-0.0340612

>  <r_i_glide_emodel>  (407) 
-48.2163

>  <r_i_glide_energy>  (407) 
-29.1496

>  <r_i_glide_einternal>  (407) 
3.17617

>  <r_i_glide_intrahb_reward>  (407) 
-1

>  <i_i_glide_confnum>  (407) 
2

>  <i_i_glide_posenum>  (407) 
38

>  <r_i_glide_eff_state_penalty>  (407) 
0

>  <ligand_id>  (407) 
105

>  <original_smiles>  (407) 
OCC1OC(n2cc(-c3cn(C4OC(CO)C(O)C(O)C4O)nn3)nn2)C(O)C(O)C1O

>  <smiles>  (407) 
[H]OC([H])([H])C1([H])OC([H])(n2nnc(-c3nnn(C4([H])OC([H])(C([H])([H])O[H])C([H])(O[H])C([H])(O[H])C4([H])O[H])c3[H])c2[H])C([H])(O[H])C([H])(O[H])C1([H])O[H]

$$$$
106:0:0
     RDKit          3D

 41 45  0  0  1  0  0  0  0  0999 V2000
    3.9147   -3.1478   -3.2799 C   0  0  0  0  0  0  0  0  0  0  0  0
    3.5308   -2.7757   -1.8345 C   0  0  2  0  0  0  0  0  0  0  0  0
    3.0133   -1.4663   -1.9159 O   0  0  0  0  0  0  0  0  0  0  0  0
    4.7054   -2.8367   -0.8014 C   0  0  2  0  0  0  0  0  0  0  0  0
    5.5039   -4.1700   -0.7859 C   0  0  0  0  0  0  0  0  0  0  0  0
    5.1569   -4.9898    0.4561 C   0  0  2  0  0  0  0  0  0  0  0  0
    3.6416   -5.3071    0.4651 C   0  0  0  0  0  0  0  0  0  0  0  0
    2.8550   -4.4382    1.4676 C   0  0  2  0  0  0  0  0  0  0  0  0
    2.9913   -2.9033    1.2601 C   0  0  0  0  0  0  0  0  0  0  0  0
    2.5829   -2.2131    2.3481 C   0  0  0  0  0  0  0  0  0  0  0  0
    3.6994   -1.8500    3.3350 C   0  0  0  0  0  0  0  0  0  0  0  0
    4.9458   -2.7515    3.0751 C   0  0  1  0  0  0  0  0  0  0  0  0
    4.7402   -4.2793    2.9817 C   0  0  2  0  0  0  0  0  0  0  0  0
    5.6240   -4.2427    1.7316 C   0  0  2  0  0  0  0  0  0  0  0  0
    5.3750   -2.7881    1.6551 N   0  0  1  0  0  0  0  0  0  0  0  0
    4.3312   -2.3982    0.6628 C   0  0  1  0  0  0  0  0  0  0  0  0
    4.4603   -0.6043    0.6590 Cl  0  0  0  0  0  0  0  0  0  0  0  0
    3.3549   -4.7838    2.8186 N   0  0  0  0  0  0  0  0  0  0  0  0
    3.1363   -6.1567    3.2621 C   0  0  0  0  0  0  0  0  0  0  0  0
    4.0982   -4.2146   -3.3947 H   0  0  0  0  0  0  0  0  0  0  0  0
    4.8049   -2.6175   -3.6228 H   0  0  0  0  0  0  0  0  0  0  0  0
    3.1049   -2.9039   -3.9666 H   0  0  0  0  0  0  0  0  0  0  0  0
    2.6978   -3.4055   -1.5207 H   0  0  0  0  0  0  0  0  0  0  0  0
    2.1115   -1.4505   -1.5505 H   0  0  0  0  0  0  0  0  0  0  0  0
    5.4445   -2.1187   -1.1633 H   0  0  0  0  0  0  0  0  0  0  0  0
    5.3319   -4.7543   -1.6870 H   0  0  0  0  0  0  0  0  0  0  0  0
    6.5755   -3.9570   -0.7628 H   0  0  0  0  0  0  0  0  0  0  0  0
    5.6865   -5.9407    0.3829 H   0  0  0  0  0  0  0  0  0  0  0  0
    3.2104   -5.2046   -0.5260 H   0  0  0  0  0  0  0  0  0  0  0  0
    3.4945   -6.3665    0.6768 H   0  0  0  0  0  0  0  0  0  0  0  0
    1.7986   -4.6910    1.4340 H   0  0  0  0  0  0  0  0  0  0  0  0
    1.7448   -2.6294    2.8875 H   0  0  0  0  0  0  0  0  0  0  0  0
    3.9362   -0.7845    3.2718 H   0  0  0  0  0  0  0  0  0  0  0  0
    3.3293   -2.0120    4.3491 H   0  0  0  0  0  0  0  0  0  0  0  0
    5.8043   -2.5119    3.7079 H   0  0  0  0  0  0  0  0  0  0  0  0
    5.2264   -4.7837    3.8153 H   0  0  0  0  0  0  0  0  0  0  0  0
    6.6781   -4.3949    1.9728 H   0  0  0  0  0  0  0  0  0  0  0  0
    3.3165   -6.2437    4.3339 H   0  0  0  0  0  0  0  0  0  0  0  0
    3.7712   -6.8815    2.7555 H   0  0  0  0  0  0  0  0  0  0  0  0
    2.0956   -6.4312    3.0889 H   0  0  0  0  0  0  0  0  0  0  0  0
    6.2268   -2.2623    1.5083 H   0  0  0  0  0  0  0  0  0  0  0  0
  1  2  1  0
  1 20  1  0
  1 21  1  0
  1 22  1  0
  2  3  1  0
  2  4  1  0
  2 23  1  1
  3 24  1  0
  4 16  1  0
  4  5  1  0
  4 25  1  6
  5  6  1  0
  5 26  1  0
  5 27  1  0
  6 14  1  0
  6  7  1  0
  6 28  1  6
  7  8  1  0
  7 29  1  0
  7 30  1  0
  8 18  1  0
  8  9  1  0
  8 31  1  1
  9 16  1  0
  9 10  2  0
 10 11  1  0
 10 32  1  0
 11 12  1  0
 11 33  1  0
 11 34  1  0
 12 15  1  0
 12 13  1  0
 12 35  1  1
 13 14  1  0
 13 18  1  0
 13 36  1  1
 14 15  1  0
 14 37  1  1
 15 16  1  0
 15 41  1  1
 16 17  1  6
 18 19  1  0
 19 38  1  0
 19 39  1  0
 19 40  1  0
M  CHG  1  15   1
M  END
>  <i_m_ct_stereo_status>  (408) 
1

>  <s_m_source_file>  (408) 
/var/tmp/pbs.5076255.sched01/tmpg0s73j8k/135j_ekwz2c.sdf

>  <i_m_source_file_index>  (408) 
32

>  <i_lp_mmshare_version>  (408) 
48012

>  <i_f3d_flags>  (408) 
0

>  <s_epik_input>  (408) 
Q2xbQ0BAXTEyQz0zW0NASF00W0NIMl1bQ0BASF0oW0NIMl1bQ0BIXTFbQ0BIXShbQ0gzXSlbT0hdKVtDQEBIXTVbQ0BIXShONFtDSDNdKVtDQEBIXShOMjUpW0NIMl1bQ0hdMw==

>  <s_epik_cmdline>  (408) 
J2VwaWtfcHl0aG9uJywgJy1waHQnLCAnMi4wJywgJy1waCcsICc3LjAnLCAnLXRuJywgJzgnLCAnLW1hJywgJzIwMCcsICctaW1hZScsICc8aW5maWxlLm1hZT4nLCAnLW9tYWUnLCAnPG91dGZpbGUubWFlPic=

>  <r_epik_Ionization_Penalty>  (408) 
0.00146527

>  <r_epik_Ionization_Penalty_Charging>  (408) 
0.00146352

>  <r_epik_Ionization_Penalty_Neutral>  (408) 
1.75077e-06

>  <r_epik_State_Penalty>  (408) 
0.000332409

>  <r_epik_Charging_Adjusted_Penalty>  (408) 
0.00179593

>  <i_epik_Tot_Q>  (408) 
1

>  <i_epik_Tot_abs_Q>  (408) 
1

>  <s_lp_Force_Field>  (408) 
OPLS3e

>  <r_lp_Energy>  (408) 
103.478

>  <b_lp_Chiralities_Consistent>  (408) 
1

>  <s_lp_Variant>  (408) 
106:0-1

>  <s_i_glide_gridfile>  (408) 
pfpi4k_grid

>  <i_i_glide_lignum>  (408) 
32

>  <i_i_glide_rotatable_bonds>  (408) 
2

>  <r_i_docking_score>  (408) 
-3.64089

>  <r_i_glide_ligand_efficiency>  (408) 
-0.191626

>  <r_i_glide_ligand_efficiency_sa>  (408) 
-0.511335

>  <r_i_glide_ligand_efficiency_ln>  (408) 
-0.923045

>  <r_i_glide_gscore>  (408) 
-3.64089

>  <r_i_glide_lipo>  (408) 
-0.447116

>  <r_i_glide_hbond>  (408) 
-0.16

>  <r_i_glide_metal>  (408) 
-0

>  <r_i_glide_rewards>  (408) 
-1.48772

>  <r_i_glide_evdw>  (408) 
-14.2852

>  <r_i_glide_ecoul>  (408) 
-7.06338

>  <r_i_glide_erotb>  (408) 
0.227713

>  <r_i_glide_esite>  (408) 
0

>  <r_i_glide_emodel>  (408) 
-25.5085

>  <r_i_glide_energy>  (408) 
-21.3486

>  <r_i_glide_einternal>  (408) 
1.3922

>  <r_i_glide_intrahb_reward>  (408) 
-0

>  <i_i_glide_confnum>  (408) 
4

>  <i_i_glide_posenum>  (408) 
34

>  <r_i_glide_eff_state_penalty>  (408) 
0

>  <ligand_id>  (408) 
106

>  <original_smiles>  (408) 
CC(O)C1CC2CC3C4=CCC5C(C2N5C41Cl)N3C

>  <smiles>  (408) 
[H]OC([H])(C([H])([H])[H])C1([H])C([H])([H])C2([H])C([H])([H])C3([H])C4=C([H])C([H])([H])C5([H])C([H])(N3C([H])([H])[H])C2([H])[N+]5([H])C41Cl

$$$$
106:0:1
     RDKit          3D

 41 45  0  0  1  0  0  0  0  0999 V2000
    2.8603   -3.1164   -3.8991 C   0  0  0  0  0  0  0  0  0  0  0  0
    4.3897   -3.3044   -3.7835 C   0  0  2  0  0  0  0  0  0  0  0  0
    4.6110   -4.6549   -3.7659 O   0  0  0  0  0  0  0  0  0  0  0  0
    5.1850   -2.4668   -2.7069 C   0  0  2  0  0  0  0  0  0  0  0  0
    6.6171   -2.8916   -2.3264 C   0  0  0  0  0  0  0  0  0  0  0  0
    6.6656   -3.4000   -0.8872 C   0  0  2  0  0  0  0  0  0  0  0  0
    5.7064   -4.6179   -0.7633 C   0  0  0  0  0  0  0  0  0  0  0  0
    4.3754   -4.2806   -0.0760 C   0  0  2  0  0  0  0  0  0  0  0  0
    3.5659   -3.1272   -0.7328 C   0  0  0  0  0  0  0  0  0  0  0  0
    2.6224   -2.6661    0.1017 C   0  0  0  0  0  0  0  0  0  0  0  0
    3.0517   -1.4241    0.9064 C   0  0  0  0  0  0  0  0  0  0  0  0
    4.6078   -1.3132    0.9305 C   0  0  1  0  0  0  0  0  0  0  0  0
    5.4260   -2.5721    1.3111 C   0  0  2  0  0  0  0  0  0  0  0  0
    6.3171   -2.2419    0.1000 C   0  0  2  0  0  0  0  0  0  0  0  0
    5.2279   -1.3732   -0.4156 N   0  0  1  0  0  0  0  0  0  0  0  0
    4.3780   -2.0279   -1.4610 C   0  0  1  0  0  0  0  0  0  0  0  0
    3.4670   -0.6623   -2.1840 Cl  0  0  0  0  0  0  0  0  0  0  0  0
    4.7121   -3.8853    1.3136 N   0  0  0  0  0  0  0  0  0  0  0  0
    5.3284   -4.9349    2.1186 C   0  0  0  0  0  0  0  0  0  0  0  0
    2.6026   -2.1690   -4.3766 H   0  0  0  0  0  0  0  0  0  0  0  0
    2.3591   -3.1508   -2.9319 H   0  0  0  0  0  0  0  0  0  0  0  0
    2.3978   -3.9163   -4.4653 H   0  0  0  0  0  0  0  0  0  0  0  0
    4.8499   -3.0311   -4.7218 H   0  0  0  0  0  0  0  0  0  0  0  0
    3.9160   -5.0663   -3.1730 H   0  0  0  0  0  0  0  0  0  0  0  0
    5.3944   -1.5408   -3.2418 H   0  0  0  0  0  0  0  0  0  0  0  0
    6.9601   -3.6133   -3.0720 H   0  0  0  0  0  0  0  0  0  0  0  0
    7.2997   -2.0379   -2.3536 H   0  0  0  0  0  0  0  0  0  0  0  0
    7.6968   -3.7187   -0.7102 H   0  0  0  0  0  0  0  0  0  0  0  0
    5.4238   -5.0270   -1.7262 H   0  0  0  0  0  0  0  0  0  0  0  0
    6.2582   -5.4059   -0.2393 H   0  0  0  0  0  0  0  0  0  0  0  0
    3.7442   -5.1627   -0.0605 H   0  0  0  0  0  0  0  0  0  0  0  0
    2.1673   -3.3853    0.7549 H   0  0  0  0  0  0  0  0  0  0  0  0
    2.5903   -0.5239    0.5033 H   0  0  0  0  0  0  0  0  0  0  0  0
    2.6745   -1.5478    1.9282 H   0  0  0  0  0  0  0  0  0  0  0  0
    4.9813   -0.4390    1.4704 H   0  0  0  0  0  0  0  0  0  0  0  0
    5.9654   -2.4316    2.2563 H   0  0  0  0  0  0  0  0  0  0  0  0
    7.1630   -1.5957    0.3677 H   0  0  0  0  0  0  0  0  0  0  0  0
    5.3211   -4.6487    3.1717 H   0  0  0  0  0  0  0  0  0  0  0  0
    6.3576   -5.1483    1.8298 H   0  0  0  0  0  0  0  0  0  0  0  0
    4.7420   -5.8465    2.0079 H   0  0  0  0  0  0  0  0  0  0  0  0
    5.5167   -0.4643   -0.7057 H   0  0  0  0  0  0  0  0  0  0  0  0
  1  2  1  0
  1 20  1  0
  1 21  1  0
  1 22  1  0
  2  3  1  0
  2  4  1  0
  2 23  1  6
  3 24  1  0
  4 16  1  0
  4  5  1  0
  4 25  1  6
  5  6  1  0
  5 26  1  0
  5 27  1  0
  6 14  1  0
  6  7  1  0
  6 28  1  1
  7  8  1  0
  7 29  1  0
  7 30  1  0
  8 18  1  0
  8  9  1  0
  8 31  1  1
  9 16  1  0
  9 10  2  0
 10 11  1  0
 10 32  1  0
 11 12  1  0
 11 33  1  0
 11 34  1  0
 12 15  1  0
 12 13  1  0
 12 35  1  1
 13 14  1  0
 13 18  1  0
 13 36  1  1
 14 15  1  0
 14 37  1  1
 15 16  1  0
 15 41  1  6
 16 17  1  6
 18 19  1  0
 19 38  1  0
 19 39  1  0
 19 40  1  0
M  CHG  1  15   1
M  END
>  <i_m_ct_stereo_status>  (409) 
1

>  <s_m_source_file>  (409) 
/var/tmp/pbs.5076255.sched01/tmpg0s73j8k/135j_ekwz2c.sdf

>  <i_m_source_file_index>  (409) 
32

>  <i_lp_mmshare_version>  (409) 
48012

>  <i_f3d_flags>  (409) 
0

>  <s_epik_input>  (409) 
Q2xbQ0BAXTEyQz0zW0NASF00W0NIMl1bQ0BASF0oW0NIMl1bQ0BIXTFbQ0BIXShbQ0gzXSlbT0hdKVtDQEBIXTVbQ0BIXShONFtDSDNdKVtDQEBIXShOMjUpW0NIMl1bQ0hdMw==

>  <s_epik_cmdline>  (409) 
J2VwaWtfcHl0aG9uJywgJy1waHQnLCAnMi4wJywgJy1waCcsICc3LjAnLCAnLXRuJywgJzgnLCAnLW1hJywgJzIwMCcsICctaW1hZScsICc8aW5maWxlLm1hZT4nLCAnLW9tYWUnLCAnPG91dGZpbGUubWFlPic=

>  <r_epik_Ionization_Penalty>  (409) 
0.00146527

>  <r_epik_Ionization_Penalty_Charging>  (409) 
0.00146352

>  <r_epik_Ionization_Penalty_Neutral>  (409) 
1.75077e-06

>  <r_epik_State_Penalty>  (409) 
0.000332409

>  <r_epik_Charging_Adjusted_Penalty>  (409) 
0.00179593

>  <i_epik_Tot_Q>  (409) 
1

>  <i_epik_Tot_abs_Q>  (409) 
1

>  <s_lp_Force_Field>  (409) 
OPLS3e

>  <r_lp_Energy>  (409) 
103.478

>  <b_lp_Chiralities_Consistent>  (409) 
1

>  <s_lp_Variant>  (409) 
106:0-1

>  <s_i_glide_gridfile>  (409) 
pfpi4k_grid

>  <i_i_glide_lignum>  (409) 
32

>  <i_i_glide_rotatable_bonds>  (409) 
2

>  <r_i_docking_score>  (409) 
-3.53522

>  <r_i_glide_ligand_efficiency>  (409) 
-0.186064

>  <r_i_glide_ligand_efficiency_sa>  (409) 
-0.496495

>  <r_i_glide_ligand_efficiency_ln>  (409) 
-0.896255

>  <r_i_glide_gscore>  (409) 
-3.53522

>  <r_i_glide_lipo>  (409) 
-0.710868

>  <r_i_glide_hbond>  (409) 
-0.287309

>  <r_i_glide_metal>  (409) 
-0

>  <r_i_glide_rewards>  (409) 
-1.48772

>  <r_i_glide_evdw>  (409) 
-1.78263

>  <r_i_glide_ecoul>  (409) 
-7.7563

>  <r_i_glide_erotb>  (409) 
0.227713

>  <r_i_glide_esite>  (409) 
-0.0244611

>  <r_i_glide_emodel>  (409) 
-7.62551

>  <r_i_glide_energy>  (409) 
-9.53893

>  <r_i_glide_einternal>  (409) 
8.02458

>  <r_i_glide_intrahb_reward>  (409) 
-0

>  <i_i_glide_confnum>  (409) 
6

>  <i_i_glide_posenum>  (409) 
8

>  <r_i_glide_eff_state_penalty>  (409) 
0

>  <ligand_id>  (409) 
106

>  <original_smiles>  (409) 
CC(O)C1CC2CC3C4=CCC5C(C2N5C41Cl)N3C

>  <smiles>  (409) 
[H]OC([H])(C([H])([H])[H])C1([H])C([H])([H])C2([H])C([H])([H])C3([H])C4=C([H])C([H])([H])C5([H])C([H])(N3C([H])([H])[H])C2([H])[N+]5([H])C41Cl

$$$$
107:1:0
     RDKit          3D

 82 88  0  0  1  0  0  0  0  0999 V2000
   -1.7490   -8.1360    3.0101 C   0  0  0  0  0  0  0  0  0  0  0  0
   -0.4125   -8.4559    3.7123 C   0  0  0  0  0  0  0  0  0  0  0  0
   -0.1445   -7.5571    4.9380 C   0  0  0  0  0  0  0  0  0  0  0  0
    0.0141   -6.0530    4.6263 C   0  0  0  0  0  0  0  0  0  0  0  0
    1.2435   -5.7622    3.8594 N   0  0  0  0  0  0  0  0  0  0  0  0
    1.3355   -5.8287    2.5129 C   0  0  0  0  0  0  0  0  0  0  0  0
    0.4515   -6.1757    1.7286 O   0  0  0  0  0  0  0  0  0  0  0  0
    2.7001   -5.3939    2.0121 C   0  0  1  0  0  0  0  0  0  0  0  0
    3.5081   -5.1131    3.4183 C   0  0  1  0  0  0  0  0  0  0  0  0
    2.3893   -5.3825    4.4410 C   0  0  0  0  0  0  0  0  0  0  0  0
    2.5324   -5.2121    5.6589 O   0  0  0  0  0  0  0  0  0  0  0  0
    5.0646   -5.5728    3.8067 C   0  0  2  0  0  0  0  0  0  0  0  0
    5.4947   -4.5389    4.8792 C   0  0  0  0  0  0  0  0  0  0  0  0
    5.9833   -5.3383    2.5427 C   0  0  1  0  0  0  0  0  0  0  0  0
    6.5517   -6.7852    2.3473 C   0  0  2  0  0  0  0  0  0  0  0  0
    5.2941   -6.8809    1.8250 O   0  0  0  0  0  0  0  0  0  0  0  0
    3.9181   -7.4838    2.3472 N   0  0  0  0  0  0  0  0  0  0  0  0
    3.5746   -8.3127    3.5172 C   0  0  0  0  0  0  0  0  0  0  0  0
    4.3869   -7.9971    4.7230 C   0  0  0  0  0  0  0  0  0  0  0  0
    5.5516   -7.1715    4.2515 C   0  0  2  0  0  0  0  0  0  0  0  0
    6.4783   -7.1073    5.5034 C   0  0  0  0  0  0  0  0  0  0  0  0
    6.3040   -8.0799    3.0357 C   0  0  2  0  0  0  0  0  0  0  0  0
    7.6586   -8.6859    3.4660 C   0  0  0  0  0  0  0  0  0  0  0  0
    5.6340   -9.1353    1.8347 C   0  0  0  0  0  0  0  0  0  0  0  0
    6.2326  -10.3273    1.8375 O   0  0  0  0  0  0  0  0  0  0  0  0
    4.5389   -8.8667    0.9317 C   0  0  0  0  0  0  0  0  0  0  0  0
    3.5704   -7.6622    1.1434 C   0  0  0  0  0  0  0  0  0  0  0  0
    3.3257   -6.2820    0.8267 C   0  0  0  0  0  0  0  0  0  0  0  0
    4.3922   -5.3617    0.1104 C   0  0  2  0  0  0  0  0  0  0  0  0
    5.4685   -4.7045    1.0834 C   0  0  1  0  0  0  0  0  0  0  0  0
    5.0359   -3.2527    0.6618 C   0  0  1  0  0  0  0  0  0  0  0  0
    4.2966   -2.3214    1.6625 C   0  0  0  0  0  0  0  0  0  0  0  0
    3.7796   -1.1406    1.0734 O   0  0  0  0  0  0  0  0  0  0  0  0
    6.2192   -2.3929    0.1724 C   0  0  0  0  0  0  0  0  0  0  0  0
    6.1727   -1.5674   -0.7445 O   0  0  0  0  0  0  0  0  0  0  0  0
    7.3602   -2.6212    0.8712 O   0  0  0  0  0  0  0  0  0  0  0  0
    8.5671   -1.9772    0.4779 C   0  0  0  0  0  0  0  0  0  0  0  0
    4.1597   -3.9334   -0.5062 C   0  0  0  0  0  0  0  0  0  0  0  0
    4.7751   -3.9120   -1.9158 C   0  0  0  0  0  0  0  0  0  0  0  0
    2.7228   -3.4343   -0.7535 C   0  0  0  0  0  0  0  0  0  0  0  0
   -1.8728   -8.7595    2.1248 H   0  0  0  0  0  0  0  0  0  0  0  0
   -1.8219   -7.1035    2.6710 H   0  0  0  0  0  0  0  0  0  0  0  0
   -2.5899   -8.3148    3.6783 H   0  0  0  0  0  0  0  0  0  0  0  0
   -0.4160   -9.5019    4.0266 H   0  0  0  0  0  0  0  0  0  0  0  0
    0.4104   -8.4045    2.9991 H   0  0  0  0  0  0  0  0  0  0  0  0
   -0.9661   -7.6965    5.6380 H   0  0  0  0  0  0  0  0  0  0  0  0
    0.7430   -7.9058    5.4669 H   0  0  0  0  0  0  0  0  0  0  0  0
   -0.8692   -5.6899    4.1071 H   0  0  0  0  0  0  0  0  0  0  0  0
    0.0002   -5.4952    5.5679 H   0  0  0  0  0  0  0  0  0  0  0  0
    2.4264   -4.4688    1.5592 H   0  0  0  0  0  0  0  0  0  0  0  0
    3.5198   -4.0455    3.5426 H   0  0  0  0  0  0  0  0  0  0  0  0
    6.5657   -4.5385    5.0730 H   0  0  0  0  0  0  0  0  0  0  0  0
    4.9834   -4.7073    5.8247 H   0  0  0  0  0  0  0  0  0  0  0  0
    5.2605   -3.5210    4.5683 H   0  0  0  0  0  0  0  0  0  0  0  0
    6.8360   -4.7502    2.8656 H   0  0  0  0  0  0  0  0  0  0  0  0
    7.3446   -6.8349    1.5901 H   0  0  0  0  0  0  0  0  0  0  0  0
    2.5446   -8.0540    3.7418 H   0  0  0  0  0  0  0  0  0  0  0  0
    3.5711   -9.3836    3.2954 H   0  0  0  0  0  0  0  0  0  0  0  0
    3.8221   -7.4597    5.4823 H   0  0  0  0  0  0  0  0  0  0  0  0
    4.7166   -8.9356    5.1697 H   0  0  0  0  0  0  0  0  0  0  0  0
    6.7618   -8.1008    5.8479 H   0  0  0  0  0  0  0  0  0  0  0  0
    5.9619   -6.6530    6.3437 H   0  0  0  0  0  0  0  0  0  0  0  0
    7.3941   -6.5443    5.3243 H   0  0  0  0  0  0  0  0  0  0  0  0
    8.3213   -7.9639    3.9330 H   0  0  0  0  0  0  0  0  0  0  0  0
    8.2001   -9.0283    2.5905 H   0  0  0  0  0  0  0  0  0  0  0  0
    7.5321   -9.5360    4.1386 H   0  0  0  0  0  0  0  0  0  0  0  0
    4.1925   -9.6546    0.2693 H   0  0  0  0  0  0  0  0  0  0  0  0
    4.9083   -6.0057   -0.6080 H   0  0  0  0  0  0  0  0  0  0  0  0
    6.3591   -4.8821    0.4789 H   0  0  0  0  0  0  0  0  0  0  0  0
    3.3999   -2.7626    2.0590 H   0  0  0  0  0  0  0  0  0  0  0  0
    4.9351   -2.0522    2.5091 H   0  0  0  0  0  0  0  0  0  0  0  0
    3.0080   -1.3682    0.5628 H   0  0  0  0  0  0  0  0  0  0  0  0
    9.3834   -2.2810    1.1257 H   0  0  0  0  0  0  0  0  0  0  0  0
    8.5053   -0.8900    0.5166 H   0  0  0  0  0  0  0  0  0  0  0  0
    8.8654   -2.2597   -0.5295 H   0  0  0  0  0  0  0  0  0  0  0  0
    4.7286   -2.9189   -2.3700 H   0  0  0  0  0  0  0  0  0  0  0  0
    4.2873   -4.5879   -2.5855 H   0  0  0  0  0  0  0  0  0  0  0  0
    5.8227   -4.2269   -1.8976 H   0  0  0  0  0  0  0  0  0  0  0  0
    2.7167   -2.5774   -1.4244 H   0  0  0  0  0  0  0  0  0  0  0  0
    2.2143   -3.0694    0.1304 H   0  0  0  0  0  0  0  0  0  0  0  0
    2.0847   -4.1926   -1.2072 H   0  0  0  0  0  0  0  0  0  0  0  0
    5.7068  -10.8842    1.2777 H   0  0  0  0  0  0  0  0  0  0  0  0
  1  2  1  0
  1 41  1  0
  1 42  1  0
  1 43  1  0
  2  3  1  0
  2 44  1  0
  2 45  1  0
  3  4  1  0
  3 46  1  0
  3 47  1  0
  4 48  1  0
  4 49  1  0
  4  5  1  0
  5 10  1  0
  5  6  1  0
  6  7  2  0
  6  8  1  0
  8 28  1  0
  8 50  1  6
  8  9  1  0
  9 12  1  0
  9 51  1  6
  9 10  1  0
 10 11  2  0
 12 20  1  0
 12 13  1  1
 12 14  1  0
 13 52  1  0
 13 53  1  0
 13 54  1  0
 14 30  1  0
 14 15  1  0
 14 55  1  1
 15 22  1  0
 15 16  1  0
 15 56  1  6
 16 17  1  0
 17 27  1  0
 17 18  1  0
 18 19  1  0
 18 57  1  0
 18 58  1  0
 19 20  1  0
 19 59  1  0
 19 60  1  0
 20 21  1  1
 20 22  1  0
 21 61  1  0
 21 62  1  0
 21 63  1  0
 22 23  1  1
 22 24  1  0
 23 64  1  0
 23 65  1  0
 23 66  1  0
 24 25  1  0
 24 26  2  0
 25 82  1  0
 26 27  1  0
 26 67  1  0
 27 28  2  0
 28 29  1  0
 29 38  1  0
 29 30  1  0
 29 68  1  6
 30 31  1  0
 30 69  1  6
 31 32  1  1
 31 34  1  0
 31 38  1  0
 32 33  1  0
 32 70  1  0
 32 71  1  0
 33 72  1  0
 34 35  2  0
 34 36  1  0
 36 37  1  0
 37 73  1  0
 37 74  1  0
 37 75  1  0
 38 39  1  0
 38 40  1  0
 39 76  1  0
 39 77  1  0
 39 78  1  0
 40 79  1  0
 40 80  1  0
 40 81  1  0
M  END
>  <i_m_ct_stereo_status>  (410) 
1

>  <s_m_source_file>  (410) 
/var/tmp/pbs.5076255.sched01/tmpg0s73j8k/135j_ekwz2c.sdf

>  <i_m_source_file_index>  (410) 
34

>  <i_lp_mmshare_version>  (410) 
48012

>  <i_f3d_flags>  (410) 
0

>  <s_epik_input>  (410) 
W0NIM11bQ0gyXVtDSDJdW0NIMl1uKGMxW09IXSljKFtPSF0pYyhjMVtDQF0yM1tDSDNdKVtDQEBIXTRDNU42T1tDQEhdKFtDQF0oW0NIM10pKEMoPU8pW0NIXT01KVtDQF0zKFtDSDNdKVtDSDJdW0NIMl02KVtDQEhdMltDQEhdN1tDQEBIXTRDKFtDSDNdKShbQ0gzXSlbQ0BdNyhbQ0gyXVtPSF0pQyg9TylPW0NIM10=

>  <s_epik_cmdline>  (410) 
J2VwaWtfcHl0aG9uJywgJy1waHQnLCAnMi4wJywgJy1waCcsICc3LjAnLCAnLXRuJywgJzgnLCAnLW1hJywgJzIwMCcsICctaW1hZScsICc8aW5maWxlLm1hZT4nLCAnLW9tYWUnLCAnPG91dGZpbGUubWFlPic=

>  <r_epik_Ionization_Penalty>  (410) 
0.00238685

>  <r_epik_Ionization_Penalty_Charging>  (410) 
0

>  <r_epik_Ionization_Penalty_Neutral>  (410) 
0.00238685

>  <r_epik_State_Penalty>  (410) 
0.0010722

>  <r_epik_Charging_Adjusted_Penalty>  (410) 
0.0010722

>  <i_epik_Tot_Q>  (410) 
0

>  <i_epik_Tot_abs_Q>  (410) 
0

>  <s_epik_Chemistry_Notes>  (410) 
This compound has an ester and may undergo hydrolysis at high or low pH. This compound has a N-S or N-O group and may undergo hydrolysis at high or low pH.

>  <s_lp_Force_Field>  (410) 
OPLS3e

>  <r_lp_Energy>  (410) 
559.303

>  <b_lp_Chiralities_Consistent>  (410) 
1

>  <s_lp_Variant>  (410) 
107:0-2

>  <s_i_glide_gridfile>  (410) 
pfpi4k_grid

>  <i_i_glide_lignum>  (410) 
34

>  <i_i_glide_rotatable_bonds>  (410) 
8

>  <r_i_docking_score>  (410) 
-3.06594

>  <r_i_glide_ligand_efficiency>  (410) 
-0.0766484

>  <r_i_glide_ligand_efficiency_sa>  (410) 
-0.262134

>  <r_i_glide_ligand_efficiency_ln>  (410) 
-0.653874

>  <r_i_glide_gscore>  (410) 
-3.06594

>  <r_i_glide_lipo>  (410) 
-0.230778

>  <r_i_glide_hbond>  (410) 
-0.394332

>  <r_i_glide_metal>  (410) 
-0

>  <r_i_glide_rewards>  (410) 
-0.0498321

>  <r_i_glide_evdw>  (410) 
-27.7691

>  <r_i_glide_ecoul>  (410) 
-7.6068

>  <r_i_glide_erotb>  (410) 
0.196099

>  <r_i_glide_esite>  (410) 
-0.057619

>  <r_i_glide_emodel>  (410) 
-38.0556

>  <r_i_glide_energy>  (410) 
-35.3759

>  <r_i_glide_einternal>  (410) 
5.11206

>  <r_i_glide_intrahb_reward>  (410) 
-0

>  <i_i_glide_confnum>  (410) 
3

>  <i_i_glide_posenum>  (410) 
21

>  <r_i_glide_eff_state_penalty>  (410) 
0

>  <ligand_id>  (410) 
107

>  <original_smiles>  (410) 
CCCCn1c(O)c2c(c1O)C1(C)C3C4ON5CCC1(C)C4(C)C(=O)C=C5C2C1C3C(CO)(C(=O)OC)C1(C)C

>  <smiles>  (410) 
[H]OC1=C([H])C2=C3C4([H])C(=O)N(C([H])([H])C([H])([H])C([H])([H])C([H])([H])[H])C(=O)C4([H])C4(C([H])([H])[H])C([H])(C5([H])ON2C([H])([H])C([H])([H])C4(C([H])([H])[H])C15C([H])([H])[H])C1([H])C3([H])C(C([H])([H])[H])(C([H])([H])[H])C1(C(=O)OC([H])([H])[H])C([H])([H])O[H]

$$$$
107:1:1
     RDKit          3D

 82 88  0  0  1  0  0  0  0  0999 V2000
   -1.7920   -7.7589    3.1671 C   0  0  0  0  0  0  0  0  0  0  0  0
   -0.3581   -8.0731    3.6681 C   0  0  0  0  0  0  0  0  0  0  0  0
   -0.0951   -7.3254    5.0095 C   0  0  0  0  0  0  0  0  0  0  0  0
    0.2607   -5.8154    4.8868 C   0  0  0  0  0  0  0  0  0  0  0  0
    1.4827   -5.5469    4.1021 N   0  0  0  0  0  0  0  0  0  0  0  0
    1.4984   -5.5977    2.7734 C   0  0  0  0  0  0  0  0  0  0  0  0
    0.5198   -5.8492    2.0743 O   0  0  0  0  0  0  0  0  0  0  0  0
    2.8588   -5.2423    2.1928 C   0  0  1  0  0  0  0  0  0  0  0  0
    3.7554   -5.0420    3.5494 C   0  0  1  0  0  0  0  0  0  0  0  0
    2.6777   -5.2592    4.6277 C   0  0  0  0  0  0  0  0  0  0  0  0
    2.8658   -5.1323    5.8325 O   0  0  0  0  0  0  0  0  0  0  0  0
    5.2994   -5.5982    3.8683 C   0  0  2  0  0  0  0  0  0  0  0  0
    5.8193   -4.5977    4.9250 C   0  0  0  0  0  0  0  0  0  0  0  0
    6.1617   -5.4028    2.5638 C   0  0  1  0  0  0  0  0  0  0  0  0
    6.6374   -6.8781    2.3286 C   0  0  2  0  0  0  0  0  0  0  0  0
    5.3707   -6.8888    1.8670 O   0  0  0  0  0  0  0  0  0  0  0  0
    3.9693   -7.4225    2.4511 N   0  0  0  0  0  0  0  0  0  0  0  0
    3.6230   -8.2421    3.6312 C   0  0  0  0  0  0  0  0  0  0  0  0
    4.5214   -7.9796    4.7988 C   0  0  0  0  0  0  0  0  0  0  0  0
    5.7147   -7.2219    4.2907 C   0  0  2  0  0  0  0  0  0  0  0  0
    6.6873   -7.2160    5.4834 C   0  0  0  0  0  0  0  0  0  0  0  0
    6.3431   -8.1586    3.0258 C   0  0  2  0  0  0  0  0  0  0  0  0
    7.6858   -8.8326    3.4060 C   0  0  0  0  0  0  0  0  0  0  0  0
    5.5714   -9.1888    1.8610 C   0  0  0  0  0  0  0  0  0  0  0  0
    6.1307  -10.3905    1.8125 O   0  0  0  0  0  0  0  0  0  0  0  0
    4.4375   -8.8480    1.0057 C   0  0  0  0  0  0  0  0  0  0  0  0
    3.5341   -7.5852    1.2596 C   0  0  0  0  0  0  0  0  0  0  0  0
    3.3485   -6.1734    0.9671 C   0  0  0  0  0  0  0  0  0  0  0  0
    4.4559   -5.3219    0.1959 C   0  0  2  0  0  0  0  0  0  0  0  0
    5.6135   -4.7137    1.1220 C   0  0  1  0  0  0  0  0  0  0  0  0
    5.2405   -3.2470    0.7345 C   0  0  1  0  0  0  0  0  0  0  0  0
    4.6023   -2.2939    1.7925 C   0  0  0  0  0  0  0  0  0  0  0  0
    4.0575   -1.0844    1.2549 O   0  0  0  0  0  0  0  0  0  0  0  0
    6.4349   -2.4471    0.2048 C   0  0  0  0  0  0  0  0  0  0  0  0
    6.3186   -1.5495   -0.6294 O   0  0  0  0  0  0  0  0  0  0  0  0
    7.5977   -2.7900    0.7837 O   0  0  0  0  0  0  0  0  0  0  0  0
    8.8017   -2.1339    0.4046 C   0  0  0  0  0  0  0  0  0  0  0  0
    4.2746   -3.8818   -0.3821 C   0  0  0  0  0  0  0  0  0  0  0  0
    4.8217   -3.8691   -1.8237 C   0  0  0  0  0  0  0  0  0  0  0  0
    2.8527   -3.2966   -0.5647 C   0  0  0  0  0  0  0  0  0  0  0  0
   -1.9453   -8.2134    2.1880 H   0  0  0  0  0  0  0  0  0  0  0  0
   -1.9600   -6.6852    3.0465 H   0  0  0  0  0  0  0  0  0  0  0  0
   -2.5883   -8.1269    3.8184 H   0  0  0  0  0  0  0  0  0  0  0  0
   -0.3501   -9.1668    3.9057 H   0  0  0  0  0  0  0  0  0  0  0  0
    0.3517   -7.7998    2.8897 H   0  0  0  0  0  0  0  0  0  0  0  0
   -0.9886   -7.4044    5.6424 H   0  0  0  0  0  0  0  0  0  0  0  0
    0.7141   -7.8150    5.5558 H   0  0  0  0  0  0  0  0  0  0  0  0
   -0.5756   -5.2412    4.4638 H   0  0  0  0  0  0  0  0  0  0  0  0
    0.3604   -5.4036    5.8987 H   0  0  0  0  0  0  0  0  0  0  0  0
    2.6689   -4.3080    1.7287 H   0  0  0  0  0  0  0  0  0  0  0  0
    3.8251   -3.9683    3.6846 H   0  0  0  0  0  0  0  0  0  0  0  0
    6.8892   -4.6763    5.0795 H   0  0  0  0  0  0  0  0  0  0  0  0
    5.3379   -4.7398    5.8894 H   0  0  0  0  0  0  0  0  0  0  0  0
    5.6335   -3.5689    4.6330 H   0  0  0  0  0  0  0  0  0  0  0  0
    7.0719   -4.8815    2.8419 H   0  0  0  0  0  0  0  0  0  0  0  0
    7.4031   -6.9566    1.5422 H   0  0  0  0  0  0  0  0  0  0  0  0
    2.6307   -7.9209    3.8942 H   0  0  0  0  0  0  0  0  0  0  0  0
    3.5658   -9.3109    3.4031 H   0  0  0  0  0  0  0  0  0  0  0  0
    4.0233   -7.4221    5.5881 H   0  0  0  0  0  0  0  0  0  0  0  0
    4.8162   -8.9384    5.2216 H   0  0  0  0  0  0  0  0  0  0  0  0
    6.9358   -8.2195    5.8175 H   0  0  0  0  0  0  0  0  0  0  0  0
    6.2415   -6.7406    6.3524 H   0  0  0  0  0  0  0  0  0  0  0  0
    7.6273   -6.7015    5.2745 H   0  0  0  0  0  0  0  0  0  0  0  0
    8.4098   -8.1548    3.8348 H   0  0  0  0  0  0  0  0  0  0  0  0
    8.1664   -9.1767    2.5140 H   0  0  0  0  0  0  0  0  0  0  0  0
    7.5491   -9.6845    4.0756 H   0  0  0  0  0  0  0  0  0  0  0  0
    4.0357   -9.6077    0.3455 H   0  0  0  0  0  0  0  0  0  0  0  0
    4.9093   -5.9946   -0.5498 H   0  0  0  0  0  0  0  0  0  0  0  0
    6.4568   -4.9614    0.4838 H   0  0  0  0  0  0  0  0  0  0  0  0
    3.7191   -2.7084    2.2428 H   0  0  0  0  0  0  0  0  0  0  0  0
    5.3102   -2.0492    2.5918 H   0  0  0  0  0  0  0  0  0  0  0  0
    4.7080   -0.5788    0.7807 H   0  0  0  0  0  0  0  0  0  0  0  0
    9.6286   -2.5333    0.9755 H   0  0  0  0  0  0  0  0  0  0  0  0
    8.7963   -1.0605    0.5870 H   0  0  0  0  0  0  0  0  0  0  0  0
    9.0507   -2.2907   -0.6410 H   0  0  0  0  0  0  0  0  0  0  0  0
    4.7960   -2.8837   -2.2782 H   0  0  0  0  0  0  0  0  0  0  0  0
    4.2523   -4.5227   -2.4748 H   0  0  0  0  0  0  0  0  0  0  0  0
    5.8385   -4.2313   -1.8583 H   0  0  0  0  0  0  0  0  0  0  0  0
    2.8661   -2.4352   -1.2288 H   0  0  0  0  0  0  0  0  0  0  0  0
    2.4048   -2.9060    0.3323 H   0  0  0  0  0  0  0  0  0  0  0  0
    2.1519   -4.0148   -1.0002 H   0  0  0  0  0  0  0  0  0  0  0  0
    5.5556  -10.9002    1.2732 H   0  0  0  0  0  0  0  0  0  0  0  0
  1  2  1  0
  1 41  1  0
  1 42  1  0
  1 43  1  0
  2  3  1  0
  2 44  1  0
  2 45  1  0
  3  4  1  0
  3 46  1  0
  3 47  1  0
  4 48  1  0
  4 49  1  0
  4  5  1  0
  5 10  1  0
  5  6  1  0
  6  7  2  0
  6  8  1  0
  8 28  1  0
  8 50  1  6
  8  9  1  0
  9 12  1  0
  9 51  1  6
  9 10  1  0
 10 11  2  0
 12 20  1  0
 12 13  1  1
 12 14  1  0
 13 52  1  0
 13 53  1  0
 13 54  1  0
 14 30  1  0
 14 15  1  0
 14 55  1  1
 15 22  1  0
 15 16  1  0
 15 56  1  6
 16 17  1  0
 17 27  1  0
 17 18  1  0
 18 19  1  0
 18 57  1  0
 18 58  1  0
 19 20  1  0
 19 59  1  0
 19 60  1  0
 20 21  1  1
 20 22  1  0
 21 61  1  0
 21 62  1  0
 21 63  1  0
 22 23  1  1
 22 24  1  0
 23 64  1  0
 23 65  1  0
 23 66  1  0
 24 25  1  0
 24 26  2  0
 25 82  1  0
 26 27  1  0
 26 67  1  0
 27 28  2  0
 28 29  1  0
 29 38  1  0
 29 30  1  0
 29 68  1  6
 30 31  1  0
 30 69  1  6
 31 32  1  1
 31 34  1  0
 31 38  1  0
 32 33  1  0
 32 70  1  0
 32 71  1  0
 33 72  1  0
 34 35  2  0
 34 36  1  0
 36 37  1  0
 37 73  1  0
 37 74  1  0
 37 75  1  0
 38 39  1  0
 38 40  1  0
 39 76  1  0
 39 77  1  0
 39 78  1  0
 40 79  1  0
 40 80  1  0
 40 81  1  0
M  END
>  <i_m_ct_stereo_status>  (411) 
1

>  <s_m_source_file>  (411) 
/var/tmp/pbs.5076255.sched01/tmpg0s73j8k/135j_ekwz2c.sdf

>  <i_m_source_file_index>  (411) 
34

>  <i_lp_mmshare_version>  (411) 
48012

>  <i_f3d_flags>  (411) 
0

>  <s_epik_input>  (411) 
W0NIM11bQ0gyXVtDSDJdW0NIMl1uKGMxW09IXSljKFtPSF0pYyhjMVtDQF0yM1tDSDNdKVtDQEBIXTRDNU42T1tDQEhdKFtDQF0oW0NIM10pKEMoPU8pW0NIXT01KVtDQF0zKFtDSDNdKVtDSDJdW0NIMl02KVtDQEhdMltDQEhdN1tDQEBIXTRDKFtDSDNdKShbQ0gzXSlbQ0BdNyhbQ0gyXVtPSF0pQyg9TylPW0NIM10=

>  <s_epik_cmdline>  (411) 
J2VwaWtfcHl0aG9uJywgJy1waHQnLCAnMi4wJywgJy1waCcsICc3LjAnLCAnLXRuJywgJzgnLCAnLW1hJywgJzIwMCcsICctaW1hZScsICc8aW5maWxlLm1hZT4nLCAnLW9tYWUnLCAnPG91dGZpbGUubWFlPic=

>  <r_epik_Ionization_Penalty>  (411) 
0.00238685

>  <r_epik_Ionization_Penalty_Charging>  (411) 
0

>  <r_epik_Ionization_Penalty_Neutral>  (411) 
0.00238685

>  <r_epik_State_Penalty>  (411) 
0.0010722

>  <r_epik_Charging_Adjusted_Penalty>  (411) 
0.0010722

>  <i_epik_Tot_Q>  (411) 
0

>  <i_epik_Tot_abs_Q>  (411) 
0

>  <s_epik_Chemistry_Notes>  (411) 
This compound has an ester and may undergo hydrolysis at high or low pH. This compound has a N-S or N-O group and may undergo hydrolysis at high or low pH.

>  <s_lp_Force_Field>  (411) 
OPLS3e

>  <r_lp_Energy>  (411) 
559.303

>  <b_lp_Chiralities_Consistent>  (411) 
1

>  <s_lp_Variant>  (411) 
107:0-2

>  <s_i_glide_gridfile>  (411) 
pfpi4k_grid

>  <i_i_glide_lignum>  (411) 
34

>  <i_i_glide_rotatable_bonds>  (411) 
8

>  <r_i_docking_score>  (411) 
-2.81009

>  <r_i_glide_ligand_efficiency>  (411) 
-0.0702523

>  <r_i_glide_ligand_efficiency_sa>  (411) 
-0.24026

>  <r_i_glide_ligand_efficiency_ln>  (411) 
-0.59931

>  <r_i_glide_gscore>  (411) 
-2.81009

>  <r_i_glide_lipo>  (411) 
-0.308505

>  <r_i_glide_hbond>  (411) 
-0.436816

>  <r_i_glide_metal>  (411) 
-0

>  <r_i_glide_rewards>  (411) 
-0.0729474

>  <r_i_glide_evdw>  (411) 
-26.0737

>  <r_i_glide_ecoul>  (411) 
-6.83229

>  <r_i_glide_erotb>  (411) 
0.196099

>  <r_i_glide_esite>  (411) 
-0.0398907

>  <r_i_glide_emodel>  (411) 
-32.6714

>  <r_i_glide_energy>  (411) 
-32.906

>  <r_i_glide_einternal>  (411) 
5.99525

>  <r_i_glide_intrahb_reward>  (411) 
-0

>  <i_i_glide_confnum>  (411) 
3

>  <i_i_glide_posenum>  (411) 
7

>  <r_i_glide_eff_state_penalty>  (411) 
0

>  <ligand_id>  (411) 
107

>  <original_smiles>  (411) 
CCCCn1c(O)c2c(c1O)C1(C)C3C4ON5CCC1(C)C4(C)C(=O)C=C5C2C1C3C(CO)(C(=O)OC)C1(C)C

>  <smiles>  (411) 
[H]OC1=C([H])C2=C3C4([H])C(=O)N(C([H])([H])C([H])([H])C([H])([H])C([H])([H])[H])C(=O)C4([H])C4(C([H])([H])[H])C([H])(C5([H])ON2C([H])([H])C([H])([H])C4(C([H])([H])[H])C15C([H])([H])[H])C1([H])C3([H])C(C([H])([H])[H])(C([H])([H])[H])C1(C(=O)OC([H])([H])[H])C([H])([H])O[H]

$$$$
107:1:2
     RDKit          3D

 82 88  0  0  1  0  0  0  0  0999 V2000
   -2.2613    3.1967   10.3231 C   0  0  0  0  0  0  0  0  0  0  0  0
   -2.2628    2.7179    8.8784 C   0  0  0  0  0  0  0  0  0  0  0  0
   -2.5730    3.8216    7.8541 C   0  0  0  0  0  0  0  0  0  0  0  0
   -2.6934    3.3045    6.4036 C   0  0  0  0  0  0  0  0  0  0  0  0
   -1.4546    2.6898    5.8955 N   0  0  0  0  0  0  0  0  0  0  0  0
   -1.1166    1.4042    6.1281 C   0  0  0  0  0  0  0  0  0  0  0  0
   -1.7661    0.5785    6.7828 O   0  0  0  0  0  0  0  0  0  0  0  0
    0.2124    1.0494    5.4830 C   0  0  1  0  0  0  0  0  0  0  0  0
    0.6511    2.4806    4.7754 C   0  0  1  0  0  0  0  0  0  0  0  0
   -0.5590    3.3527    5.1486 C   0  0  0  0  0  0  0  0  0  0  0  0
   -0.6933    4.5367    4.7720 O   0  0  0  0  0  0  0  0  0  0  0  0
    2.1712    3.1989    4.7384 C   0  0  2  0  0  0  0  0  0  0  0  0
    2.1346    4.1455    3.4941 C   0  0  0  0  0  0  0  0  0  0  0  0
    3.2334    2.0727    4.4556 C   0  0  1  0  0  0  0  0  0  0  0  0
    4.1561    2.2523    5.7169 C   0  0  2  0  0  0  0  0  0  0  0  0
    3.1211    1.5458    6.2609 O   0  0  0  0  0  0  0  0  0  0  0  0
    1.8329    1.9691    7.0703 N   0  0  0  0  0  0  0  0  0  0  0  0
    1.4452    3.2141    7.7521 C   0  0  0  0  0  0  0  0  0  0  0  0
    1.9094    4.4581    7.0762 C   0  0  0  0  0  0  0  0  0  0  0  0
    2.9288    4.0157    6.0676 C   0  0  2  0  0  0  0  0  0  0  0  0
    3.5470    5.3674    5.5714 C   0  0  0  0  0  0  0  0  0  0  0  0
    4.0966    3.1356    6.9273 C   0  0  2  0  0  0  0  0  0  0  0  0
    5.4534    3.8763    7.0865 C   0  0  0  0  0  0  0  0  0  0  0  0
    3.9351    2.0947    8.3106 C   0  0  0  0  0  0  0  0  0  0  0  0
    4.8077    2.3952    9.2778 O   0  0  0  0  0  0  0  0  0  0  0  0
    2.9996    0.9926    8.4757 C   0  0  0  0  0  0  0  0  0  0  0  0
    1.7611    0.7945    7.5514 C   0  0  0  0  0  0  0  0  0  0  0  0
    1.2658    0.1855    6.3475 C   0  0  0  0  0  0  0  0  0  0  0  0
    2.2005   -0.5179    5.2788 C   0  0  2  0  0  0  0  0  0  0  0  0
    2.8804    0.4572    4.2138 C   0  0  1  0  0  0  0  0  0  0  0  0
    2.2227   -0.3208    3.0110 C   0  0  1  0  0  0  0  0  0  0  0  0
    1.0957    0.3404    2.1728 C   0  0  0  0  0  0  0  0  0  0  0  0
    1.4774    1.5622    1.6371 O   0  0  0  0  0  0  0  0  0  0  0  0
    3.2675   -0.7618    1.9395 C   0  0  0  0  0  0  0  0  0  0  0  0
    4.3868   -0.2605    1.7931 O   0  0  0  0  0  0  0  0  0  0  0  0
    2.8184   -1.7707    1.1486 O   0  0  0  0  0  0  0  0  0  0  0  0
    3.5961   -2.2113    0.0364 C   0  0  0  0  0  0  0  0  0  0  0  0
    1.7785   -1.4464    4.0763 C   0  0  0  0  0  0  0  0  0  0  0  0
    2.6466   -2.7178    4.1377 C   0  0  0  0  0  0  0  0  0  0  0  0
    0.3416   -2.0058    4.0119 C   0  0  0  0  0  0  0  0  0  0  0  0
   -2.0022    2.3663   10.9822 H   0  0  0  0  0  0  0  0  0  0  0  0
   -3.2406    3.5723   10.6200 H   0  0  0  0  0  0  0  0  0  0  0  0
   -1.5187    3.9815   10.4704 H   0  0  0  0  0  0  0  0  0  0  0  0
   -1.2778    2.2922    8.6992 H   0  0  0  0  0  0  0  0  0  0  0  0
   -2.9833    1.9073    8.7693 H   0  0  0  0  0  0  0  0  0  0  0  0
   -3.5098    4.2970    8.1484 H   0  0  0  0  0  0  0  0  0  0  0  0
   -1.8190    4.6056    7.9052 H   0  0  0  0  0  0  0  0  0  0  0  0
   -3.5209    2.5995    6.3368 H   0  0  0  0  0  0  0  0  0  0  0  0
   -2.9853    4.1322    5.7563 H   0  0  0  0  0  0  0  0  0  0  0  0
   -0.1649    0.3927    4.7245 H   0  0  0  0  0  0  0  0  0  0  0  0
    0.4136    2.3214    3.7346 H   0  0  0  0  0  0  0  0  0  0  0  0
    3.1275    4.4625    3.1663 H   0  0  0  0  0  0  0  0  0  0  0  0
    1.5202    5.0302    3.6607 H   0  0  0  0  0  0  0  0  0  0  0  0
    1.6977    3.6790    2.6153 H   0  0  0  0  0  0  0  0  0  0  0  0
    3.8273    2.3895    3.6114 H   0  0  0  0  0  0  0  0  0  0  0  0
    5.0777    1.6541    5.6559 H   0  0  0  0  0  0  0  0  0  0  0  0
    0.3592    3.2335    7.7416 H   0  0  0  0  0  0  0  0  0  0  0  0
    1.7164    3.2248    8.8139 H   0  0  0  0  0  0  0  0  0  0  0  0
    1.0963    5.0034    6.6006 H   0  0  0  0  0  0  0  0  0  0  0  0
    2.3457    5.1228    7.8232 H   0  0  0  0  0  0  0  0  0  0  0  0
    3.9840    5.9482    6.3852 H   0  0  0  0  0  0  0  0  0  0  0  0
    2.7899    6.0234    5.1402 H   0  0  0  0  0  0  0  0  0  0  0  0
    4.3242    5.2262    4.8173 H   0  0  0  0  0  0  0  0  0  0  0  0
    5.8254    4.2847    6.1481 H   0  0  0  0  0  0  0  0  0  0  0  0
    6.2460    3.2116    7.4328 H   0  0  0  0  0  0  0  0  0  0  0  0
    5.3841    4.6908    7.8073 H   0  0  0  0  0  0  0  0  0  0  0  0
    3.0116    0.4389    9.4202 H   0  0  0  0  0  0  0  0  0  0  0  0
    2.9747   -1.0036    5.8750 H   0  0  0  0  0  0  0  0  0  0  0  0
    3.8998    0.0536    4.2349 H   0  0  0  0  0  0  0  0  0  0  0  0
    0.8032   -0.2803    1.3291 H   0  0  0  0  0  0  0  0  0  0  0  0
    0.1665    0.4811    2.7107 H   0  0  0  0  0  0  0  0  0  0  0  0
    0.7139    2.0045    1.2757 H   0  0  0  0  0  0  0  0  0  0  0  0
    3.1111   -3.0370   -0.4805 H   0  0  0  0  0  0  0  0  0  0  0  0
    4.5789   -2.5601    0.3389 H   0  0  0  0  0  0  0  0  0  0  0  0
    3.7390   -1.4233   -0.6986 H   0  0  0  0  0  0  0  0  0  0  0  0
    2.4780   -3.3751    3.2884 H   0  0  0  0  0  0  0  0  0  0  0  0
    2.4360   -3.2896    5.0419 H   0  0  0  0  0  0  0  0  0  0  0  0
    3.7124   -2.4831    4.1617 H   0  0  0  0  0  0  0  0  0  0  0  0
    0.2727   -2.8217    3.2969 H   0  0  0  0  0  0  0  0  0  0  0  0
   -0.4167   -1.3050    3.6832 H   0  0  0  0  0  0  0  0  0  0  0  0
    0.0077   -2.3881    4.9736 H   0  0  0  0  0  0  0  0  0  0  0  0
    4.6427    1.8083   10.0099 H   0  0  0  0  0  0  0  0  0  0  0  0
  1  2  1  0
  1 41  1  0
  1 42  1  0
  1 43  1  0
  2  3  1  0
  2 44  1  0
  2 45  1  0
  3  4  1  0
  3 46  1  0
  3 47  1  0
  4 48  1  0
  4 49  1  0
  4  5  1  0
  5 10  1  0
  5  6  1  0
  6  7  2  0
  6  8  1  0
  8 28  1  0
  8 50  1  6
  8  9  1  0
  9 12  1  0
  9 51  1  6
  9 10  1  0
 10 11  2  0
 12 20  1  0
 12 13  1  6
 12 14  1  0
 13 52  1  0
 13 53  1  0
 13 54  1  0
 14 30  1  0
 14 15  1  0
 14 55  1  6
 15 22  1  0
 15 16  1  0
 15 56  1  6
 16 17  1  0
 17 27  1  0
 17 18  1  0
 18 19  1  0
 18 57  1  0
 18 58  1  0
 19 20  1  0
 19 59  1  0
 19 60  1  0
 20 21  1  6
 20 22  1  0
 21 61  1  0
 21 62  1  0
 21 63  1  0
 22 23  1  1
 22 24  1  0
 23 64  1  0
 23 65  1  0
 23 66  1  0
 24 25  1  0
 24 26  2  0
 25 82  1  0
 26 27  1  0
 26 67  1  0
 27 28  2  0
 28 29  1  0
 29 38  1  0
 29 30  1  0
 29 68  1  1
 30 31  1  0
 30 69  1  6
 31 32  1  6
 31 34  1  0
 31 38  1  0
 32 33  1  0
 32 70  1  0
 32 71  1  0
 33 72  1  0
 34 35  2  0
 34 36  1  0
 36 37  1  0
 37 73  1  0
 37 74  1  0
 37 75  1  0
 38 39  1  0
 38 40  1  0
 39 76  1  0
 39 77  1  0
 39 78  1  0
 40 79  1  0
 40 80  1  0
 40 81  1  0
M  END
>  <i_m_ct_stereo_status>  (412) 
1

>  <s_m_source_file>  (412) 
/var/tmp/pbs.5076255.sched01/tmpg0s73j8k/135j_ekwz2c.sdf

>  <i_m_source_file_index>  (412) 
34

>  <i_lp_mmshare_version>  (412) 
48012

>  <i_f3d_flags>  (412) 
0

>  <s_epik_input>  (412) 
W0NIM11bQ0gyXVtDSDJdW0NIMl1uKGMxW09IXSljKFtPSF0pYyhjMVtDQF0yM1tDSDNdKVtDQEBIXTRDNU42T1tDQEhdKFtDQF0oW0NIM10pKEMoPU8pW0NIXT01KVtDQF0zKFtDSDNdKVtDSDJdW0NIMl02KVtDQEhdMltDQEhdN1tDQEBIXTRDKFtDSDNdKShbQ0gzXSlbQ0BdNyhbQ0gyXVtPSF0pQyg9TylPW0NIM10=

>  <s_epik_cmdline>  (412) 
J2VwaWtfcHl0aG9uJywgJy1waHQnLCAnMi4wJywgJy1waCcsICc3LjAnLCAnLXRuJywgJzgnLCAnLW1hJywgJzIwMCcsICctaW1hZScsICc8aW5maWxlLm1hZT4nLCAnLW9tYWUnLCAnPG91dGZpbGUubWFlPic=

>  <r_epik_Ionization_Penalty>  (412) 
0.00238685

>  <r_epik_Ionization_Penalty_Charging>  (412) 
0

>  <r_epik_Ionization_Penalty_Neutral>  (412) 
0.00238685

>  <r_epik_State_Penalty>  (412) 
0.0010722

>  <r_epik_Charging_Adjusted_Penalty>  (412) 
0.0010722

>  <i_epik_Tot_Q>  (412) 
0

>  <i_epik_Tot_abs_Q>  (412) 
0

>  <s_epik_Chemistry_Notes>  (412) 
This compound has an ester and may undergo hydrolysis at high or low pH. This compound has a N-S or N-O group and may undergo hydrolysis at high or low pH.

>  <s_lp_Force_Field>  (412) 
OPLS3e

>  <r_lp_Energy>  (412) 
559.303

>  <b_lp_Chiralities_Consistent>  (412) 
1

>  <s_lp_Variant>  (412) 
107:0-2

>  <s_i_glide_gridfile>  (412) 
pfpi4k_grid

>  <i_i_glide_lignum>  (412) 
34

>  <i_i_glide_rotatable_bonds>  (412) 
8

>  <r_i_docking_score>  (412) 
-2.61074

>  <r_i_glide_ligand_efficiency>  (412) 
-0.0652686

>  <r_i_glide_ligand_efficiency_sa>  (412) 
-0.223215

>  <r_i_glide_ligand_efficiency_ln>  (412) 
-0.556795

>  <r_i_glide_gscore>  (412) 
-2.61074

>  <r_i_glide_lipo>  (412) 
-0.242617

>  <r_i_glide_hbond>  (412) 
-0.16

>  <r_i_glide_metal>  (412) 
-0

>  <r_i_glide_rewards>  (412) 
-0.0435786

>  <r_i_glide_evdw>  (412) 
-24.8726

>  <r_i_glide_ecoul>  (412) 
-7.10143

>  <r_i_glide_erotb>  (412) 
0.196099

>  <r_i_glide_esite>  (412) 
-0.0518004

>  <r_i_glide_emodel>  (412) 
-34.6871

>  <r_i_glide_energy>  (412) 
-31.9741

>  <r_i_glide_einternal>  (412) 
2.42532

>  <r_i_glide_intrahb_reward>  (412) 
-0

>  <i_i_glide_confnum>  (412) 
1

>  <i_i_glide_posenum>  (412) 
2

>  <r_i_glide_eff_state_penalty>  (412) 
0

>  <ligand_id>  (412) 
107

>  <original_smiles>  (412) 
CCCCn1c(O)c2c(c1O)C1(C)C3C4ON5CCC1(C)C4(C)C(=O)C=C5C2C1C3C(CO)(C(=O)OC)C1(C)C

>  <smiles>  (412) 
[H]OC1=C([H])C2=C3C4([H])C(=O)N(C([H])([H])C([H])([H])C([H])([H])C([H])([H])[H])C(=O)C4([H])C4(C([H])([H])[H])C([H])(C5([H])ON2C([H])([H])C([H])([H])C4(C([H])([H])[H])C15C([H])([H])[H])C1([H])C3([H])C(C([H])([H])[H])(C([H])([H])[H])C1(C(=O)OC([H])([H])[H])C([H])([H])O[H]

$$$$
109:0:0
     RDKit          3D

 79 83  0  0  1  0  0  0  0  0999 V2000
   -2.0557    0.7102    6.1772 C   0  0  0  0  0  0  0  0  0  0  0  0
   -1.8560    2.0171    6.4448 C   0  0  0  0  0  0  0  0  0  0  0  0
   -2.9238    2.8210    7.1599 C   0  0  0  0  0  0  0  0  0  0  0  0
   -0.5807    2.7827    6.0750 C   0  0  2  0  0  0  0  0  0  0  0  0
   -0.7915    3.9830    5.1012 C   0  0  0  0  0  0  0  0  0  0  0  0
    0.4344    4.0215    4.1334 C   0  0  0  0  0  0  0  0  0  0  0  0
    1.4458    3.0421    4.7685 C   0  0  1  0  0  0  0  0  0  0  0  0
    2.2288    3.8272    5.8612 C   0  0  0  0  0  0  0  0  0  0  0  0
    0.4739    2.0024    5.2874 C   0  0  1  0  0  0  0  0  0  0  0  0
    1.3522    0.8782    5.8274 C   0  0  0  0  0  0  0  0  0  0  0  0
    2.4880    0.7656    4.7536 C   0  0  2  0  0  0  0  0  0  0  0  0
    3.8345    0.7697    5.5346 C   0  0  0  0  0  0  0  0  0  0  0  0
    2.4160    2.1327    3.9540 C   0  0  1  0  0  0  0  0  0  0  0  0
    2.0432    1.9819    2.4718 C   0  0  0  0  0  0  0  0  0  0  0  0
    2.7948    0.8693    1.7190 C   0  0  0  0  0  0  0  0  0  0  0  0
    3.2093   -0.3862    2.5350 C   0  0  2  0  0  0  0  0  0  0  0  0
    3.3621   -1.6887    1.6936 C   0  0  0  0  0  0  0  0  0  0  0  0
    3.2056   -1.7439    0.3481 C   0  0  0  0  0  0  0  0  0  0  0  0
    3.3908   -2.9726   -0.5441 C   0  0  1  0  0  0  0  0  0  0  0  0
    4.1185   -2.6416   -1.8871 C   0  0  0  0  0  0  0  0  0  0  0  0
    3.1715   -1.9675   -2.9013 C   0  0  0  0  0  0  0  0  0  0  0  0
    5.3731   -1.7742   -1.6847 C   0  0  0  0  0  0  0  0  0  0  0  0
    4.5630   -3.8354   -2.5194 O   0  0  0  0  0  0  0  0  0  0  0  0
    4.0199   -4.1467    0.2302 C   0  0  0  0  0  0  0  0  0  0  0  0
    3.4728   -4.2364    1.6569 C   0  0  0  0  0  0  0  0  0  0  0  0
    3.7325   -2.9542    2.4903 C   0  0  1  0  0  0  0  0  0  0  0  0
    5.2312   -2.8979    2.8634 C   0  0  0  0  0  0  0  0  0  0  0  0
    2.8732   -3.0775    3.7741 C   0  0  0  0  0  0  0  0  0  0  0  0
    2.8439   -1.7955    4.6099 C   0  0  0  0  0  0  0  0  0  0  0  0
    2.3416   -0.5459    3.8301 C   0  0  1  0  0  0  0  0  0  0  0  0
    0.8747   -0.8617    3.4011 C   0  0  0  0  0  0  0  0  0  0  0  0
   -2.9717    0.2279    6.4750 H   0  0  0  0  0  0  0  0  0  0  0  0
   -1.3252    0.1093    5.6615 H   0  0  0  0  0  0  0  0  0  0  0  0
   -3.3257    3.5939    6.5039 H   0  0  0  0  0  0  0  0  0  0  0  0
   -2.5287    3.2943    8.0593 H   0  0  0  0  0  0  0  0  0  0  0  0
   -3.7548    2.1811    7.4572 H   0  0  0  0  0  0  0  0  0  0  0  0
   -0.1483    3.1513    7.0066 H   0  0  0  0  0  0  0  0  0  0  0  0
   -1.7078    3.8615    4.5200 H   0  0  0  0  0  0  0  0  0  0  0  0
   -0.8833    4.9213    5.6533 H   0  0  0  0  0  0  0  0  0  0  0  0
    0.1153    3.7030    3.1423 H   0  0  0  0  0  0  0  0  0  0  0  0
    0.8440    5.0256    4.0102 H   0  0  0  0  0  0  0  0  0  0  0  0
    2.6083    3.1935    6.6573 H   0  0  0  0  0  0  0  0  0  0  0  0
    1.6124    4.5819    6.3470 H   0  0  0  0  0  0  0  0  0  0  0  0
    3.0802    4.3548    5.4254 H   0  0  0  0  0  0  0  0  0  0  0  0
   -0.0567    1.6007    4.4237 H   0  0  0  0  0  0  0  0  0  0  0  0
    1.7438    1.1567    6.8059 H   0  0  0  0  0  0  0  0  0  0  0  0
    0.8182   -0.0543    5.9787 H   0  0  0  0  0  0  0  0  0  0  0  0
    4.6858    0.5673    4.8860 H   0  0  0  0  0  0  0  0  0  0  0  0
    3.8321    0.0397    6.3434 H   0  0  0  0  0  0  0  0  0  0  0  0
    4.0331    1.7281    6.0058 H   0  0  0  0  0  0  0  0  0  0  0  0
    3.4064    2.5906    3.9347 H   0  0  0  0  0  0  0  0  0  0  0  0
    0.9753    1.8236    2.3584 H   0  0  0  0  0  0  0  0  0  0  0  0
    2.2198    2.9322    1.9664 H   0  0  0  0  0  0  0  0  0  0  0  0
    2.1386    0.6177    0.8882 H   0  0  0  0  0  0  0  0  0  0  0  0
    3.7014    1.2878    1.2850 H   0  0  0  0  0  0  0  0  0  0  0  0
    4.2264   -0.1833    2.8671 H   0  0  0  0  0  0  0  0  0  0  0  0
    2.9788   -0.8592   -0.2145 H   0  0  0  0  0  0  0  0  0  0  0  0
    2.3713   -3.2748   -0.7852 H   0  0  0  0  0  0  0  0  0  0  0  0
    2.7457   -1.0384   -2.5155 H   0  0  0  0  0  0  0  0  0  0  0  0
    2.3397   -2.6215   -3.1685 H   0  0  0  0  0  0  0  0  0  0  0  0
    3.6983   -1.7231   -3.8236 H   0  0  0  0  0  0  0  0  0  0  0  0
    5.1554   -0.8246   -1.1927 H   0  0  0  0  0  0  0  0  0  0  0  0
    5.8056   -1.5364   -2.6492 H   0  0  0  0  0  0  0  0  0  0  0  0
    6.1276   -2.2932   -1.0979 H   0  0  0  0  0  0  0  0  0  0  0  0
    3.8535   -4.4715   -2.5210 H   0  0  0  0  0  0  0  0  0  0  0  0
    3.8012   -5.0791   -0.2917 H   0  0  0  0  0  0  0  0  0  0  0  0
    5.1061   -4.0598    0.2467 H   0  0  0  0  0  0  0  0  0  0  0  0
    2.3999   -4.4207    1.5941 H   0  0  0  0  0  0  0  0  0  0  0  0
    3.8978   -5.1049    2.1612 H   0  0  0  0  0  0  0  0  0  0  0  0
    5.5408   -3.7937    3.4002 H   0  0  0  0  0  0  0  0  0  0  0  0
    5.4726   -2.0449    3.4946 H   0  0  0  0  0  0  0  0  0  0  0  0
    5.8603   -2.8139    1.9789 H   0  0  0  0  0  0  0  0  0  0  0  0
    1.8541   -3.3694    3.5213 H   0  0  0  0  0  0  0  0  0  0  0  0
    3.2589   -3.8906    4.3903 H   0  0  0  0  0  0  0  0  0  0  0  0
    2.2291   -1.9550    5.4947 H   0  0  0  0  0  0  0  0  0  0  0  0
    3.8543   -1.6593    4.9788 H   0  0  0  0  0  0  0  0  0  0  0  0
    0.8509   -1.5975    2.5991 H   0  0  0  0  0  0  0  0  0  0  0  0
    0.3191   -0.0178    3.0133 H   0  0  0  0  0  0  0  0  0  0  0  0
    0.2857   -1.2795    4.2164 H   0  0  0  0  0  0  0  0  0  0  0  0
  1  2  2  0
  1 32  1  0
  1 33  1  0
  2  3  1  0
  2  4  1  0
  3 34  1  0
  3 35  1  0
  3 36  1  0
  4  9  1  0
  4  5  1  0
  4 37  1  1
  5  6  1  0
  5 38  1  0
  5 39  1  0
  6  7  1  0
  6 40  1  0
  6 41  1  0
  7 13  1  0
  7  8  1  1
  7  9  1  0
  8 42  1  0
  8 43  1  0
  8 44  1  0
  9 10  1  0
  9 45  1  6
 10 11  1  0
 10 46  1  0
 10 47  1  0
 11 30  1  0
 11 12  1  1
 11 13  1  0
 12 48  1  0
 12 49  1  0
 12 50  1  0
 13 14  1  0
 13 51  1  6
 14 15  1  0
 14 52  1  0
 14 53  1  0
 15 16  1  0
 15 54  1  0
 15 55  1  0
 16 30  1  0
 16 17  1  0
 16 56  1  1
 17 26  1  0
 17 18  2  0
 18 19  1  0
 18 57  1  0
 19 20  1  0
 19 24  1  0
 19 58  1  6
 20 21  1  0
 20 22  1  0
 20 23  1  0
 21 59  1  0
 21 60  1  0
 21 61  1  0
 22 62  1  0
 22 63  1  0
 22 64  1  0
 23 65  1  0
 24 25  1  0
 24 66  1  0
 24 67  1  0
 25 26  1  0
 25 68  1  0
 25 69  1  0
 26 27  1  1
 26 28  1  0
 27 70  1  0
 27 71  1  0
 27 72  1  0
 28 29  1  0
 28 73  1  0
 28 74  1  0
 29 30  1  0
 29 75  1  0
 29 76  1  0
 30 31  1  6
 31 77  1  0
 31 78  1  0
 31 79  1  0
M  END
>  <i_m_ct_stereo_status>  (413) 
1

>  <s_m_source_file>  (413) 
/var/tmp/pbs.5076255.sched01/tmpg0s73j8k/135j_ekwz2c.sdf

>  <i_m_source_file_index>  (413) 
38

>  <i_lp_mmshare_version>  (413) 
48012

>  <i_f3d_flags>  (413) 
0

>  <s_epik_input>  (413) 
W0NIMl09QyhbQ0gzXSlbQ0BIXShbQ0gyXVtDSDJdMSlbQ0BASF0oW0NAXTEyW0NIM10pW0NIMl1bQ0BdMyhbQ0gzXSlbQ0BIXTJbQ0gyXVtDSDJdW0NAQEhdNEM9NVtDQEBdKFtDSDNdKShbQ0gyXVtDSDJdW0NAQF0zNFtDSDNdKVtDSDJdW0NIMl1bQ0BASF0oW0NIXTUpQyhbQ0gzXSkoW0NIM10pW09IXQ==

>  <s_epik_cmdline>  (413) 
J2VwaWtfcHl0aG9uJywgJy1waHQnLCAnMi4wJywgJy1waCcsICc3LjAnLCAnLXRuJywgJzgnLCAnLW1hJywgJzIwMCcsICctaW1hZScsICc8aW5maWxlLm1hZT4nLCAnLW9tYWUnLCAnPG91dGZpbGUubWFlPic=

>  <r_lp_tautomer_probability>  (413) 
1

>  <r_epik_Ionization_Penalty>  (413) 
7.71602e-07

>  <r_epik_Ionization_Penalty_Charging>  (413) 
0

>  <r_epik_Ionization_Penalty_Neutral>  (413) 
7.71602e-07

>  <r_epik_State_Penalty>  (413) 
-0

>  <r_epik_Charging_Adjusted_Penalty>  (413) 
0

>  <i_epik_Tot_Q>  (413) 
0

>  <i_epik_Tot_abs_Q>  (413) 
0

>  <s_lp_Force_Field>  (413) 
OPLS3e

>  <r_lp_Energy>  (413) 
73.3538

>  <b_lp_Chiralities_Consistent>  (413) 
1

>  <s_lp_Variant>  (413) 
109:0-1

>  <s_i_glide_gridfile>  (413) 
pfpi4k_grid

>  <i_i_glide_lignum>  (413) 
38

>  <i_i_glide_rotatable_bonds>  (413) 
3

>  <r_i_docking_score>  (413) 
-2.99039

>  <r_i_glide_ligand_efficiency>  (413) 
-0.0964641

>  <r_i_glide_ligand_efficiency_sa>  (413) 
-0.30303

>  <r_i_glide_ligand_efficiency_ln>  (413) 
-0.674424

>  <r_i_glide_gscore>  (413) 
-2.99039

>  <r_i_glide_lipo>  (413) 
-0.305036

>  <r_i_glide_hbond>  (413) 
-0.32

>  <r_i_glide_metal>  (413) 
-0

>  <r_i_glide_rewards>  (413) 
-0.513399

>  <r_i_glide_evdw>  (413) 
-30.5564

>  <r_i_glide_ecoul>  (413) 
-3.62678

>  <r_i_glide_erotb>  (413) 
0.219887

>  <r_i_glide_esite>  (413) 
0

>  <r_i_glide_emodel>  (413) 
-39.2712

>  <r_i_glide_energy>  (413) 
-34.1832

>  <r_i_glide_einternal>  (413) 
1.47649

>  <r_i_glide_intrahb_reward>  (413) 
-0

>  <i_i_glide_confnum>  (413) 
4

>  <i_i_glide_posenum>  (413) 
9

>  <r_i_glide_eff_state_penalty>  (413) 
0

>  <ligand_id>  (413) 
109

>  <original_smiles>  (413) 
C=C(C)C1CCC2(C)C1CC1(C)C2CCC2C3=CC(C(C)(C)O)CCC3(C)CCC21C

>  <smiles>  (413) 
[H]OC(C([H])([H])[H])(C([H])([H])[H])C1([H])C([H])=C2C3([H])C([H])([H])C([H])([H])C4([H])C5(C([H])([H])[H])C([H])([H])C([H])([H])C([H])(C(=C([H])[H])C([H])([H])[H])C5([H])C([H])([H])C4(C([H])([H])[H])C3(C([H])([H])[H])C([H])([H])C([H])([H])C2(C([H])([H])[H])C([H])([H])C1([H])[H]

$$$$
109:0:1
     RDKit          3D

 79 83  0  0  1  0  0  0  0  0999 V2000
   -2.0658    0.5129    5.8791 C   0  0  0  0  0  0  0  0  0  0  0  0
   -1.8545    1.7790    6.2885 C   0  0  0  0  0  0  0  0  0  0  0  0
   -2.9092    2.5433    7.0595 C   0  0  0  0  0  0  0  0  0  0  0  0
   -0.5523    2.5366    6.0301 C   0  0  2  0  0  0  0  0  0  0  0  0
   -0.6995    3.8087    5.1446 C   0  0  0  0  0  0  0  0  0  0  0  0
    0.5670    3.8889    4.2316 C   0  0  0  0  0  0  0  0  0  0  0  0
    1.5295    2.8402    4.8313 C   0  0  1  0  0  0  0  0  0  0  0  0
    2.2803    3.5200    6.0110 C   0  0  0  0  0  0  0  0  0  0  0  0
    0.5141    1.7907    5.2294 C   0  0  1  0  0  0  0  0  0  0  0  0
    1.3426    0.6044    5.7167 C   0  0  0  0  0  0  0  0  0  0  0  0
    2.5182    0.5433    4.6863 C   0  0  2  0  0  0  0  0  0  0  0  0
    3.8301    0.4545    5.5157 C   0  0  0  0  0  0  0  0  0  0  0  0
    2.5113    1.9673    3.9905 C   0  0  1  0  0  0  0  0  0  0  0  0
    2.1924    1.9375    2.4911 C   0  0  0  0  0  0  0  0  0  0  0  0
    2.9274    0.8568    1.6851 C   0  0  0  0  0  0  0  0  0  0  0  0
    3.3124   -0.4524    2.4226 C   0  0  2  0  0  0  0  0  0  0  0  0
    3.4818   -1.6816    1.4856 C   0  0  0  0  0  0  0  0  0  0  0  0
    3.3854   -1.6258    0.1364 C   0  0  0  0  0  0  0  0  0  0  0  0
    3.5696   -2.7865   -0.8416 C   0  0  1  0  0  0  0  0  0  0  0  0
    4.3570   -2.3961   -2.1359 C   0  0  0  0  0  0  0  0  0  0  0  0
    4.6659   -3.6019   -3.0415 C   0  0  0  0  0  0  0  0  0  0  0  0
    3.6228   -1.3354   -2.9809 C   0  0  0  0  0  0  0  0  0  0  0  0
    5.5954   -1.8310   -1.7502 O   0  0  0  0  0  0  0  0  0  0  0  0
    4.1312   -4.0386   -0.1355 C   0  0  0  0  0  0  0  0  0  0  0  0
    3.5239   -4.2210    1.2549 C   0  0  0  0  0  0  0  0  0  0  0  0
    3.7815   -3.0172    2.1938 C   0  0  1  0  0  0  0  0  0  0  0  0
    5.2626   -3.0344    2.6303 C   0  0  0  0  0  0  0  0  0  0  0  0
    2.8647   -3.2189    3.4243 C   0  0  0  0  0  0  0  0  0  0  0  0
    2.8256   -2.0096    4.3609 C   0  0  0  0  0  0  0  0  0  0  0  0
    2.3899   -0.6901    3.6623 C   0  0  1  0  0  0  0  0  0  0  0  0
    0.9368   -0.9333    3.1524 C   0  0  0  0  0  0  0  0  0  0  0  0
   -2.9840    0.0138    6.1008 H   0  0  0  0  0  0  0  0  0  0  0  0
   -1.3544   -0.0615    5.3163 H   0  0  0  0  0  0  0  0  0  0  0  0
   -3.2788    3.3908    6.4792 H   0  0  0  0  0  0  0  0  0  0  0  0
   -2.5134    2.9202    8.0038 H   0  0  0  0  0  0  0  0  0  0  0  0
   -3.7649    1.9073    7.2788 H   0  0  0  0  0  0  0  0  0  0  0  0
   -0.1544    2.8165    7.0056 H   0  0  0  0  0  0  0  0  0  0  0  0
   -1.5949    3.7498    4.5231 H   0  0  0  0  0  0  0  0  0  0  0  0
   -0.7947    4.7037    5.7625 H   0  0  0  0  0  0  0  0  0  0  0  0
    0.2795    3.6573    3.2076 H   0  0  0  0  0  0  0  0  0  0  0  0
    1.0014    4.8895    4.2038 H   0  0  0  0  0  0  0  0  0  0  0  0
    2.6112    2.8167    6.7701 H   0  0  0  0  0  0  0  0  0  0  0  0
    1.6572    4.2493    6.5281 H   0  0  0  0  0  0  0  0  0  0  0  0
    3.1604    4.0585    5.6519 H   0  0  0  0  0  0  0  0  0  0  0  0
    0.0156    1.4728    4.3123 H   0  0  0  0  0  0  0  0  0  0  0  0
    1.7017    0.7954    6.7290 H   0  0  0  0  0  0  0  0  0  0  0  0
    0.7760   -0.3208    5.7735 H   0  0  0  0  0  0  0  0  0  0  0  0
    4.7012    0.2816    4.8852 H   0  0  0  0  0  0  0  0  0  0  0  0
    3.7768   -0.3363    6.2648 H   0  0  0  0  0  0  0  0  0  0  0  0
    4.0286    1.3702    6.0669 H   0  0  0  0  0  0  0  0  0  0  0  0
    3.5094    2.4018    4.0460 H   0  0  0  0  0  0  0  0  0  0  0  0
    1.1235    1.8325    2.3279 H   0  0  0  0  0  0  0  0  0  0  0  0
    2.4276    2.9172    2.0740 H   0  0  0  0  0  0  0  0  0  0  0  0
    2.2542    0.6544    0.8580 H   0  0  0  0  0  0  0  0  0  0  0  0
    3.8290    1.2883    1.2663 H   0  0  0  0  0  0  0  0  0  0  0  0
    4.3216   -0.2973    2.8040 H   0  0  0  0  0  0  0  0  0  0  0  0
    3.1715   -0.6946   -0.3541 H   0  0  0  0  0  0  0  0  0  0  0  0
    2.5524   -3.0288   -1.1441 H   0  0  0  0  0  0  0  0  0  0  0  0
    3.7472   -4.0965   -3.3605 H   0  0  0  0  0  0  0  0  0  0  0  0
    5.2945   -4.3396   -2.5404 H   0  0  0  0  0  0  0  0  0  0  0  0
    5.2000   -3.2920   -3.9363 H   0  0  0  0  0  0  0  0  0  0  0  0
    2.6186   -1.6713   -3.2459 H   0  0  0  0  0  0  0  0  0  0  0  0
    4.1595   -1.1390   -3.9098 H   0  0  0  0  0  0  0  0  0  0  0  0
    3.5277   -0.3792   -2.4685 H   0  0  0  0  0  0  0  0  0  0  0  0
    5.3978   -1.1601   -1.1168 H   0  0  0  0  0  0  0  0  0  0  0  0
    3.9037   -4.9284   -0.7194 H   0  0  0  0  0  0  0  0  0  0  0  0
    5.2183   -3.9868   -0.0660 H   0  0  0  0  0  0  0  0  0  0  0  0
    2.4505   -4.3730    1.1342 H   0  0  0  0  0  0  0  0  0  0  0  0
    3.9088   -5.1378    1.7056 H   0  0  0  0  0  0  0  0  0  0  0  0
    5.5258   -3.9785    3.1090 H   0  0  0  0  0  0  0  0  0  0  0  0
    5.4967   -2.2385    3.3353 H   0  0  0  0  0  0  0  0  0  0  0  0
    5.9313   -2.9008    1.7808 H   0  0  0  0  0  0  0  0  0  0  0  0
    1.8510   -3.4652    3.1062 H   0  0  0  0  0  0  0  0  0  0  0  0
    3.2055   -4.0883    3.9891 H   0  0  0  0  0  0  0  0  0  0  0  0
    2.1687   -2.2219    5.2029 H   0  0  0  0  0  0  0  0  0  0  0  0
    3.8223   -1.9278    4.7794 H   0  0  0  0  0  0  0  0  0  0  0  0
    0.9354   -1.6024    2.2926 H   0  0  0  0  0  0  0  0  0  0  0  0
    0.4173   -0.0481    2.8068 H   0  0  0  0  0  0  0  0  0  0  0  0
    0.3008   -1.3964    3.9057 H   0  0  0  0  0  0  0  0  0  0  0  0
  1  2  2  0
  1 32  1  0
  1 33  1  0
  2  3  1  0
  2  4  1  0
  3 34  1  0
  3 35  1  0
  3 36  1  0
  4  9  1  0
  4  5  1  0
  4 37  1  1
  5  6  1  0
  5 38  1  0
  5 39  1  0
  6  7  1  0
  6 40  1  0
  6 41  1  0
  7 13  1  0
  7  8  1  1
  7  9  1  0
  8 42  1  0
  8 43  1  0
  8 44  1  0
  9 10  1  0
  9 45  1  6
 10 11  1  0
 10 46  1  0
 10 47  1  0
 11 30  1  0
 11 12  1  1
 11 13  1  0
 12 48  1  0
 12 49  1  0
 12 50  1  0
 13 14  1  0
 13 51  1  6
 14 15  1  0
 14 52  1  0
 14 53  1  0
 15 16  1  0
 15 54  1  0
 15 55  1  0
 16 30  1  0
 16 17  1  0
 16 56  1  1
 17 26  1  0
 17 18  2  0
 18 19  1  0
 18 57  1  0
 19 20  1  0
 19 24  1  0
 19 58  1  6
 20 21  1  0
 20 22  1  0
 20 23  1  0
 21 59  1  0
 21 60  1  0
 21 61  1  0
 22 62  1  0
 22 63  1  0
 22 64  1  0
 23 65  1  0
 24 25  1  0
 24 66  1  0
 24 67  1  0
 25 26  1  0
 25 68  1  0
 25 69  1  0
 26 27  1  1
 26 28  1  0
 27 70  1  0
 27 71  1  0
 27 72  1  0
 28 29  1  0
 28 73  1  0
 28 74  1  0
 29 30  1  0
 29 75  1  0
 29 76  1  0
 30 31  1  6
 31 77  1  0
 31 78  1  0
 31 79  1  0
M  END
>  <i_m_ct_stereo_status>  (414) 
1

>  <s_m_source_file>  (414) 
/var/tmp/pbs.5076255.sched01/tmpg0s73j8k/135j_ekwz2c.sdf

>  <i_m_source_file_index>  (414) 
38

>  <i_lp_mmshare_version>  (414) 
48012

>  <i_f3d_flags>  (414) 
0

>  <s_epik_input>  (414) 
W0NIMl09QyhbQ0gzXSlbQ0BIXShbQ0gyXVtDSDJdMSlbQ0BASF0oW0NAXTEyW0NIM10pW0NIMl1bQ0BdMyhbQ0gzXSlbQ0BIXTJbQ0gyXVtDSDJdW0NAQEhdNEM9NVtDQEBdKFtDSDNdKShbQ0gyXVtDSDJdW0NAQF0zNFtDSDNdKVtDSDJdW0NIMl1bQ0BASF0oW0NIXTUpQyhbQ0gzXSkoW0NIM10pW09IXQ==

>  <s_epik_cmdline>  (414) 
J2VwaWtfcHl0aG9uJywgJy1waHQnLCAnMi4wJywgJy1waCcsICc3LjAnLCAnLXRuJywgJzgnLCAnLW1hJywgJzIwMCcsICctaW1hZScsICc8aW5maWxlLm1hZT4nLCAnLW9tYWUnLCAnPG91dGZpbGUubWFlPic=

>  <r_lp_tautomer_probability>  (414) 
1

>  <r_epik_Ionization_Penalty>  (414) 
7.71602e-07

>  <r_epik_Ionization_Penalty_Charging>  (414) 
0

>  <r_epik_Ionization_Penalty_Neutral>  (414) 
7.71602e-07

>  <r_epik_State_Penalty>  (414) 
-0

>  <r_epik_Charging_Adjusted_Penalty>  (414) 
0

>  <i_epik_Tot_Q>  (414) 
0

>  <i_epik_Tot_abs_Q>  (414) 
0

>  <s_lp_Force_Field>  (414) 
OPLS3e

>  <r_lp_Energy>  (414) 
73.3538

>  <b_lp_Chiralities_Consistent>  (414) 
1

>  <s_lp_Variant>  (414) 
109:0-1

>  <s_i_glide_gridfile>  (414) 
pfpi4k_grid

>  <i_i_glide_lignum>  (414) 
38

>  <i_i_glide_rotatable_bonds>  (414) 
3

>  <r_i_docking_score>  (414) 
-2.52798

>  <r_i_glide_ligand_efficiency>  (414) 
-0.0815479

>  <r_i_glide_ligand_efficiency_sa>  (414) 
-0.256173

>  <r_i_glide_ligand_efficiency_ln>  (414) 
-0.570138

>  <r_i_glide_gscore>  (414) 
-2.52798

>  <r_i_glide_lipo>  (414) 
-0.407102

>  <r_i_glide_hbond>  (414) 
0

>  <r_i_glide_metal>  (414) 
-0

>  <r_i_glide_rewards>  (414) 
-0.513399

>  <r_i_glide_evdw>  (414) 
-31.501

>  <r_i_glide_ecoul>  (414) 
-1.68212

>  <r_i_glide_erotb>  (414) 
0.219887

>  <r_i_glide_esite>  (414) 
0

>  <r_i_glide_emodel>  (414) 
-37.6608

>  <r_i_glide_energy>  (414) 
-33.1832

>  <r_i_glide_einternal>  (414) 
1.15447

>  <r_i_glide_intrahb_reward>  (414) 
-0

>  <i_i_glide_confnum>  (414) 
4

>  <i_i_glide_posenum>  (414) 
10

>  <r_i_glide_eff_state_penalty>  (414) 
0

>  <ligand_id>  (414) 
109

>  <original_smiles>  (414) 
C=C(C)C1CCC2(C)C1CC1(C)C2CCC2C3=CC(C(C)(C)O)CCC3(C)CCC21C

>  <smiles>  (414) 
[H]OC(C([H])([H])[H])(C([H])([H])[H])C1([H])C([H])=C2C3([H])C([H])([H])C([H])([H])C4([H])C5(C([H])([H])[H])C([H])([H])C([H])([H])C([H])(C(=C([H])[H])C([H])([H])[H])C5([H])C([H])([H])C4(C([H])([H])[H])C3(C([H])([H])[H])C([H])([H])C([H])([H])C2(C([H])([H])[H])C([H])([H])C1([H])[H]

$$$$
109:0:2
     RDKit          3D

 79 83  0  0  1  0  0  0  0  0999 V2000
   -2.0865    0.6882    6.1140 C   0  0  0  0  0  0  0  0  0  0  0  0
   -1.8748    1.9803    6.4417 C   0  0  0  0  0  0  0  0  0  0  0  0
   -2.9448    2.7859    7.1545 C   0  0  0  0  0  0  0  0  0  0  0  0
   -0.5714    2.7223    6.1455 C   0  0  2  0  0  0  0  0  0  0  0  0
   -0.7143    3.9736    5.2265 C   0  0  0  0  0  0  0  0  0  0  0  0
    0.5428    4.0150    4.3005 C   0  0  0  0  0  0  0  0  0  0  0  0
    1.5011    2.9710    4.9164 C   0  0  1  0  0  0  0  0  0  0  0  0
    2.2724    3.6737    6.0724 C   0  0  0  0  0  0  0  0  0  0  0  0
    0.4798    1.9425    5.3542 C   0  0  1  0  0  0  0  0  0  0  0  0
    1.3017    0.7630    5.8651 C   0  0  0  0  0  0  0  0  0  0  0  0
    2.4668    0.6635    4.8214 C   0  0  2  0  0  0  0  0  0  0  0  0
    3.7855    0.5827    5.6447 C   0  0  0  0  0  0  0  0  0  0  0  0
    2.4649    2.0683    4.0853 C   0  0  1  0  0  0  0  0  0  0  0  0
    2.1347    2.0041    2.5839 C   0  0  0  0  0  0  0  0  0  0  0  0
    2.8673    0.9027    1.7981 C   0  0  0  0  0  0  0  0  0  0  0  0
    3.2238   -0.3988    2.5712 C   0  0  2  0  0  0  0  0  0  0  0  0
    3.3660   -1.6659    1.6769 C   0  0  0  0  0  0  0  0  0  0  0  0
    3.2638   -1.6464    0.3265 C   0  0  0  0  0  0  0  0  0  0  0  0
    3.4184   -2.8361   -0.6222 C   0  0  1  0  0  0  0  0  0  0  0  0
    4.2229   -2.4776   -1.9130 C   0  0  0  0  0  0  0  0  0  0  0  0
    5.6659   -2.0537   -1.6082 C   0  0  0  0  0  0  0  0  0  0  0  0
    4.2251   -3.5975   -2.9668 C   0  0  0  0  0  0  0  0  0  0  0  0
    3.5973   -1.3804   -2.5528 O   0  0  0  0  0  0  0  0  0  0  0  0
    3.9572   -4.0842    0.1099 C   0  0  0  0  0  0  0  0  0  0  0  0
    3.3709   -4.2153    1.5161 C   0  0  0  0  0  0  0  0  0  0  0  0
    3.6606   -2.9843    2.4191 C   0  0  1  0  0  0  0  0  0  0  0  0
    5.1489   -3.0007    2.8405 C   0  0  0  0  0  0  0  0  0  0  0  0
    2.7566   -3.1375    3.6668 C   0  0  0  0  0  0  0  0  0  0  0  0
    2.7428   -1.8974    4.5629 C   0  0  0  0  0  0  0  0  0  0  0  0
    2.3083   -0.5942    3.8293 C   0  0  1  0  0  0  0  0  0  0  0  0
    0.8466   -0.8399    3.3420 C   0  0  0  0  0  0  0  0  0  0  0  0
   -3.0033    0.1967    6.3749 H   0  0  0  0  0  0  0  0  0  0  0  0
   -1.3610    0.0965    5.5840 H   0  0  0  0  0  0  0  0  0  0  0  0
   -3.3056    3.5982    6.5207 H   0  0  0  0  0  0  0  0  0  0  0  0
   -2.5713    3.2122    8.0869 H   0  0  0  0  0  0  0  0  0  0  0  0
   -3.7963    2.1541    7.3956 H   0  0  0  0  0  0  0  0  0  0  0  0
   -0.1582    3.0290    7.1087 H   0  0  0  0  0  0  0  0  0  0  0  0
   -1.6155    3.9101    4.6139 H   0  0  0  0  0  0  0  0  0  0  0  0
   -0.7931    4.8850    5.8233 H   0  0  0  0  0  0  0  0  0  0  0  0
    0.2451    3.7581    3.2849 H   0  0  0  0  0  0  0  0  0  0  0  0
    0.9892    5.0087    4.2442 H   0  0  0  0  0  0  0  0  0  0  0  0
    2.6042    2.9893    6.8479 H   0  0  0  0  0  0  0  0  0  0  0  0
    1.6657    4.4251    6.5763 H   0  0  0  0  0  0  0  0  0  0  0  0
    3.1546    4.1922    5.6909 H   0  0  0  0  0  0  0  0  0  0  0  0
   -0.0371    1.6003    4.4570 H   0  0  0  0  0  0  0  0  0  0  0  0
    1.6693    0.9797    6.8685 H   0  0  0  0  0  0  0  0  0  0  0  0
    0.7345   -0.1582    5.9544 H   0  0  0  0  0  0  0  0  0  0  0  0
    4.6508    0.3824    5.0147 H   0  0  0  0  0  0  0  0  0  0  0  0
    3.7330   -0.1852    6.4163 H   0  0  0  0  0  0  0  0  0  0  0  0
    4.0003    1.5094    6.1694 H   0  0  0  0  0  0  0  0  0  0  0  0
    3.4695    2.4934    4.1231 H   0  0  0  0  0  0  0  0  0  0  0  0
    1.0643    1.8925    2.4366 H   0  0  0  0  0  0  0  0  0  0  0  0
    2.3624    2.9697    2.1315 H   0  0  0  0  0  0  0  0  0  0  0  0
    2.2075    0.7039    0.9551 H   0  0  0  0  0  0  0  0  0  0  0  0
    3.7927    1.3081    1.3868 H   0  0  0  0  0  0  0  0  0  0  0  0
    4.2342   -0.2424    2.9471 H   0  0  0  0  0  0  0  0  0  0  0  0
    3.0716   -0.7276   -0.1914 H   0  0  0  0  0  0  0  0  0  0  0  0
    2.3935   -3.0609   -0.9187 H   0  0  0  0  0  0  0  0  0  0  0  0
    6.2349   -2.8366   -1.1110 H   0  0  0  0  0  0  0  0  0  0  0  0
    5.6952   -1.1573   -0.9905 H   0  0  0  0  0  0  0  0  0  0  0  0
    6.1842   -1.8471   -2.5352 H   0  0  0  0  0  0  0  0  0  0  0  0
    4.6405   -4.5218   -2.5612 H   0  0  0  0  0  0  0  0  0  0  0  0
    4.8275   -3.3337   -3.8368 H   0  0  0  0  0  0  0  0  0  0  0  0
    3.2169   -3.8277   -3.3171 H   0  0  0  0  0  0  0  0  0  0  0  0
    2.6649   -1.4246   -2.3769 H   0  0  0  0  0  0  0  0  0  0  0  0
    3.7194   -4.9812   -0.4637 H   0  0  0  0  0  0  0  0  0  0  0  0
    5.0421   -4.0666    0.1938 H   0  0  0  0  0  0  0  0  0  0  0  0
    2.2939   -4.3587    1.4172 H   0  0  0  0  0  0  0  0  0  0  0  0
    3.7576   -5.1209    1.9867 H   0  0  0  0  0  0  0  0  0  0  0  0
    5.4113   -3.9318    3.3426 H   0  0  0  0  0  0  0  0  0  0  0  0
    5.3990   -2.1871    3.5199 H   0  0  0  0  0  0  0  0  0  0  0  0
    5.8087   -2.8942    1.9805 H   0  0  0  0  0  0  0  0  0  0  0  0
    1.7376   -3.3815    3.3684 H   0  0  0  0  0  0  0  0  0  0  0  0
    3.0938   -3.9933    4.2526 H   0  0  0  0  0  0  0  0  0  0  0  0
    2.0943   -2.0805    5.4202 H   0  0  0  0  0  0  0  0  0  0  0  0
    3.7445   -1.8165    4.9700 H   0  0  0  0  0  0  0  0  0  0  0  0
    0.8247   -1.5344    2.5039 H   0  0  0  0  0  0  0  0  0  0  0  0
    0.3311    0.0402    2.9803 H   0  0  0  0  0  0  0  0  0  0  0  0
    0.2168   -1.2769    4.1170 H   0  0  0  0  0  0  0  0  0  0  0  0
  1  2  2  0
  1 32  1  0
  1 33  1  0
  2  3  1  0
  2  4  1  0
  3 34  1  0
  3 35  1  0
  3 36  1  0
  4  9  1  0
  4  5  1  0
  4 37  1  1
  5  6  1  0
  5 38  1  0
  5 39  1  0
  6  7  1  0
  6 40  1  0
  6 41  1  0
  7 13  1  0
  7  8  1  1
  7  9  1  0
  8 42  1  0
  8 43  1  0
  8 44  1  0
  9 10  1  0
  9 45  1  6
 10 11  1  0
 10 46  1  0
 10 47  1  0
 11 30  1  0
 11 12  1  1
 11 13  1  0
 12 48  1  0
 12 49  1  0
 12 50  1  0
 13 14  1  0
 13 51  1  6
 14 15  1  0
 14 52  1  0
 14 53  1  0
 15 16  1  0
 15 54  1  0
 15 55  1  0
 16 30  1  0
 16 17  1  0
 16 56  1  1
 17 26  1  0
 17 18  2  0
 18 19  1  0
 18 57  1  0
 19 20  1  0
 19 24  1  0
 19 58  1  6
 20 21  1  0
 20 22  1  0
 20 23  1  0
 21 59  1  0
 21 60  1  0
 21 61  1  0
 22 62  1  0
 22 63  1  0
 22 64  1  0
 23 65  1  0
 24 25  1  0
 24 66  1  0
 24 67  1  0
 25 26  1  0
 25 68  1  0
 25 69  1  0
 26 27  1  1
 26 28  1  0
 27 70  1  0
 27 71  1  0
 27 72  1  0
 28 29  1  0
 28 73  1  0
 28 74  1  0
 29 30  1  0
 29 75  1  0
 29 76  1  0
 30 31  1  6
 31 77  1  0
 31 78  1  0
 31 79  1  0
M  END
>  <i_m_ct_stereo_status>  (415) 
1

>  <s_m_source_file>  (415) 
/var/tmp/pbs.5076255.sched01/tmpg0s73j8k/135j_ekwz2c.sdf

>  <i_m_source_file_index>  (415) 
38

>  <i_lp_mmshare_version>  (415) 
48012

>  <i_f3d_flags>  (415) 
0

>  <s_epik_input>  (415) 
W0NIMl09QyhbQ0gzXSlbQ0BIXShbQ0gyXVtDSDJdMSlbQ0BASF0oW0NAXTEyW0NIM10pW0NIMl1bQ0BdMyhbQ0gzXSlbQ0BIXTJbQ0gyXVtDSDJdW0NAQEhdNEM9NVtDQEBdKFtDSDNdKShbQ0gyXVtDSDJdW0NAQF0zNFtDSDNdKVtDSDJdW0NIMl1bQ0BASF0oW0NIXTUpQyhbQ0gzXSkoW0NIM10pW09IXQ==

>  <s_epik_cmdline>  (415) 
J2VwaWtfcHl0aG9uJywgJy1waHQnLCAnMi4wJywgJy1waCcsICc3LjAnLCAnLXRuJywgJzgnLCAnLW1hJywgJzIwMCcsICctaW1hZScsICc8aW5maWxlLm1hZT4nLCAnLW9tYWUnLCAnPG91dGZpbGUubWFlPic=

>  <r_lp_tautomer_probability>  (415) 
1

>  <r_epik_Ionization_Penalty>  (415) 
7.71602e-07

>  <r_epik_Ionization_Penalty_Charging>  (415) 
0

>  <r_epik_Ionization_Penalty_Neutral>  (415) 
7.71602e-07

>  <r_epik_State_Penalty>  (415) 
-0

>  <r_epik_Charging_Adjusted_Penalty>  (415) 
0

>  <i_epik_Tot_Q>  (415) 
0

>  <i_epik_Tot_abs_Q>  (415) 
0

>  <s_lp_Force_Field>  (415) 
OPLS3e

>  <r_lp_Energy>  (415) 
73.3538

>  <b_lp_Chiralities_Consistent>  (415) 
1

>  <s_lp_Variant>  (415) 
109:0-1

>  <s_i_glide_gridfile>  (415) 
pfpi4k_grid

>  <i_i_glide_lignum>  (415) 
38

>  <i_i_glide_rotatable_bonds>  (415) 
3

>  <r_i_docking_score>  (415) 
-2.27486

>  <r_i_glide_ligand_efficiency>  (415) 
-0.0733825

>  <r_i_glide_ligand_efficiency_sa>  (415) 
-0.230522

>  <r_i_glide_ligand_efficiency_ln>  (415) 
-0.51305

>  <r_i_glide_gscore>  (415) 
-2.27486

>  <r_i_glide_lipo>  (415) 
-0.311488

>  <r_i_glide_hbond>  (415) 
0

>  <r_i_glide_metal>  (415) 
-0

>  <r_i_glide_rewards>  (415) 
-0.513399

>  <r_i_glide_evdw>  (415) 
-29.2123

>  <r_i_glide_ecoul>  (415) 
-1.39495

>  <r_i_glide_erotb>  (415) 
0.219887

>  <r_i_glide_esite>  (415) 
0

>  <r_i_glide_emodel>  (415) 
-34.0803

>  <r_i_glide_energy>  (415) 
-30.6072

>  <r_i_glide_einternal>  (415) 
1.58346

>  <r_i_glide_intrahb_reward>  (415) 
-0

>  <i_i_glide_confnum>  (415) 
4

>  <i_i_glide_posenum>  (415) 
1

>  <r_i_glide_eff_state_penalty>  (415) 
0

>  <ligand_id>  (415) 
109

>  <original_smiles>  (415) 
C=C(C)C1CCC2(C)C1CC1(C)C2CCC2C3=CC(C(C)(C)O)CCC3(C)CCC21C

>  <smiles>  (415) 
[H]OC(C([H])([H])[H])(C([H])([H])[H])C1([H])C([H])=C2C3([H])C([H])([H])C([H])([H])C4([H])C5(C([H])([H])[H])C([H])([H])C([H])([H])C([H])(C(=C([H])[H])C([H])([H])[H])C5([H])C([H])([H])C4(C([H])([H])[H])C3(C([H])([H])[H])C([H])([H])C([H])([H])C2(C([H])([H])[H])C([H])([H])C1([H])[H]

$$$$
110:0:0
     RDKit          3D

 55 59  0  0  1  0  0  0  0  0999 V2000
    1.5081   -5.4093    3.5428 C   0  0  0  0  0  0  0  0  0  0  0  0
    2.8791   -5.2649    3.1585 O   0  0  0  0  0  0  0  0  0  0  0  0
    3.4244   -4.0715    2.6374 C   0  0  1  0  0  0  0  0  0  0  0  0
    3.0646   -3.1656    3.6823 O   0  0  0  0  0  0  0  0  0  0  0  0
    3.8725   -2.4109    4.4441 C   0  0  0  0  0  0  0  0  0  0  0  0
    3.7446   -2.3207    5.6560 O   0  0  0  0  0  0  0  0  0  0  0  0
    4.7358   -1.3954    3.7119 C   0  0  0  0  0  0  0  0  0  0  0  0
    5.5412   -2.0435    2.6210 C   0  0  1  0  0  0  0  0  0  0  0  0
    5.8065   -3.4326    3.0149 O   0  0  0  0  0  0  0  0  0  0  0  0
    5.0409   -4.3458    2.2660 C   0  0  1  0  0  0  0  0  0  0  0  0
    5.1811   -5.8912    2.3900 C   0  0  1  0  0  0  0  0  0  0  0  0
    5.1487   -6.5182    3.8059 C   0  0  0  0  0  0  0  0  0  0  0  0
    4.3587   -6.6670    1.2987 C   0  0  0  0  0  0  0  0  0  0  0  0
    4.6122   -7.8572    1.1497 O   0  0  0  0  0  0  0  0  0  0  0  0
    3.3245   -6.0533    0.5267 O   0  0  0  0  0  0  0  0  0  0  0  0
    2.8789   -4.6799    0.2896 C   0  0  2  0  0  0  0  0  0  0  0  0
    3.3085   -4.0241   -1.0485 C   0  0  0  0  0  0  0  0  0  0  0  0
    3.8304   -2.5646   -0.9967 C   0  0  1  0  0  0  0  0  0  0  0  0
    3.0499   -1.7640   -1.8553 O   0  0  0  0  0  0  0  0  0  0  0  0
    3.8465   -1.9189    0.4029 C   0  0  0  0  0  0  0  0  0  0  0  0
    2.8188   -2.2347    1.1694 C   0  0  0  0  0  0  0  0  0  0  0  0
    1.9984   -1.1547    1.8730 C   0  0  0  0  0  0  0  0  0  0  0  0
    2.5777   -3.6948    1.4454 C   0  0  2  0  0  0  0  0  0  0  0  0
    5.2102   -1.6826    1.0981 C   0  0  1  0  0  0  0  0  0  0  0  0
    5.5486   -0.2308    0.8074 C   0  0  0  0  0  0  0  0  0  0  0  0
    6.1816   -2.6405    0.4990 C   0  0  0  0  0  0  0  0  0  0  0  0
    7.1020   -2.2682   -0.2454 O   0  0  0  0  0  0  0  0  0  0  0  0
    5.8736   -4.1032    0.8570 C   0  0  1  0  0  0  0  0  0  0  0  0
    7.2409   -4.8580    0.6784 C   0  0  0  0  0  0  0  0  0  0  0  0
    1.4278   -6.2857    4.1876 H   0  0  0  0  0  0  0  0  0  0  0  0
    0.8753   -5.6018    2.6757 H   0  0  0  0  0  0  0  0  0  0  0  0
    1.1085   -4.5587    4.0993 H   0  0  0  0  0  0  0  0  0  0  0  0
    4.1282   -0.5740    3.3379 H   0  0  0  0  0  0  0  0  0  0  0  0
    5.4058   -0.9555    4.4558 H   0  0  0  0  0  0  0  0  0  0  0  0
    6.5115   -1.5774    2.7830 H   0  0  0  0  0  0  0  0  0  0  0  0
    6.1970   -6.1720    2.1862 H   0  0  0  0  0  0  0  0  0  0  0  0
    5.9073   -7.2980    3.8899 H   0  0  0  0  0  0  0  0  0  0  0  0
    4.1985   -7.0008    4.0439 H   0  0  0  0  0  0  0  0  0  0  0  0
    5.3618   -5.7719    4.5728 H   0  0  0  0  0  0  0  0  0  0  0  0
    1.8531   -4.9422    0.0305 H   0  0  0  0  0  0  0  0  0  0  0  0
    4.0776   -4.6366   -1.5175 H   0  0  0  0  0  0  0  0  0  0  0  0
    2.4636   -4.0709   -1.7352 H   0  0  0  0  0  0  0  0  0  0  0  0
    4.7821   -2.5102   -1.5244 H   0  0  0  0  0  0  0  0  0  0  0  0
    2.1995   -1.5601   -1.4418 H   0  0  0  0  0  0  0  0  0  0  0  0
    1.7170   -1.3863    2.8987 H   0  0  0  0  0  0  0  0  0  0  0  0
    1.0646   -0.9806    1.3432 H   0  0  0  0  0  0  0  0  0  0  0  0
    2.5371   -0.2047    1.8664 H   0  0  0  0  0  0  0  0  0  0  0  0
    1.5274   -3.7330    1.7210 H   0  0  0  0  0  0  0  0  0  0  0  0
    5.5321   -0.0239   -0.2622 H   0  0  0  0  0  0  0  0  0  0  0  0
    6.5450   -0.0463    1.1499 H   0  0  0  0  0  0  0  0  0  0  0  0
    4.8550    0.4548    1.3002 H   0  0  0  0  0  0  0  0  0  0  0  0
    5.3285   -4.5085    0.0309 H   0  0  0  0  0  0  0  0  0  0  0  0
    7.8196   -4.5185   -0.1812 H   0  0  0  0  0  0  0  0  0  0  0  0
    7.1115   -5.9195    0.4575 H   0  0  0  0  0  0  0  0  0  0  0  0
    7.8877   -4.7596    1.5512 H   0  0  0  0  0  0  0  0  0  0  0  0
  1  2  1  0
  1 30  1  0
  1 31  1  0
  1 32  1  0
  3  2  1  1
  3 10  1  0
  3 23  1  0
  3  4  1  0
  4  5  1  0
  5  6  2  0
  5  7  1  0
  7  8  1  0
  7 33  1  0
  7 34  1  0
  8 24  1  0
  8  9  1  0
  8 35  1  1
 10  9  1  1
 10 28  1  0
 10 11  1  0
 11 12  1  0
 11 13  1  0
 11 36  1  6
 12 37  1  0
 12 38  1  0
 12 39  1  0
 13 14  2  0
 13 15  1  0
 15 16  1  0
 16 23  1  0
 16 17  1  0
 16 40  1  6
 17 18  1  0
 17 41  1  0
 17 42  1  0
 18 19  1  0
 18 20  1  0
 18 43  1  6
 19 44  1  0
 20 21  2  0
 20 24  1  0
 21 22  1  0
 21 23  1  0
 22 45  1  0
 22 46  1  0
 22 47  1  0
 23 48  1  1
 24 25  1  1
 24 26  1  0
 25 49  1  0
 25 50  1  0
 25 51  1  0
 26 27  2  0
 26 28  1  0
 28 29  1  0
 28 52  1  6
 29 53  1  0
 29 54  1  0
 29 55  1  0
M  END
>  <i_m_ct_stereo_status>  (416) 
1

>  <s_m_source_file>  (416) 
/var/tmp/pbs.5076255.sched01/tmpg0s73j8k/135j_ekwz2c.sdf

>  <i_m_source_file_index>  (416) 
39

>  <i_lp_mmshare_version>  (416) 
48012

>  <i_f3d_flags>  (416) 
0

>  <s_epik_input>  (416) 
W0NIM11PW0NAQF0xKFtDQEBdMjM0KVtDQEBIXTVbQ0BIXShPQyg9TylbQ0BASF0zW0NIM10pW0NIMl1bQ0BASF0oW09IXSlDKD1DNVtDSDNdKVtDQEBdKFtDSDNdKShbQ0BIXShPMilbQ0gyXUMoTzEpPU8pQyg9TylbQ0BIXTRbQ0gzXQ==

>  <s_epik_cmdline>  (416) 
J2VwaWtfcHl0aG9uJywgJy1waHQnLCAnMi4wJywgJy1waCcsICc3LjAnLCAnLXRuJywgJzgnLCAnLW1hJywgJzIwMCcsICctaW1hZScsICc8aW5maWxlLm1hZT4nLCAnLW9tYWUnLCAnPG91dGZpbGUubWFlPic=

>  <r_lp_tautomer_probability>  (416) 
1

>  <r_epik_Ionization_Penalty>  (416) 
1.24186e-05

>  <r_epik_Ionization_Penalty_Charging>  (416) 
0

>  <r_epik_Ionization_Penalty_Neutral>  (416) 
1.24186e-05

>  <r_epik_State_Penalty>  (416) 
-0

>  <r_epik_Charging_Adjusted_Penalty>  (416) 
0

>  <i_epik_Tot_Q>  (416) 
0

>  <i_epik_Tot_abs_Q>  (416) 
0

>  <s_epik_Chemistry_Notes>  (416) 
This compound has an ester and may undergo hydrolysis at high or low pH.

>  <s_lp_Force_Field>  (416) 
OPLS3e

>  <r_lp_Energy>  (416) 
203.305

>  <b_lp_Chiralities_Consistent>  (416) 
1

>  <s_lp_Variant>  (416) 
110:0-1

>  <s_i_glide_gridfile>  (416) 
pfpi4k_grid

>  <i_i_glide_lignum>  (416) 
39

>  <i_i_glide_rotatable_bonds>  (416) 
2

>  <r_i_docking_score>  (416) 
-3.36362

>  <r_i_glide_ligand_efficiency>  (416) 
-0.115987

>  <r_i_glide_ligand_efficiency_sa>  (416) 
-0.356348

>  <r_i_glide_ligand_efficiency_ln>  (416) 
-0.770183

>  <r_i_glide_gscore>  (416) 
-3.36362

>  <r_i_glide_lipo>  (416) 
-0.526534

>  <r_i_glide_hbond>  (416) 
-0.217973

>  <r_i_glide_metal>  (416) 
-0

>  <r_i_glide_rewards>  (416) 
-0.849227

>  <r_i_glide_evdw>  (416) 
-14.4921

>  <r_i_glide_ecoul>  (416) 
-6.96851

>  <r_i_glide_erotb>  (416) 
0

>  <r_i_glide_esite>  (416) 
0

>  <r_i_glide_emodel>  (416) 
-24.756

>  <r_i_glide_energy>  (416) 
-21.4606

>  <r_i_glide_einternal>  (416) 
0.207585

>  <r_i_glide_intrahb_reward>  (416) 
-0

>  <i_i_glide_confnum>  (416) 
2

>  <i_i_glide_posenum>  (416) 
14

>  <r_i_glide_eff_state_penalty>  (416) 
0

>  <ligand_id>  (416) 
110

>  <original_smiles>  (416) 
COC12OC(=O)CC3OC14C(C)C(=O)OC1CC(O)C(=C(C)C12)C3(C)C(=O)C4C

>  <smiles>  (416) 
[H]OC1([H])C2=C(C([H])([H])[H])C3([H])C([H])(OC(=O)C([H])(C([H])([H])[H])C45OC([H])(C([H])([H])C(=O)OC34OC([H])([H])[H])C2(C([H])([H])[H])C(=O)C5([H])C([H])([H])[H])C1([H])[H]

$$$$
110:0:1
     RDKit          3D

 55 59  0  0  1  0  0  0  0  0999 V2000
    1.2291   -3.7982    4.0608 C   0  0  0  0  0  0  0  0  0  0  0  0
    2.5570   -4.0593    3.6101 O   0  0  0  0  0  0  0  0  0  0  0  0
    3.2945   -3.1490    2.8366 C   0  0  1  0  0  0  0  0  0  0  0  0
    3.2205   -1.9871    3.6753 O   0  0  0  0  0  0  0  0  0  0  0  0
    4.2293   -1.2938    4.2438 C   0  0  0  0  0  0  0  0  0  0  0  0
    4.2248   -0.9558    5.4209 O   0  0  0  0  0  0  0  0  0  0  0  0
    5.2449   -0.6752    3.2895 C   0  0  0  0  0  0  0  0  0  0  0  0
    5.8108   -1.7146    2.3518 C   0  0  1  0  0  0  0  0  0  0  0  0
    5.7585   -3.0158    3.0285 O   0  0  0  0  0  0  0  0  0  0  0  0
    4.7997   -3.8580    2.5043 C   0  0  1  0  0  0  0  0  0  0  0  0
    4.6090   -5.3437    2.9552 C   0  0  1  0  0  0  0  0  0  0  0  0
    4.5378   -5.6399    4.4725 C   0  0  0  0  0  0  0  0  0  0  0  0
    3.5712   -6.1223    2.0720 C   0  0  0  0  0  0  0  0  0  0  0  0
    3.5380   -7.3447    2.1901 O   0  0  0  0  0  0  0  0  0  0  0  0
    2.6733   -5.4561    1.1978 O   0  0  0  0  0  0  0  0  0  0  0  0
    2.5479   -4.0985    0.6867 C   0  0  2  0  0  0  0  0  0  0  0  0
    2.9741   -3.8370   -0.7792 C   0  0  0  0  0  0  0  0  0  0  0  0
    3.7846   -2.5423   -1.0495 C   0  0  1  0  0  0  0  0  0  0  0  0
    3.0462   -1.7772   -1.9796 O   0  0  0  0  0  0  0  0  0  0  0  0
    4.0631   -1.6523    0.1816 C   0  0  0  0  0  0  0  0  0  0  0  0
    3.0568   -1.5641    1.0201 C   0  0  0  0  0  0  0  0  0  0  0  0
    2.5286   -0.1990    1.4665 C   0  0  0  0  0  0  0  0  0  0  0  0
    2.4850   -2.8417    1.5979 C   0  0  2  0  0  0  0  0  0  0  0  0
    5.5004   -1.6060    0.7852 C   0  0  1  0  0  0  0  0  0  0  0  0
    6.1906   -0.3596    0.2136 C   0  0  0  0  0  0  0  0  0  0  0  0
    6.1766   -2.8678    0.3915 C   0  0  0  0  0  0  0  0  0  0  0  0
    7.1149   -2.8807   -0.4237 O   0  0  0  0  0  0  0  0  0  0  0  0
    5.5738   -4.1097    1.0603 C   0  0  1  0  0  0  0  0  0  0  0  0
    6.7293   -5.1783    1.0268 C   0  0  0  0  0  0  0  0  0  0  0  0
    1.0034   -4.4894    4.8740 H   0  0  0  0  0  0  0  0  0  0  0  0
    0.5135   -3.9995    3.2647 H   0  0  0  0  0  0  0  0  0  0  0  0
    1.0765   -2.7825    4.4392 H   0  0  0  0  0  0  0  0  0  0  0  0
    4.8139    0.1688    2.7591 H   0  0  0  0  0  0  0  0  0  0  0  0
    6.0527   -0.2757    3.9030 H   0  0  0  0  0  0  0  0  0  0  0  0
    6.8574   -1.4396    2.3984 H   0  0  0  0  0  0  0  0  0  0  0  0
    5.5312   -5.8765    2.7978 H   0  0  0  0  0  0  0  0  0  0  0  0
    5.1161   -6.5399    4.7060 H   0  0  0  0  0  0  0  0  0  0  0  0
    3.5294   -5.8349    4.8294 H   0  0  0  0  0  0  0  0  0  0  0  0
    4.9657   -4.8224    5.0577 H   0  0  0  0  0  0  0  0  0  0  0  0
    1.4944   -4.2356    0.4959 H   0  0  0  0  0  0  0  0  0  0  0  0
    3.5734   -4.6711   -1.1169 H   0  0  0  0  0  0  0  0  0  0  0  0
    2.0978   -3.8730   -1.4174 H   0  0  0  0  0  0  0  0  0  0  0  0
    4.6799   -2.7893   -1.6176 H   0  0  0  0  0  0  0  0  0  0  0  0
    2.2607   -1.4547   -1.5452 H   0  0  0  0  0  0  0  0  0  0  0  0
    2.2403   -0.1430    2.5142 H   0  0  0  0  0  0  0  0  0  0  0  0
    1.6543    0.0656    0.8910 H   0  0  0  0  0  0  0  0  0  0  0  0
    3.2748    0.5807    1.2736 H   0  0  0  0  0  0  0  0  0  0  0  0
    1.4640   -2.5941    1.8486 H   0  0  0  0  0  0  0  0  0  0  0  0
    6.0996   -0.3672   -0.8689 H   0  0  0  0  0  0  0  0  0  0  0  0
    7.2445   -0.3101    0.4760 H   0  0  0  0  0  0  0  0  0  0  0  0
    5.7057    0.5434    0.5756 H   0  0  0  0  0  0  0  0  0  0  0  0
    4.9086   -4.5442    0.3417 H   0  0  0  0  0  0  0  0  0  0  0  0
    7.3125   -5.1672    0.1054 H   0  0  0  0  0  0  0  0  0  0  0  0
    6.3592   -6.2026    1.0359 H   0  0  0  0  0  0  0  0  0  0  0  0
    7.4373   -5.0553    1.8506 H   0  0  0  0  0  0  0  0  0  0  0  0
  1  2  1  0
  1 30  1  0
  1 31  1  0
  1 32  1  0
  3  2  1  1
  3 10  1  0
  3 23  1  0
  3  4  1  0
  4  5  1  0
  5  6  2  0
  5  7  1  0
  7  8  1  0
  7 33  1  0
  7 34  1  0
  8 24  1  0
  8  9  1  0
  8 35  1  6
 10  9  1  1
 10 28  1  0
 10 11  1  0
 11 12  1  0
 11 13  1  0
 11 36  1  6
 12 37  1  0
 12 38  1  0
 12 39  1  0
 13 14  2  0
 13 15  1  0
 15 16  1  0
 16 23  1  0
 16 17  1  0
 16 40  1  6
 17 18  1  0
 17 41  1  0
 17 42  1  0
 18 19  1  0
 18 20  1  0
 18 43  1  6
 19 44  1  0
 20 21  2  0
 20 24  1  0
 21 22  1  0
 21 23  1  0
 22 45  1  0
 22 46  1  0
 22 47  1  0
 23 48  1  1
 24 25  1  6
 24 26  1  0
 25 49  1  0
 25 50  1  0
 25 51  1  0
 26 27  2  0
 26 28  1  0
 28 29  1  0
 28 52  1  6
 29 53  1  0
 29 54  1  0
 29 55  1  0
M  END
>  <i_m_ct_stereo_status>  (417) 
1

>  <s_m_source_file>  (417) 
/var/tmp/pbs.5076255.sched01/tmpg0s73j8k/135j_ekwz2c.sdf

>  <i_m_source_file_index>  (417) 
39

>  <i_lp_mmshare_version>  (417) 
48012

>  <i_f3d_flags>  (417) 
0

>  <s_epik_input>  (417) 
W0NIM11PW0NAQF0xKFtDQEBdMjM0KVtDQEBIXTVbQ0BIXShPQyg9TylbQ0BASF0zW0NIM10pW0NIMl1bQ0BASF0oW09IXSlDKD1DNVtDSDNdKVtDQEBdKFtDSDNdKShbQ0BIXShPMilbQ0gyXUMoTzEpPU8pQyg9TylbQ0BIXTRbQ0gzXQ==

>  <s_epik_cmdline>  (417) 
J2VwaWtfcHl0aG9uJywgJy1waHQnLCAnMi4wJywgJy1waCcsICc3LjAnLCAnLXRuJywgJzgnLCAnLW1hJywgJzIwMCcsICctaW1hZScsICc8aW5maWxlLm1hZT4nLCAnLW9tYWUnLCAnPG91dGZpbGUubWFlPic=

>  <r_lp_tautomer_probability>  (417) 
1

>  <r_epik_Ionization_Penalty>  (417) 
1.24186e-05

>  <r_epik_Ionization_Penalty_Charging>  (417) 
0

>  <r_epik_Ionization_Penalty_Neutral>  (417) 
1.24186e-05

>  <r_epik_State_Penalty>  (417) 
-0

>  <r_epik_Charging_Adjusted_Penalty>  (417) 
0

>  <i_epik_Tot_Q>  (417) 
0

>  <i_epik_Tot_abs_Q>  (417) 
0

>  <s_epik_Chemistry_Notes>  (417) 
This compound has an ester and may undergo hydrolysis at high or low pH.

>  <s_lp_Force_Field>  (417) 
OPLS3e

>  <r_lp_Energy>  (417) 
203.305

>  <b_lp_Chiralities_Consistent>  (417) 
1

>  <s_lp_Variant>  (417) 
110:0-1

>  <s_i_glide_gridfile>  (417) 
pfpi4k_grid

>  <i_i_glide_lignum>  (417) 
39

>  <i_i_glide_rotatable_bonds>  (417) 
2

>  <r_i_docking_score>  (417) 
-3.27746

>  <r_i_glide_ligand_efficiency>  (417) 
-0.113016

>  <r_i_glide_ligand_efficiency_sa>  (417) 
-0.347221

>  <r_i_glide_ligand_efficiency_ln>  (417) 
-0.750456

>  <r_i_glide_gscore>  (417) 
-3.27746

>  <r_i_glide_lipo>  (417) 
-0.565618

>  <r_i_glide_hbond>  (417) 
-0.16

>  <r_i_glide_metal>  (417) 
-0

>  <r_i_glide_rewards>  (417) 
-0.764451

>  <r_i_glide_evdw>  (417) 
-16.3762

>  <r_i_glide_ecoul>  (417) 
-6.45724

>  <r_i_glide_erotb>  (417) 
0

>  <r_i_glide_esite>  (417) 
0

>  <r_i_glide_emodel>  (417) 
-26.2037

>  <r_i_glide_energy>  (417) 
-22.8334

>  <r_i_glide_einternal>  (417) 
0.0346931

>  <r_i_glide_intrahb_reward>  (417) 
-0

>  <i_i_glide_confnum>  (417) 
2

>  <i_i_glide_posenum>  (417) 
12

>  <r_i_glide_eff_state_penalty>  (417) 
0

>  <ligand_id>  (417) 
110

>  <original_smiles>  (417) 
COC12OC(=O)CC3OC14C(C)C(=O)OC1CC(O)C(=C(C)C12)C3(C)C(=O)C4C

>  <smiles>  (417) 
[H]OC1([H])C2=C(C([H])([H])[H])C3([H])C([H])(OC(=O)C([H])(C([H])([H])[H])C45OC([H])(C([H])([H])C(=O)OC34OC([H])([H])[H])C2(C([H])([H])[H])C(=O)C5([H])C([H])([H])[H])C1([H])[H]

$$$$
110:0:2
     RDKit          3D

 55 59  0  0  1  0  0  0  0  0999 V2000
    1.7280   -4.5156    4.9401 C   0  0  0  0  0  0  0  0  0  0  0  0
    3.0303   -4.4987    4.3521 O   0  0  0  0  0  0  0  0  0  0  0  0
    3.4245   -3.5788    3.3533 C   0  0  1  0  0  0  0  0  0  0  0  0
    3.1603   -2.3523    4.0412 O   0  0  0  0  0  0  0  0  0  0  0  0
    4.0287   -1.3676    4.3439 C   0  0  0  0  0  0  0  0  0  0  0  0
    4.0689   -0.8360    5.4494 O   0  0  0  0  0  0  0  0  0  0  0  0
    4.7273   -0.6903    3.1757 C   0  0  0  0  0  0  0  0  0  0  0  0
    5.4292   -1.6863    2.2903 C   0  0  1  0  0  0  0  0  0  0  0  0
    5.7966   -2.8354    3.1166 O   0  0  0  0  0  0  0  0  0  0  0  0
    4.9874   -3.9645    2.8712 C   0  0  1  0  0  0  0  0  0  0  0  0
    5.2385   -5.3557    3.5283 C   0  0  1  0  0  0  0  0  0  0  0  0
    5.4402   -5.4212    5.0630 C   0  0  0  0  0  0  0  0  0  0  0  0
    4.3182   -6.4812    2.9357 C   0  0  0  0  0  0  0  0  0  0  0  0
    4.6104   -7.6423    3.2079 O   0  0  0  0  0  0  0  0  0  0  0  0
    3.1563   -6.2013    2.1539 O   0  0  0  0  0  0  0  0  0  0  0  0
    2.6001   -5.0129    1.5048 C   0  0  2  0  0  0  0  0  0  0  0  0
    2.8015   -4.9101   -0.0222 C   0  0  0  0  0  0  0  0  0  0  0  0
    3.2361   -3.5163   -0.5873 C   0  0  1  0  0  0  0  0  0  0  0  0
    2.2225   -3.0709   -1.4767 O   0  0  0  0  0  0  0  0  0  0  0  0
    3.4460   -2.3913    0.4573 C   0  0  0  0  0  0  0  0  0  0  0  0
    2.5608   -2.4056    1.4380 C   0  0  0  0  0  0  0  0  0  0  0  0
    1.7514   -1.1622    1.7840 C   0  0  0  0  0  0  0  0  0  0  0  0
    2.3962   -3.6712    2.2428 C   0  0  2  0  0  0  0  0  0  0  0  0
    4.8881   -1.9039    0.7991 C   0  0  1  0  0  0  0  0  0  0  0  0
    5.1481   -0.6470   -0.0449 C   0  0  0  0  0  0  0  0  0  0  0  0
    5.7975   -3.0308    0.4543 C   0  0  0  0  0  0  0  0  0  0  0  0
    6.5987   -2.9556   -0.4813 O   0  0  0  0  0  0  0  0  0  0  0  0
    5.6085   -4.2585    1.3650 C   0  0  1  0  0  0  0  0  0  0  0  0
    6.9773   -5.0294    1.2691 C   0  0  0  0  0  0  0  0  0  0  0  0
    1.7810   -5.0841    5.8704 H   0  0  0  0  0  0  0  0  0  0  0  0
    1.0151   -5.0340    4.2988 H   0  0  0  0  0  0  0  0  0  0  0  0
    1.3398   -3.5254    5.1856 H   0  0  0  0  0  0  0  0  0  0  0  0
    4.0291   -0.0658    2.6212 H   0  0  0  0  0  0  0  0  0  0  0  0
    5.4610   -0.0018    3.6031 H   0  0  0  0  0  0  0  0  0  0  0  0
    6.4030   -1.2155    2.1613 H   0  0  0  0  0  0  0  0  0  0  0  0
    6.2294   -5.6918    3.2904 H   0  0  0  0  0  0  0  0  0  0  0  0
    6.2439   -6.1149    5.3119 H   0  0  0  0  0  0  0  0  0  0  0  0
    4.5595   -5.7841    5.5987 H   0  0  0  0  0  0  0  0  0  0  0  0
    5.7142   -4.4452    5.4656 H   0  0  0  0  0  0  0  0  0  0  0  0
    1.5670   -5.3591    1.5210 H   0  0  0  0  0  0  0  0  0  0  0  0
    3.5187   -5.6727   -0.3219 H   0  0  0  0  0  0  0  0  0  0  0  0
    1.8876   -5.2365   -0.5239 H   0  0  0  0  0  0  0  0  0  0  0  0
    4.0770   -3.6471   -1.2678 H   0  0  0  0  0  0  0  0  0  0  0  0
    1.8141   -2.2817   -1.1487 H   0  0  0  0  0  0  0  0  0  0  0  0
    1.6001   -1.0033    2.8491 H   0  0  0  0  0  0  0  0  0  0  0  0
    0.7590   -1.2280    1.3384 H   0  0  0  0  0  0  0  0  0  0  0  0
    2.2236   -0.2727    1.3644 H   0  0  0  0  0  0  0  0  0  0  0  0
    1.3771   -3.6171    2.6347 H   0  0  0  0  0  0  0  0  0  0  0  0
    4.9434   -0.8257   -1.1033 H   0  0  0  0  0  0  0  0  0  0  0  0
    6.1727   -0.2804    0.0507 H   0  0  0  0  0  0  0  0  0  0  0  0
    4.4819    0.1560    0.2750 H   0  0  0  0  0  0  0  0  0  0  0  0
    4.9781   -4.9352    0.8303 H   0  0  0  0  0  0  0  0  0  0  0  0
    7.4120   -5.0347    0.2698 H   0  0  0  0  0  0  0  0  0  0  0  0
    6.8788   -6.0975    1.4698 H   0  0  0  0  0  0  0  0  0  0  0  0
    7.7367   -4.6221    1.9362 H   0  0  0  0  0  0  0  0  0  0  0  0
  1  2  1  0
  1 30  1  0
  1 31  1  0
  1 32  1  0
  3  2  1  1
  3 10  1  0
  3 23  1  0
  3  4  1  0
  4  5  1  0
  5  6  2  0
  5  7  1  0
  7  8  1  0
  7 33  1  0
  7 34  1  0
  8 24  1  0
  8  9  1  0
  8 35  1  6
 10  9  1  1
 10 28  1  0
 10 11  1  0
 11 12  1  0
 11 13  1  0
 11 36  1  6
 12 37  1  0
 12 38  1  0
 12 39  1  0
 13 14  2  0
 13 15  1  0
 15 16  1  0
 16 23  1  0
 16 17  1  0
 16 40  1  6
 17 18  1  0
 17 41  1  0
 17 42  1  0
 18 19  1  0
 18 20  1  0
 18 43  1  6
 19 44  1  0
 20 21  2  0
 20 24  1  0
 21 22  1  0
 21 23  1  0
 22 45  1  0
 22 46  1  0
 22 47  1  0
 23 48  1  1
 24 25  1  6
 24 26  1  0
 25 49  1  0
 25 50  1  0
 25 51  1  0
 26 27  2  0
 26 28  1  0
 28 29  1  0
 28 52  1  6
 29 53  1  0
 29 54  1  0
 29 55  1  0
M  END
>  <i_m_ct_stereo_status>  (418) 
1

>  <s_m_source_file>  (418) 
/var/tmp/pbs.5076255.sched01/tmpg0s73j8k/135j_ekwz2c.sdf

>  <i_m_source_file_index>  (418) 
39

>  <i_lp_mmshare_version>  (418) 
48012

>  <i_f3d_flags>  (418) 
0

>  <s_epik_input>  (418) 
W0NIM11PW0NAQF0xKFtDQEBdMjM0KVtDQEBIXTVbQ0BIXShPQyg9TylbQ0BASF0zW0NIM10pW0NIMl1bQ0BASF0oW09IXSlDKD1DNVtDSDNdKVtDQEBdKFtDSDNdKShbQ0BIXShPMilbQ0gyXUMoTzEpPU8pQyg9TylbQ0BIXTRbQ0gzXQ==

>  <s_epik_cmdline>  (418) 
J2VwaWtfcHl0aG9uJywgJy1waHQnLCAnMi4wJywgJy1waCcsICc3LjAnLCAnLXRuJywgJzgnLCAnLW1hJywgJzIwMCcsICctaW1hZScsICc8aW5maWxlLm1hZT4nLCAnLW9tYWUnLCAnPG91dGZpbGUubWFlPic=

>  <r_lp_tautomer_probability>  (418) 
1

>  <r_epik_Ionization_Penalty>  (418) 
1.24186e-05

>  <r_epik_Ionization_Penalty_Charging>  (418) 
0

>  <r_epik_Ionization_Penalty_Neutral>  (418) 
1.24186e-05

>  <r_epik_State_Penalty>  (418) 
-0

>  <r_epik_Charging_Adjusted_Penalty>  (418) 
0

>  <i_epik_Tot_Q>  (418) 
0

>  <i_epik_Tot_abs_Q>  (418) 
0

>  <s_epik_Chemistry_Notes>  (418) 
This compound has an ester and may undergo hydrolysis at high or low pH.

>  <s_lp_Force_Field>  (418) 
OPLS3e

>  <r_lp_Energy>  (418) 
203.305

>  <b_lp_Chiralities_Consistent>  (418) 
1

>  <s_lp_Variant>  (418) 
110:0-1

>  <s_i_glide_gridfile>  (418) 
pfpi4k_grid

>  <i_i_glide_lignum>  (418) 
39

>  <i_i_glide_rotatable_bonds>  (418) 
2

>  <r_i_docking_score>  (418) 
-2.86708

>  <r_i_glide_ligand_efficiency>  (418) 
-0.098865

>  <r_i_glide_ligand_efficiency_sa>  (418) 
-0.303744

>  <r_i_glide_ligand_efficiency_ln>  (418) 
-0.656489

>  <r_i_glide_gscore>  (418) 
-2.86708

>  <r_i_glide_lipo>  (418) 
-0.469901

>  <r_i_glide_hbond>  (418) 
-0.16

>  <r_i_glide_metal>  (418) 
-0

>  <r_i_glide_rewards>  (418) 
-0.716735

>  <r_i_glide_evdw>  (418) 
-17.5257

>  <r_i_glide_ecoul>  (418) 
-4.29443

>  <r_i_glide_erotb>  (418) 
0

>  <r_i_glide_esite>  (418) 
0

>  <r_i_glide_emodel>  (418) 
-24.0131

>  <r_i_glide_energy>  (418) 
-21.8201

>  <r_i_glide_einternal>  (418) 
1.11619

>  <r_i_glide_intrahb_reward>  (418) 
-0

>  <i_i_glide_confnum>  (418) 
2

>  <i_i_glide_posenum>  (418) 
16

>  <r_i_glide_eff_state_penalty>  (418) 
0

>  <ligand_id>  (418) 
110

>  <original_smiles>  (418) 
COC12OC(=O)CC3OC14C(C)C(=O)OC1CC(O)C(=C(C)C12)C3(C)C(=O)C4C

>  <smiles>  (418) 
[H]OC1([H])C2=C(C([H])([H])[H])C3([H])C([H])(OC(=O)C([H])(C([H])([H])[H])C45OC([H])(C([H])([H])C(=O)OC34OC([H])([H])[H])C2(C([H])([H])[H])C(=O)C5([H])C([H])([H])[H])C1([H])[H]

$$$$
111:0:0
     RDKit          3D

 21 22  0  0  1  0  0  0  0  0999 V2000
    3.4472   -0.3814   -4.7643 C   0  0  0  0  0  0  0  0  0  0  0  0
    3.8131   -1.6856   -4.3363 O   0  0  0  0  0  0  0  0  0  0  0  0
    4.2373   -1.8511   -3.0360 C   0  0  0  0  0  0  0  0  0  0  0  0
    4.4937   -0.7877   -2.1381 C   0  0  0  0  0  0  0  0  0  0  0  0
    4.9289   -1.0591   -0.8263 C   0  0  0  0  0  0  0  0  0  0  0  0
    5.1171   -2.3855   -0.3898 C   0  0  0  0  0  0  0  0  0  0  0  0
    5.5705   -2.6902    0.9873 C   0  0  0  0  0  0  0  0  0  0  0  0
    5.8154   -1.8166    1.8191 O   0  0  0  0  0  0  0  0  0  0  0  0
    5.7168   -4.1156    1.3053 C   0  0  0  0  0  0  0  0  0  0  0  0
    5.4406   -5.0499    0.3736 C   0  0  0  0  0  0  0  0  0  0  0  0
    5.0153   -4.7672   -0.9026 O   0  0  0  0  0  0  0  0  0  0  0  0
    4.8611   -3.4527   -1.2808 C   0  0  0  0  0  0  0  0  0  0  0  0
    4.4307   -3.1760   -2.5927 C   0  0  0  0  0  0  0  0  0  0  0  0
    3.1349   -0.4174   -5.8062 H   0  0  0  0  0  0  0  0  0  0  0  0
    4.2828    0.3136   -4.7085 H   0  0  0  0  0  0  0  0  0  0  0  0
    2.6151    0.0041   -4.1761 H   0  0  0  0  0  0  0  0  0  0  0  0
    4.3530    0.2412   -2.4369 H   0  0  0  0  0  0  0  0  0  0  0  0
    5.1120   -0.2340   -0.1551 H   0  0  0  0  0  0  0  0  0  0  0  0
    6.0522   -4.3881    2.2955 H   0  0  0  0  0  0  0  0  0  0  0  0
    5.5297   -6.1150    0.5373 H   0  0  0  0  0  0  0  0  0  0  0  0
    4.2310   -3.9982   -3.2631 H   0  0  0  0  0  0  0  0  0  0  0  0
  1  2  1  0
  1 14  1  0
  1 15  1  0
  1 16  1  0
  2  3  1  0
  3 13  2  0
  3  4  1  0
  4  5  2  0
  4 17  1  0
  5  6  1  0
  5 18  1  0
  6 12  2  0
  6  7  1  0
  7  8  2  0
  7  9  1  0
  9 10  2  0
  9 19  1  0
 10 11  1  0
 10 20  1  0
 11 12  1  0
 12 13  1  0
 13 21  1  0
M  END
>  <i_m_ct_stereo_status>  (419) 
1

>  <s_m_source_file>  (419) 
/var/tmp/pbs.5076255.sched01/tmpg0s73j8k/135j_ekwz2c.sdf

>  <i_m_source_file_index>  (419) 
40

>  <i_lp_mmshare_version>  (419) 
48012

>  <i_f3d_flags>  (419) 
0

>  <s_epik_input>  (419) 
W0NIM11PYyhbY0hdW2NIXTEpW2NIXWMoYzEyKW9bY0hdW2NIXWMyPU8=

>  <s_epik_cmdline>  (419) 
J2VwaWtfcHl0aG9uJywgJy1waHQnLCAnMi4wJywgJy1waCcsICc3LjAnLCAnLXRuJywgJzgnLCAnLW1hJywgJzIwMCcsICctaW1hZScsICc8aW5maWxlLm1hZT4nLCAnLW9tYWUnLCAnPG91dGZpbGUubWFlPic=

>  <r_lp_tautomer_probability>  (419) 
1

>  <r_epik_Ionization_Penalty>  (419) 
4.56943e-09

>  <r_epik_Ionization_Penalty_Charging>  (419) 
0

>  <r_epik_Ionization_Penalty_Neutral>  (419) 
4.56943e-09

>  <r_epik_State_Penalty>  (419) 
-0

>  <r_epik_Charging_Adjusted_Penalty>  (419) 
0

>  <i_epik_Tot_Q>  (419) 
0

>  <i_epik_Tot_abs_Q>  (419) 
0

>  <s_lp_Force_Field>  (419) 
OPLS3e

>  <r_lp_Energy>  (419) 
3.70917

>  <b_lp_Chiralities_Consistent>  (419) 
1

>  <s_lp_Variant>  (419) 
111:0-1

>  <s_i_glide_gridfile>  (419) 
pfpi4k_grid

>  <i_i_glide_lignum>  (419) 
40

>  <i_i_glide_rotatable_bonds>  (419) 
1

>  <r_i_docking_score>  (419) 
-4.3701

>  <r_i_glide_ligand_efficiency>  (419) 
-0.336162

>  <r_i_glide_ligand_efficiency_sa>  (419) 
-0.790429

>  <r_i_glide_ligand_efficiency_ln>  (419) 
-1.22585

>  <r_i_glide_gscore>  (419) 
-4.3701

>  <r_i_glide_lipo>  (419) 
-0.626278

>  <r_i_glide_hbond>  (419) 
-0.32

>  <r_i_glide_metal>  (419) 
-0

>  <r_i_glide_rewards>  (419) 
-2.20794

>  <r_i_glide_evdw>  (419) 
-20.3765

>  <r_i_glide_ecoul>  (419) 
-1.31373

>  <r_i_glide_erotb>  (419) 
0

>  <r_i_glide_esite>  (419) 
0

>  <r_i_glide_emodel>  (419) 
-28.3816

>  <r_i_glide_energy>  (419) 
-21.6902

>  <r_i_glide_einternal>  (419) 
0.127244

>  <r_i_glide_intrahb_reward>  (419) 
-0

>  <i_i_glide_confnum>  (419) 
1

>  <i_i_glide_posenum>  (419) 
3

>  <r_i_glide_eff_state_penalty>  (419) 
0

>  <ligand_id>  (419) 
111

>  <original_smiles>  (419) 
COc1ccc2c(=O)ccoc2c1

>  <smiles>  (419) 
[H]c1oc2c([H])c(OC([H])([H])[H])c([H])c([H])c2c(=O)c1[H]

$$$$
111:0:1
     RDKit          3D

 21 22  0  0  1  0  0  0  0  0999 V2000
    6.1846   -9.4903    1.2478 C   0  0  0  0  0  0  0  0  0  0  0  0
    5.5937   -8.1992    1.1403 O   0  0  0  0  0  0  0  0  0  0  0  0
    4.2516   -8.1029    1.4447 C   0  0  0  0  0  0  0  0  0  0  0  0
    3.6144   -6.8505    1.2863 C   0  0  0  0  0  0  0  0  0  0  0  0
    2.2426   -6.7054    1.5933 C   0  0  0  0  0  0  0  0  0  0  0  0
    1.4881   -7.8069    2.0614 C   0  0  0  0  0  0  0  0  0  0  0  0
    0.0481   -7.7125    2.3900 C   0  0  0  0  0  0  0  0  0  0  0  0
   -0.5897   -6.6636    2.2662 O   0  0  0  0  0  0  0  0  0  0  0  0
   -0.5685   -8.9633    2.8810 C   0  0  0  0  0  0  0  0  0  0  0  0
    0.1687  -10.0917    3.0045 C   0  0  0  0  0  0  0  0  0  0  0  0
    1.4925  -10.1765    2.6826 O   0  0  0  0  0  0  0  0  0  0  0  0
    2.1312   -9.0544    2.2242 C   0  0  0  0  0  0  0  0  0  0  0  0
    3.4855   -9.1971    1.9169 C   0  0  0  0  0  0  0  0  0  0  0  0
    7.2411   -9.4719    0.9640 H   0  0  0  0  0  0  0  0  0  0  0  0
    5.6821  -10.2076    0.5888 H   0  0  0  0  0  0  0  0  0  0  0  0
    6.1281   -9.8634    2.2783 H   0  0  0  0  0  0  0  0  0  0  0  0
    4.1825   -5.9998    0.9175 H   0  0  0  0  0  0  0  0  0  0  0  0
    1.7697   -5.7379    1.4618 H   0  0  0  0  0  0  0  0  0  0  0  0
   -1.6166   -8.9585    3.1539 H   0  0  0  0  0  0  0  0  0  0  0  0
   -0.1871  -11.0446    3.3707 H   0  0  0  0  0  0  0  0  0  0  0  0
    3.8915  -10.1862    2.0603 H   0  0  0  0  0  0  0  0  0  0  0  0
  1  2  1  0
  1 14  1  0
  1 15  1  0
  1 16  1  0
  2  3  1  0
  3 13  2  0
  3  4  1  0
  4  5  2  0
  4 17  1  0
  5  6  1  0
  5 18  1  0
  6 12  2  0
  6  7  1  0
  7  8  2  0
  7  9  1  0
  9 10  2  0
  9 19  1  0
 10 11  1  0
 10 20  1  0
 11 12  1  0
 12 13  1  0
 13 21  1  0
M  END
>  <i_m_ct_stereo_status>  (420) 
1

>  <s_m_source_file>  (420) 
/var/tmp/pbs.5076255.sched01/tmpg0s73j8k/135j_ekwz2c.sdf

>  <i_m_source_file_index>  (420) 
40

>  <i_lp_mmshare_version>  (420) 
48012

>  <i_f3d_flags>  (420) 
0

>  <s_epik_input>  (420) 
W0NIM11PYyhbY0hdW2NIXTEpW2NIXWMoYzEyKW9bY0hdW2NIXWMyPU8=

>  <s_epik_cmdline>  (420) 
J2VwaWtfcHl0aG9uJywgJy1waHQnLCAnMi4wJywgJy1waCcsICc3LjAnLCAnLXRuJywgJzgnLCAnLW1hJywgJzIwMCcsICctaW1hZScsICc8aW5maWxlLm1hZT4nLCAnLW9tYWUnLCAnPG91dGZpbGUubWFlPic=

>  <r_lp_tautomer_probability>  (420) 
1

>  <r_epik_Ionization_Penalty>  (420) 
4.56943e-09

>  <r_epik_Ionization_Penalty_Charging>  (420) 
0

>  <r_epik_Ionization_Penalty_Neutral>  (420) 
4.56943e-09

>  <r_epik_State_Penalty>  (420) 
-0

>  <r_epik_Charging_Adjusted_Penalty>  (420) 
0

>  <i_epik_Tot_Q>  (420) 
0

>  <i_epik_Tot_abs_Q>  (420) 
0

>  <s_lp_Force_Field>  (420) 
OPLS3e

>  <r_lp_Energy>  (420) 
3.70917

>  <b_lp_Chiralities_Consistent>  (420) 
1

>  <s_lp_Variant>  (420) 
111:0-1

>  <s_i_glide_gridfile>  (420) 
pfpi4k_grid

>  <i_i_glide_lignum>  (420) 
40

>  <i_i_glide_rotatable_bonds>  (420) 
1

>  <r_i_docking_score>  (420) 
-3.97636

>  <r_i_glide_ligand_efficiency>  (420) 
-0.305874

>  <r_i_glide_ligand_efficiency_sa>  (420) 
-0.719212

>  <r_i_glide_ligand_efficiency_ln>  (420) 
-1.1154

>  <r_i_glide_gscore>  (420) 
-3.97636

>  <r_i_glide_lipo>  (420) 
-0.144299

>  <r_i_glide_hbond>  (420) 
-0.16

>  <r_i_glide_metal>  (420) 
-0

>  <r_i_glide_rewards>  (420) 
-2.20794

>  <r_i_glide_evdw>  (420) 
-17.5259

>  <r_i_glide_ecoul>  (420) 
-3.91881

>  <r_i_glide_erotb>  (420) 
0

>  <r_i_glide_esite>  (420) 
0

>  <r_i_glide_emodel>  (420) 
-25.8321

>  <r_i_glide_energy>  (420) 
-21.4448

>  <r_i_glide_einternal>  (420) 
3.2041

>  <r_i_glide_intrahb_reward>  (420) 
-0

>  <i_i_glide_confnum>  (420) 
2

>  <i_i_glide_posenum>  (420) 
40

>  <r_i_glide_eff_state_penalty>  (420) 
0

>  <ligand_id>  (420) 
111

>  <original_smiles>  (420) 
COc1ccc2c(=O)ccoc2c1

>  <smiles>  (420) 
[H]c1oc2c([H])c(OC([H])([H])[H])c([H])c([H])c2c(=O)c1[H]

$$$$
111:0:2
     RDKit          3D

 21 22  0  0  1  0  0  0  0  0999 V2000
   -1.7781    2.1887   10.1535 C   0  0  0  0  0  0  0  0  0  0  0  0
   -1.1381    1.4204    9.1426 O   0  0  0  0  0  0  0  0  0  0  0  0
   -1.3664    1.7504    7.8257 C   0  0  0  0  0  0  0  0  0  0  0  0
   -2.2923    2.7297    7.3911 C   0  0  0  0  0  0  0  0  0  0  0  0
   -2.4458    2.9906    6.0149 C   0  0  0  0  0  0  0  0  0  0  0  0
   -1.6810    2.2867    5.0600 C   0  0  0  0  0  0  0  0  0  0  0  0
   -1.8156    2.5570    3.6080 C   0  0  0  0  0  0  0  0  0  0  0  0
   -2.5888    3.4056    3.1624 O   0  0  0  0  0  0  0  0  0  0  0  0
   -0.9574    1.7434    2.7366 C   0  0  0  0  0  0  0  0  0  0  0  0
   -0.1188    0.8303    3.2595 C   0  0  0  0  0  0  0  0  0  0  0  0
    0.0065    0.5790    4.6041 O   0  0  0  0  0  0  0  0  0  0  0  0
   -0.7610    1.3024    5.4905 C   0  0  0  0  0  0  0  0  0  0  0  0
   -0.6163    1.0434    6.8646 C   0  0  0  0  0  0  0  0  0  0  0  0
   -1.5019    1.7933   11.1303 H   0  0  0  0  0  0  0  0  0  0  0  0
   -2.8652    2.1450   10.0755 H   0  0  0  0  0  0  0  0  0  0  0  0
   -1.4575    3.2293   10.1103 H   0  0  0  0  0  0  0  0  0  0  0  0
   -2.8890    3.2912    8.0938 H   0  0  0  0  0  0  0  0  0  0  0  0
   -3.1587    3.7369    5.6981 H   0  0  0  0  0  0  0  0  0  0  0  0
   -1.0063    1.8992    1.6728 H   0  0  0  0  0  0  0  0  0  0  0  0
    0.5400    0.2096    2.6676 H   0  0  0  0  0  0  0  0  0  0  0  0
    0.0948    0.2978    7.1854 H   0  0  0  0  0  0  0  0  0  0  0  0
  1  2  1  0
  1 14  1  0
  1 15  1  0
  1 16  1  0
  2  3  1  0
  3 13  2  0
  3  4  1  0
  4  5  2  0
  4 17  1  0
  5  6  1  0
  5 18  1  0
  6 12  2  0
  6  7  1  0
  7  8  2  0
  7  9  1  0
  9 10  2  0
  9 19  1  0
 10 11  1  0
 10 20  1  0
 11 12  1  0
 12 13  1  0
 13 21  1  0
M  END
>  <i_m_ct_stereo_status>  (421) 
1

>  <s_m_source_file>  (421) 
/var/tmp/pbs.5076255.sched01/tmpg0s73j8k/135j_ekwz2c.sdf

>  <i_m_source_file_index>  (421) 
40

>  <i_lp_mmshare_version>  (421) 
48012

>  <i_f3d_flags>  (421) 
0

>  <s_epik_input>  (421) 
W0NIM11PYyhbY0hdW2NIXTEpW2NIXWMoYzEyKW9bY0hdW2NIXWMyPU8=

>  <s_epik_cmdline>  (421) 
J2VwaWtfcHl0aG9uJywgJy1waHQnLCAnMi4wJywgJy1waCcsICc3LjAnLCAnLXRuJywgJzgnLCAnLW1hJywgJzIwMCcsICctaW1hZScsICc8aW5maWxlLm1hZT4nLCAnLW9tYWUnLCAnPG91dGZpbGUubWFlPic=

>  <r_lp_tautomer_probability>  (421) 
1

>  <r_epik_Ionization_Penalty>  (421) 
4.56943e-09

>  <r_epik_Ionization_Penalty_Charging>  (421) 
0

>  <r_epik_Ionization_Penalty_Neutral>  (421) 
4.56943e-09

>  <r_epik_State_Penalty>  (421) 
-0

>  <r_epik_Charging_Adjusted_Penalty>  (421) 
0

>  <i_epik_Tot_Q>  (421) 
0

>  <i_epik_Tot_abs_Q>  (421) 
0

>  <s_lp_Force_Field>  (421) 
OPLS3e

>  <r_lp_Energy>  (421) 
3.70917

>  <b_lp_Chiralities_Consistent>  (421) 
1

>  <s_lp_Variant>  (421) 
111:0-1

>  <s_i_glide_gridfile>  (421) 
pfpi4k_grid

>  <i_i_glide_lignum>  (421) 
40

>  <i_i_glide_rotatable_bonds>  (421) 
1

>  <r_i_docking_score>  (421) 
-3.56629

>  <r_i_glide_ligand_efficiency>  (421) 
-0.27433

>  <r_i_glide_ligand_efficiency_sa>  (421) 
-0.645041

>  <r_i_glide_ligand_efficiency_ln>  (421) 
-1.00037

>  <r_i_glide_gscore>  (421) 
-3.56629

>  <r_i_glide_lipo>  (421) 
-0.180438

>  <r_i_glide_hbond>  (421) 
0

>  <r_i_glide_metal>  (421) 
-0

>  <r_i_glide_rewards>  (421) 
-2.20794

>  <r_i_glide_evdw>  (421) 
-16.089

>  <r_i_glide_ecoul>  (421) 
-2.48973

>  <r_i_glide_erotb>  (421) 
0

>  <r_i_glide_esite>  (421) 
0

>  <r_i_glide_emodel>  (421) 
-24.0418

>  <r_i_glide_energy>  (421) 
-18.5787

>  <r_i_glide_einternal>  (421) 
0.0932892

>  <r_i_glide_intrahb_reward>  (421) 
-0

>  <i_i_glide_confnum>  (421) 
1

>  <i_i_glide_posenum>  (421) 
1

>  <r_i_glide_eff_state_penalty>  (421) 
0

>  <ligand_id>  (421) 
111

>  <original_smiles>  (421) 
COc1ccc2c(=O)ccoc2c1

>  <smiles>  (421) 
[H]c1oc2c([H])c(OC([H])([H])[H])c([H])c([H])c2c(=O)c1[H]

$$$$
112:0:0
     RDKit          3D

 27 30  0  0  1  0  0  0  0  0999 V2000
   -1.1560   -8.9863    3.2316 C   0  0  0  0  0  0  0  0  0  0  0  0
   -1.2840   -7.7583    2.5567 C   0  0  0  0  0  0  0  0  0  0  0  0
   -0.2525   -7.0798    1.9965 N   0  0  0  0  0  0  0  0  0  0  0  0
    0.9573   -7.7173    2.1095 C   0  0  0  0  0  0  0  0  0  0  0  0
    1.2146   -8.9469    2.7538 C   0  0  0  0  0  0  0  0  0  0  0  0
    0.1094   -9.5976    3.3379 C   0  0  0  0  0  0  0  0  0  0  0  0
    2.5577   -9.2631    2.6816 N   0  0  0  0  0  0  0  0  0  0  0  0
    3.1555   -8.3184    2.0266 N   0  0  0  0  0  0  0  0  0  0  0  0
    2.2316   -7.3708    1.6728 N   0  0  0  0  0  0  0  0  0  0  0  0
    2.6530   -6.2316    0.9472 C   0  0  0  0  0  0  0  0  0  0  0  0
    1.8167   -5.4710    0.2475 N   0  0  0  0  0  0  0  0  0  0  0  0
    2.6466   -4.4804   -0.2884 O   0  0  0  0  0  0  0  0  0  0  0  0
    3.9037   -4.7732    0.1370 C   0  0  0  0  0  0  0  0  0  0  0  0
    5.0073   -3.9118   -0.2691 C   0  0  0  0  0  0  0  0  0  0  0  0
    6.2860   -4.0794    0.3106 C   0  0  0  0  0  0  0  0  0  0  0  0
    7.3312   -3.2304   -0.1020 C   0  0  0  0  0  0  0  0  0  0  0  0
    7.1680   -2.2610   -1.0244 N   0  0  0  0  0  0  0  0  0  0  0  0
    5.9423   -2.1095   -1.5684 C   0  0  0  0  0  0  0  0  0  0  0  0
    4.8336   -2.8967   -1.2291 C   0  0  0  0  0  0  0  0  0  0  0  0
    3.9620   -5.8459    0.9209 N   0  0  0  0  0  0  0  0  0  0  0  0
   -2.0214   -9.4530    3.6786 H   0  0  0  0  0  0  0  0  0  0  0  0
   -2.2593   -7.2937    2.4836 H   0  0  0  0  0  0  0  0  0  0  0  0
    0.2338  -10.5332    3.8593 H   0  0  0  0  0  0  0  0  0  0  0  0
    6.4624   -4.8424    1.0539 H   0  0  0  0  0  0  0  0  0  0  0  0
    8.3178   -3.3354    0.3212 H   0  0  0  0  0  0  0  0  0  0  0  0
    5.8438   -1.3197   -2.2987 H   0  0  0  0  0  0  0  0  0  0  0  0
    3.8785   -2.7142   -1.7039 H   0  0  0  0  0  0  0  0  0  0  0  0
  1  6  2  0
  1  2  1  0
  1 21  1  0
  2  3  2  0
  2 22  1  0
  3  4  1  0
  4  9  1  0
  4  5  2  0
  5  6  1  0
  5  7  1  0
  6 23  1  0
  7  8  2  0
  8  9  1  0
  9 10  1  0
 10 20  1  0
 10 11  2  0
 11 12  1  0
 12 13  1  0
 13 14  1  0
 13 20  2  0
 14 19  1  0
 14 15  2  0
 15 16  1  0
 15 24  1  0
 16 17  2  0
 16 25  1  0
 17 18  1  0
 18 19  2  0
 18 26  1  0
 19 27  1  0
M  END
>  <i_m_ct_stereo_status>  (422) 
1

>  <s_m_source_file>  (422) 
/var/tmp/pbs.5076255.sched01/tmpg0s73j8k/135j_ekwz2c.sdf

>  <i_m_source_file_index>  (422) 
41

>  <i_lp_mmshare_version>  (422) 
48012

>  <i_f3d_flags>  (422) 
0

>  <s_epik_input>  (422) 
bjFbY0hdW2NIXVtjSF1jKGMxMilubm4yLWMzbm9jKG4zKS1jNFtjSF1bY0hdbltjSF1bY0hdNA==

>  <s_epik_cmdline>  (422) 
J2VwaWtfcHl0aG9uJywgJy1waHQnLCAnMi4wJywgJy1waCcsICc3LjAnLCAnLXRuJywgJzgnLCAnLW1hJywgJzIwMCcsICctaW1hZScsICc8aW5maWxlLm1hZT4nLCAnLW9tYWUnLCAnPG91dGZpbGUubWFlPic=

>  <r_lp_tautomer_probability>  (422) 
1

>  <r_epik_Ionization_Penalty>  (422) 
0.000604585

>  <r_epik_Ionization_Penalty_Charging>  (422) 
0

>  <r_epik_Ionization_Penalty_Neutral>  (422) 
0.000604585

>  <r_epik_State_Penalty>  (422) 
0.000380979

>  <r_epik_Charging_Adjusted_Penalty>  (422) 
0.000380979

>  <i_epik_Tot_Q>  (422) 
0

>  <i_epik_Tot_abs_Q>  (422) 
0

>  <s_lp_Force_Field>  (422) 
OPLS3e

>  <r_lp_Energy>  (422) 
29.2502

>  <b_lp_Chiralities_Consistent>  (422) 
1

>  <s_lp_Variant>  (422) 
112:0-1

>  <s_i_glide_gridfile>  (422) 
pfpi4k_grid

>  <i_i_glide_lignum>  (422) 
41

>  <i_i_glide_rotatable_bonds>  (422) 
2

>  <r_i_docking_score>  (422) 
-4.00134

>  <r_i_glide_ligand_efficiency>  (422) 
-0.200067

>  <r_i_glide_ligand_efficiency_sa>  (422) 
-0.543065

>  <r_i_glide_ligand_efficiency_ln>  (422) 
-1.0014

>  <r_i_glide_gscore>  (422) 
-4.00134

>  <r_i_glide_lipo>  (422) 
-0.296781

>  <r_i_glide_hbond>  (422) 
-0.219514

>  <r_i_glide_metal>  (422) 
-0

>  <r_i_glide_rewards>  (422) 
-1.6007

>  <r_i_glide_evdw>  (422) 
-27.0064

>  <r_i_glide_ecoul>  (422) 
-5.35183

>  <r_i_glide_erotb>  (422) 
0.505832

>  <r_i_glide_esite>  (422) 
-0.237077

>  <r_i_glide_emodel>  (422) 
-40.8273

>  <r_i_glide_energy>  (422) 
-32.3582

>  <r_i_glide_einternal>  (422) 
0.386991

>  <r_i_glide_intrahb_reward>  (422) 
-0

>  <i_i_glide_confnum>  (422) 
4

>  <i_i_glide_posenum>  (422) 
14

>  <r_i_glide_eff_state_penalty>  (422) 
0

>  <ligand_id>  (422) 
112

>  <original_smiles>  (422) 
c1cnc2c(c1)nnn2-c1noc(-c2ccncc2)n1

>  <smiles>  (422) 
[H]c1nc([H])c([H])c(-c2nc(-n3nnc4c([H])c([H])c([H])nc43)no2)c1[H]

$$$$
112:0:1
     RDKit          3D

 27 30  0  0  1  0  0  0  0  0999 V2000
    1.1919  -10.7754    3.2801 C   0  0  0  0  0  0  0  0  0  0  0  0
    2.4940  -10.3411    2.9458 C   0  0  0  0  0  0  0  0  0  0  0  0
    2.7748   -9.1324    2.4039 N   0  0  0  0  0  0  0  0  0  0  0  0
    1.6872   -8.3353    2.1892 C   0  0  0  0  0  0  0  0  0  0  0  0
    0.3415   -8.6442    2.4805 C   0  0  0  0  0  0  0  0  0  0  0  0
    0.0974   -9.9181    3.0404 C   0  0  0  0  0  0  0  0  0  0  0  0
   -0.4817   -7.5897    2.1191 N   0  0  0  0  0  0  0  0  0  0  0  0
    0.2720   -6.6576    1.6149 N   0  0  0  0  0  0  0  0  0  0  0  0
    1.5785   -7.0614    1.6496 N   0  0  0  0  0  0  0  0  0  0  0  0
    2.6043   -6.2046    1.1696 C   0  0  0  0  0  0  0  0  0  0  0  0
    2.3364   -5.0837    0.5066 N   0  0  0  0  0  0  0  0  0  0  0  0
    3.6076   -4.5534    0.2358 O   0  0  0  0  0  0  0  0  0  0  0  0
    4.5008   -5.4234    0.7719 C   0  0  0  0  0  0  0  0  0  0  0  0
    5.9305   -5.1387    0.6716 C   0  0  0  0  0  0  0  0  0  0  0  0
    6.8744   -6.0602    1.1753 C   0  0  0  0  0  0  0  0  0  0  0  0
    8.2436   -5.7586    1.0642 C   0  0  0  0  0  0  0  0  0  0  0  0
    8.7064   -4.6254    0.4944 N   0  0  0  0  0  0  0  0  0  0  0  0
    7.8021   -3.7424    0.0215 C   0  0  0  0  0  0  0  0  0  0  0  0
    6.4109   -3.9493    0.0804 C   0  0  0  0  0  0  0  0  0  0  0  0
    3.9248   -6.4648    1.3676 N   0  0  0  0  0  0  0  0  0  0  0  0
    1.0414  -11.7564    3.7088 H   0  0  0  0  0  0  0  0  0  0  0  0
    3.3442  -10.9858    3.1280 H   0  0  0  0  0  0  0  0  0  0  0  0
   -0.9075  -10.2377    3.2740 H   0  0  0  0  0  0  0  0  0  0  0  0
    6.5606   -6.9872    1.6346 H   0  0  0  0  0  0  0  0  0  0  0  0
    8.9870   -6.4446    1.4420 H   0  0  0  0  0  0  0  0  0  0  0  0
    8.1985   -2.8441   -0.4288 H   0  0  0  0  0  0  0  0  0  0  0  0
    5.7309   -3.2120   -0.3205 H   0  0  0  0  0  0  0  0  0  0  0  0
  1  6  2  0
  1  2  1  0
  1 21  1  0
  2  3  2  0
  2 22  1  0
  3  4  1  0
  4  9  1  0
  4  5  2  0
  5  6  1  0
  5  7  1  0
  6 23  1  0
  7  8  2  0
  8  9  1  0
  9 10  1  0
 10 20  1  0
 10 11  2  0
 11 12  1  0
 12 13  1  0
 13 14  1  0
 13 20  2  0
 14 19  1  0
 14 15  2  0
 15 16  1  0
 15 24  1  0
 16 17  2  0
 16 25  1  0
 17 18  1  0
 18 19  2  0
 18 26  1  0
 19 27  1  0
M  END
>  <i_m_ct_stereo_status>  (423) 
1

>  <s_m_source_file>  (423) 
/var/tmp/pbs.5076255.sched01/tmpg0s73j8k/135j_ekwz2c.sdf

>  <i_m_source_file_index>  (423) 
41

>  <i_lp_mmshare_version>  (423) 
48012

>  <i_f3d_flags>  (423) 
0

>  <s_epik_input>  (423) 
bjFbY0hdW2NIXVtjSF1jKGMxMilubm4yLWMzbm9jKG4zKS1jNFtjSF1bY0hdbltjSF1bY0hdNA==

>  <s_epik_cmdline>  (423) 
J2VwaWtfcHl0aG9uJywgJy1waHQnLCAnMi4wJywgJy1waCcsICc3LjAnLCAnLXRuJywgJzgnLCAnLW1hJywgJzIwMCcsICctaW1hZScsICc8aW5maWxlLm1hZT4nLCAnLW9tYWUnLCAnPG91dGZpbGUubWFlPic=

>  <r_lp_tautomer_probability>  (423) 
1

>  <r_epik_Ionization_Penalty>  (423) 
0.000604585

>  <r_epik_Ionization_Penalty_Charging>  (423) 
0

>  <r_epik_Ionization_Penalty_Neutral>  (423) 
0.000604585

>  <r_epik_State_Penalty>  (423) 
0.000380979

>  <r_epik_Charging_Adjusted_Penalty>  (423) 
0.000380979

>  <i_epik_Tot_Q>  (423) 
0

>  <i_epik_Tot_abs_Q>  (423) 
0

>  <s_lp_Force_Field>  (423) 
OPLS3e

>  <r_lp_Energy>  (423) 
29.2502

>  <b_lp_Chiralities_Consistent>  (423) 
1

>  <s_lp_Variant>  (423) 
112:0-1

>  <s_i_glide_gridfile>  (423) 
pfpi4k_grid

>  <i_i_glide_lignum>  (423) 
41

>  <i_i_glide_rotatable_bonds>  (423) 
2

>  <r_i_docking_score>  (423) 
-3.85253

>  <r_i_glide_ligand_efficiency>  (423) 
-0.192626

>  <r_i_glide_ligand_efficiency_sa>  (423) 
-0.522868

>  <r_i_glide_ligand_efficiency_ln>  (423) 
-0.964161

>  <r_i_glide_gscore>  (423) 
-3.85253

>  <r_i_glide_lipo>  (423) 
-0.69333

>  <r_i_glide_hbond>  (423) 
0

>  <r_i_glide_metal>  (423) 
-0

>  <r_i_glide_rewards>  (423) 
-1.6007

>  <r_i_glide_evdw>  (423) 
-27.7567

>  <r_i_glide_ecoul>  (423) 
-2.4252

>  <r_i_glide_erotb>  (423) 
0.505832

>  <r_i_glide_esite>  (423) 
-0.312711

>  <r_i_glide_emodel>  (423) 
-38.5134

>  <r_i_glide_energy>  (423) 
-30.1819

>  <r_i_glide_einternal>  (423) 
0.0747286

>  <r_i_glide_intrahb_reward>  (423) 
-0

>  <i_i_glide_confnum>  (423) 
5

>  <i_i_glide_posenum>  (423) 
22

>  <r_i_glide_eff_state_penalty>  (423) 
0

>  <ligand_id>  (423) 
112

>  <original_smiles>  (423) 
c1cnc2c(c1)nnn2-c1noc(-c2ccncc2)n1

>  <smiles>  (423) 
[H]c1nc([H])c([H])c(-c2nc(-n3nnc4c([H])c([H])c([H])nc43)no2)c1[H]

$$$$
112:0:2
     RDKit          3D

 27 30  0  0  1  0  0  0  0  0999 V2000
    2.3518  -11.4558    4.0474 C   0  0  0  0  0  0  0  0  0  0  0  0
    3.3345  -10.6673    3.4082 C   0  0  0  0  0  0  0  0  0  0  0  0
    3.0702   -9.5242    2.7325 N   0  0  0  0  0  0  0  0  0  0  0  0
    1.7459   -9.1854    2.6922 C   0  0  0  0  0  0  0  0  0  0  0  0
    0.6684   -9.8837    3.2771 C   0  0  0  0  0  0  0  0  0  0  0  0
    0.9978  -11.0638    3.9807 C   0  0  0  0  0  0  0  0  0  0  0  0
   -0.5263   -9.2279    3.0252 N   0  0  0  0  0  0  0  0  0  0  0  0
   -0.2590   -8.1698    2.3222 N   0  0  0  0  0  0  0  0  0  0  0  0
    1.0918   -8.1132    2.0982 N   0  0  0  0  0  0  0  0  0  0  0  0
    1.6447   -7.0434    1.3542 C   0  0  0  0  0  0  0  0  0  0  0  0
    0.9001   -6.2640    0.5751 N   0  0  0  0  0  0  0  0  0  0  0  0
    1.8279   -5.3527    0.0461 O   0  0  0  0  0  0  0  0  0  0  0  0
    3.0330   -5.6790    0.5822 C   0  0  0  0  0  0  0  0  0  0  0  0
    4.2111   -4.8867    0.2292 C   0  0  0  0  0  0  0  0  0  0  0  0
    5.4506   -5.1446    0.8546 C   0  0  0  0  0  0  0  0  0  0  0  0
    6.5646   -4.3591    0.5026 C   0  0  0  0  0  0  0  0  0  0  0  0
    6.5127   -3.3677   -0.4111 N   0  0  0  0  0  0  0  0  0  0  0  0
    5.3278   -3.1277   -1.0107 C   0  0  0  0  0  0  0  0  0  0  0  0
    4.1522   -3.8485   -0.7243 C   0  0  0  0  0  0  0  0  0  0  0  0
    2.9657   -6.7156    1.4135 N   0  0  0  0  0  0  0  0  0  0  0  0
    2.6305  -12.3564    4.5764 H   0  0  0  0  0  0  0  0  0  0  0  0
    4.3751  -10.9594    3.4548 H   0  0  0  0  0  0  0  0  0  0  0  0
    0.2320  -11.6578    4.4561 H   0  0  0  0  0  0  0  0  0  0  0  0
    5.5483   -5.9280    1.5924 H   0  0  0  0  0  0  0  0  0  0  0  0
    7.5229   -4.5354    0.9690 H   0  0  0  0  0  0  0  0  0  0  0  0
    5.3141   -2.3320   -1.7401 H   0  0  0  0  0  0  0  0  0  0  0  0
    3.2325   -3.6112   -1.2402 H   0  0  0  0  0  0  0  0  0  0  0  0
  1  6  2  0
  1  2  1  0
  1 21  1  0
  2  3  2  0
  2 22  1  0
  3  4  1  0
  4  9  1  0
  4  5  2  0
  5  6  1  0
  5  7  1  0
  6 23  1  0
  7  8  2  0
  8  9  1  0
  9 10  1  0
 10 20  1  0
 10 11  2  0
 11 12  1  0
 12 13  1  0
 13 14  1  0
 13 20  2  0
 14 19  1  0
 14 15  2  0
 15 16  1  0
 15 24  1  0
 16 17  2  0
 16 25  1  0
 17 18  1  0
 18 19  2  0
 18 26  1  0
 19 27  1  0
M  END
>  <i_m_ct_stereo_status>  (424) 
1

>  <s_m_source_file>  (424) 
/var/tmp/pbs.5076255.sched01/tmpg0s73j8k/135j_ekwz2c.sdf

>  <i_m_source_file_index>  (424) 
41

>  <i_lp_mmshare_version>  (424) 
48012

>  <i_f3d_flags>  (424) 
0

>  <s_epik_input>  (424) 
bjFbY0hdW2NIXVtjSF1jKGMxMilubm4yLWMzbm9jKG4zKS1jNFtjSF1bY0hdbltjSF1bY0hdNA==

>  <s_epik_cmdline>  (424) 
J2VwaWtfcHl0aG9uJywgJy1waHQnLCAnMi4wJywgJy1waCcsICc3LjAnLCAnLXRuJywgJzgnLCAnLW1hJywgJzIwMCcsICctaW1hZScsICc8aW5maWxlLm1hZT4nLCAnLW9tYWUnLCAnPG91dGZpbGUubWFlPic=

>  <r_lp_tautomer_probability>  (424) 
1

>  <r_epik_Ionization_Penalty>  (424) 
0.000604585

>  <r_epik_Ionization_Penalty_Charging>  (424) 
0

>  <r_epik_Ionization_Penalty_Neutral>  (424) 
0.000604585

>  <r_epik_State_Penalty>  (424) 
0.000380979

>  <r_epik_Charging_Adjusted_Penalty>  (424) 
0.000380979

>  <i_epik_Tot_Q>  (424) 
0

>  <i_epik_Tot_abs_Q>  (424) 
0

>  <s_lp_Force_Field>  (424) 
OPLS3e

>  <r_lp_Energy>  (424) 
29.2502

>  <b_lp_Chiralities_Consistent>  (424) 
1

>  <s_lp_Variant>  (424) 
112:0-1

>  <s_i_glide_gridfile>  (424) 
pfpi4k_grid

>  <i_i_glide_lignum>  (424) 
41

>  <i_i_glide_rotatable_bonds>  (424) 
2

>  <r_i_docking_score>  (424) 
-3.84781

>  <r_i_glide_ligand_efficiency>  (424) 
-0.192391

>  <r_i_glide_ligand_efficiency_sa>  (424) 
-0.522229

>  <r_i_glide_ligand_efficiency_ln>  (424) 
-0.962981

>  <r_i_glide_gscore>  (424) 
-3.84781

>  <r_i_glide_lipo>  (424) 
-0.363516

>  <r_i_glide_hbond>  (424) 
0

>  <r_i_glide_metal>  (424) 
-0

>  <r_i_glide_rewards>  (424) 
-1.63556

>  <r_i_glide_evdw>  (424) 
-26.9754

>  <r_i_glide_ecoul>  (424) 
-4.30664

>  <r_i_glide_erotb>  (424) 
0.505832

>  <r_i_glide_esite>  (424) 
-0.359806

>  <r_i_glide_emodel>  (424) 
-39.5571

>  <r_i_glide_energy>  (424) 
-31.282

>  <r_i_glide_einternal>  (424) 
0.183519

>  <r_i_glide_intrahb_reward>  (424) 
-0

>  <i_i_glide_confnum>  (424) 
5

>  <i_i_glide_posenum>  (424) 
36

>  <r_i_glide_eff_state_penalty>  (424) 
0

>  <ligand_id>  (424) 
112

>  <original_smiles>  (424) 
c1cnc2c(c1)nnn2-c1noc(-c2ccncc2)n1

>  <smiles>  (424) 
[H]c1nc([H])c([H])c(-c2nc(-n3nnc4c([H])c([H])c([H])nc43)no2)c1[H]

$$$$
113:0:0
     RDKit          3D

 76 83  0  0  1  0  0  0  0  0999 V2000
    2.0556    1.4895    2.5259 C   0  0  0  0  0  0  0  0  0  0  0  0
    1.2521    0.1762    2.3711 C   0  0  2  0  0  0  0  0  0  0  0  0
    0.0441    0.2013    3.3242 C   0  0  0  0  0  0  0  0  0  0  0  0
    0.3802   -0.1029    4.7764 C   0  0  0  0  0  0  0  0  0  0  0  0
   -0.4105    0.2450    5.6649 O   0  0  0  0  0  0  0  0  0  0  0  0
    1.6486   -0.9268    5.1028 C   0  0  0  0  0  0  0  0  0  0  0  0
    1.8392   -1.3273    6.2591 O   0  0  0  0  0  0  0  0  0  0  0  0
    2.6906   -1.2039    3.9977 C   0  0  2  0  0  0  0  0  0  0  0  0
    2.0554   -1.1438    2.5850 C   0  0  2  0  0  0  0  0  0  0  0  0
    3.0331   -1.5627    1.4413 C   0  0  1  0  0  0  0  0  0  0  0  0
    3.4228   -0.5067    0.5972 O   0  0  0  0  0  0  0  0  0  0  0  0
    4.3092   -2.2619    1.9362 C   0  0  0  0  0  0  0  0  0  0  0  0
    4.0012   -3.3181    3.0358 C   0  0  2  0  0  0  0  0  0  0  0  0
    3.5619   -2.4788    4.2985 C   0  0  1  0  0  0  0  0  0  0  0  0
    4.7814   -2.0659    5.1609 C   0  0  0  0  0  0  0  0  0  0  0  0
    5.6364   -3.2406    5.5720 C   0  0  1  0  0  0  0  0  0  0  0  0
    4.9207   -4.4443    5.8702 O   0  0  0  0  0  0  0  0  0  0  0  0
    5.7416   -4.4403    4.6880 C   0  0  1  0  0  0  0  0  0  0  0  0
    5.1165   -4.3975    3.2965 C   0  0  2  0  0  0  0  0  0  0  0  0
    6.1801   -4.3075    2.3879 O   0  0  0  0  0  0  0  0  0  0  0  0
    4.3153   -5.6614    2.9301 C   0  0  1  0  0  0  0  0  0  0  0  0
    2.9478   -5.5406    3.6342 C   0  0  1  0  0  0  0  0  0  0  0  0
    2.9218   -4.3749    2.6189 C   0  0  2  0  0  0  0  0  0  0  0  0
    3.5052   -5.4250    1.6409 C   0  0  1  0  0  0  0  0  0  0  0  0
    4.1706   -4.8959    0.5153 O   0  0  0  0  0  0  0  0  0  0  0  0
    2.7229   -6.4980    0.8844 C   0  0  0  0  0  0  0  0  0  0  0  0
    1.9535   -7.6018    1.6039 C   0  0  0  0  0  0  0  0  0  0  0  0
    1.0457   -7.1453    2.7357 C   0  0  1  0  0  0  0  0  0  0  0  0
    0.3813   -5.9921    2.2625 O   0  0  0  0  0  0  0  0  0  0  0  0
   -0.0734   -8.1787    3.0958 C   0  0  0  0  0  0  0  0  0  0  0  0
   -1.2468   -8.1738    2.0786 C   0  0  0  0  0  0  0  0  0  0  0  0
    0.4298   -9.6478    3.1217 C   0  0  0  0  0  0  0  0  0  0  0  0
   -0.7412   -7.8083    4.4371 C   0  0  0  0  0  0  0  0  0  0  0  0
   -1.7406   -8.4213    4.7632 O   0  0  0  0  0  0  0  0  0  0  0  0
   -0.2361   -6.6971    5.2677 C   0  0  0  0  0  0  0  0  0  0  0  0
    0.9641   -6.1657    5.0326 C   0  0  0  0  0  0  0  0  0  0  0  0
    1.9139   -6.6653    3.9451 C   0  0  2  0  0  0  0  0  0  0  0  0
    2.7185   -7.7957    4.6300 C   0  0  0  0  0  0  0  0  0  0  0  0
    2.4267    1.6326    3.5411 H   0  0  0  0  0  0  0  0  0  0  0  0
    1.4258    2.3499    2.2887 H   0  0  0  0  0  0  0  0  0  0  0  0
    2.9122    1.5419    1.8581 H   0  0  0  0  0  0  0  0  0  0  0  0
    0.8463    0.1670    1.3560 H   0  0  0  0  0  0  0  0  0  0  0  0
   -0.4729    1.1592    3.2625 H   0  0  0  0  0  0  0  0  0  0  0  0
   -0.6744   -0.5509    3.0146 H   0  0  0  0  0  0  0  0  0  0  0  0
    3.3778   -0.3593    4.0410 H   0  0  0  0  0  0  0  0  0  0  0  0
    1.2981   -1.9266    2.5696 H   0  0  0  0  0  0  0  0  0  0  0  0
    2.4972   -2.2543    0.7906 H   0  0  0  0  0  0  0  0  0  0  0  0
    2.6703   -0.3027    0.0545 H   0  0  0  0  0  0  0  0  0  0  0  0
    4.8500   -2.6592    1.0811 H   0  0  0  0  0  0  0  0  0  0  0  0
    4.9770   -1.5153    2.3438 H   0  0  0  0  0  0  0  0  0  0  0  0
    2.9568   -3.1216    4.9400 H   0  0  0  0  0  0  0  0  0  0  0  0
    5.4206   -1.3859    4.5942 H   0  0  0  0  0  0  0  0  0  0  0  0
    4.4817   -1.5351    6.0737 H   0  0  0  0  0  0  0  0  0  0  0  0
    6.4902   -3.0317    6.2053 H   0  0  0  0  0  0  0  0  0  0  0  0
    6.6102   -5.0739    4.7924 H   0  0  0  0  0  0  0  0  0  0  0  0
    6.8039   -4.9869    2.5928 H   0  0  0  0  0  0  0  0  0  0  0  0
    4.8079   -6.6277    3.0262 H   0  0  0  0  0  0  0  0  0  0  0  0
    3.1593   -5.1428    4.6043 H   0  0  0  0  0  0  0  0  0  0  0  0
    1.9449   -4.0001    2.3367 H   0  0  0  0  0  0  0  0  0  0  0  0
    4.6576   -5.6013    0.1183 H   0  0  0  0  0  0  0  0  0  0  0  0
    2.0380   -5.9913    0.1968 H   0  0  0  0  0  0  0  0  0  0  0  0
    3.4220   -7.0288    0.2290 H   0  0  0  0  0  0  0  0  0  0  0  0
    1.3428   -8.0899    0.8524 H   0  0  0  0  0  0  0  0  0  0  0  0
    2.6537   -8.3663    1.9327 H   0  0  0  0  0  0  0  0  0  0  0  0
    1.0248   -5.2998    2.3030 H   0  0  0  0  0  0  0  0  0  0  0  0
   -0.9074   -8.2518    1.0467 H   0  0  0  0  0  0  0  0  0  0  0  0
   -1.8247   -7.2526    2.1357 H   0  0  0  0  0  0  0  0  0  0  0  0
   -1.9548   -8.9912    2.2526 H   0  0  0  0  0  0  0  0  0  0  0  0
    0.5863  -10.0316    2.1092 H   0  0  0  0  0  0  0  0  0  0  0  0
   -0.2874  -10.3187    3.5986 H   0  0  0  0  0  0  0  0  0  0  0  0
    1.3677   -9.7809    3.6449 H   0  0  0  0  0  0  0  0  0  0  0  0
   -0.8782   -6.3364    6.0552 H   0  0  0  0  0  0  0  0  0  0  0  0
    1.3073   -5.3485    5.6544 H   0  0  0  0  0  0  0  0  0  0  0  0
    3.3385   -8.3717    3.9455 H   0  0  0  0  0  0  0  0  0  0  0  0
    2.0805   -8.4862    5.1722 H   0  0  0  0  0  0  0  0  0  0  0  0
    3.3917   -7.3804    5.3839 H   0  0  0  0  0  0  0  0  0  0  0  0
  1  2  1  0
  1 39  1  0
  1 40  1  0
  1 41  1  0
  2  9  1  0
  2  3  1  0
  2 42  1  6
  3  4  1  0
  3 43  1  0
  3 44  1  0
  4  5  2  0
  4  6  1  0
  6  7  2  0
  6  8  1  0
  8 14  1  0
  8  9  1  0
  8 45  1  6
  9 10  1  0
  9 46  1  1
 10 11  1  0
 10 12  1  0
 10 47  1  6
 11 48  1  0
 13 12  1  6
 12 49  1  0
 12 50  1  0
 13 19  1  0
 13 23  1  0
 13 14  1  0
 14 15  1  0
 14 51  1  1
 15 16  1  0
 15 52  1  0
 15 53  1  0
 16 18  1  0
 16 17  1  0
 16 54  1  1
 17 18  1  0
 18 19  1  0
 18 55  1  6
 19 20  1  6
 19 21  1  0
 20 56  1  0
 21 24  1  0
 21 22  1  0
 21 57  1  6
 22 37  1  0
 22 23  1  0
 22 58  1  1
 23 24  1  0
 23 59  1  6
 24 25  1  6
 24 26  1  0
 25 60  1  0
 26 27  1  0
 26 61  1  0
 26 62  1  0
 27 28  1  0
 27 63  1  0
 27 64  1  0
 28 37  1  0
 28 29  1  6
 28 30  1  0
 29 65  1  0
 30 31  1  0
 30 32  1  0
 30 33  1  0
 31 66  1  0
 31 67  1  0
 31 68  1  0
 32 69  1  0
 32 70  1  0
 32 71  1  0
 33 34  2  0
 33 35  1  0
 35 36  2  0
 35 72  1  0
 36 37  1  0
 36 73  1  0
 37 38  1  1
 38 74  1  0
 38 75  1  0
 38 76  1  0
M  END
>  <i_m_ct_stereo_status>  (425) 
1

>  <s_m_source_file>  (425) 
/var/tmp/pbs.5076255.sched01/tmpg0s73j8k/135j_ekwz2c.sdf

>  <i_m_source_file_index>  (425) 
42

>  <i_lp_mmshare_version>  (425) 
48012

>  <i_f3d_flags>  (425) 
0

>  <s_epik_input>  (425) 
Tz1DMUMoPU8pW0NIMl1bQ0BASF0oW0NIM10pW0NAQEhdKFtDQEBIXShbT0hdKVtDSDJdMilbQ0BASF0xW0NAQEhdKFtDQEBdMjM0KVtDSDJdW0NAQEhdNVtDQEBIXShPNSlbQ0BAXTMoW09IXSlbQ0BIXTZbQ0BIXTdbQ0BASF00W0NAXTYoW09IXSlbQ0gyXVtDSDJdW0NAXTgoW09IXSlbQ0BdNyhbQ0gzXSlbQ0hdPVtDSF1DKD1PKUM4KFtDSDNdKVtDSDNd

>  <s_epik_cmdline>  (425) 
J2VwaWtfcHl0aG9uJywgJy1waHQnLCAnMi4wJywgJy1waCcsICc3LjAnLCAnLXRuJywgJzgnLCAnLW1hJywgJzIwMCcsICctaW1hZScsICc8aW5maWxlLm1hZT4nLCAnLW9tYWUnLCAnPG91dGZpbGUubWFlPic=

>  <r_lp_tautomer_probability>  (425) 
1

>  <r_epik_Ionization_Penalty>  (425) 
4.88254e-07

>  <r_epik_Ionization_Penalty_Charging>  (425) 
0

>  <r_epik_Ionization_Penalty_Neutral>  (425) 
4.88254e-07

>  <r_epik_State_Penalty>  (425) 
-0

>  <r_epik_Charging_Adjusted_Penalty>  (425) 
0

>  <i_epik_Tot_Q>  (425) 
0

>  <i_epik_Tot_abs_Q>  (425) 
0

>  <s_lp_Force_Field>  (425) 
OPLS3e

>  <r_lp_Energy>  (425) 
115.757

>  <b_lp_Chiralities_Consistent>  (425) 
1

>  <s_lp_Variant>  (425) 
113:0-1

>  <s_i_glide_gridfile>  (425) 
pfpi4k_grid

>  <i_i_glide_lignum>  (425) 
42

>  <i_i_glide_rotatable_bonds>  (425) 
4

>  <r_i_docking_score>  (425) 
-2.73215

>  <r_i_glide_ligand_efficiency>  (425) 
-0.0718987

>  <r_i_glide_ligand_efficiency_sa>  (425) 
-0.241722

>  <r_i_glide_ligand_efficiency_ln>  (425) 
-0.589132

>  <r_i_glide_gscore>  (425) 
-2.73215

>  <r_i_glide_lipo>  (425) 
-0.122547

>  <r_i_glide_hbond>  (425) 
-0.285723

>  <r_i_glide_metal>  (425) 
-0

>  <r_i_glide_rewards>  (425) 
0

>  <r_i_glide_evdw>  (425) 
-25.0382

>  <r_i_glide_ecoul>  (425) 
-6.7138

>  <r_i_glide_erotb>  (425) 
0

>  <r_i_glide_esite>  (425) 
-0.0649016

>  <r_i_glide_emodel>  (425) 
-37.1637

>  <r_i_glide_energy>  (425) 
-31.752

>  <r_i_glide_einternal>  (425) 
1.3066

>  <r_i_glide_intrahb_reward>  (425) 
-0

>  <i_i_glide_confnum>  (425) 
1

>  <i_i_glide_posenum>  (425) 
10

>  <r_i_glide_eff_state_penalty>  (425) 
0

>  <ligand_id>  (425) 
113

>  <original_smiles>  (425) 
CC1CC(=O)C(=O)C2C1C(O)CC13C2CC2OC2C1(O)C1C2C3C1(O)CCC1(O)C(C)(C)C(=O)C=CC21C

>  <smiles>  (425) 
[H]OC1([H])C([H])([H])C23C([H])(C([H])([H])C4([H])OC4([H])C2(O[H])C2([H])C4([H])C3([H])C2(O[H])C([H])([H])C([H])([H])C2(O[H])C(C([H])([H])[H])(C([H])([H])[H])C(=O)C([H])=C([H])C42C([H])([H])[H])C2([H])C(=O)C(=O)C([H])([H])C([H])(C([H])([H])[H])C12[H]

$$$$
113:0:1
     RDKit          3D

 76 83  0  0  1  0  0  0  0  0999 V2000
    2.0897    1.5269    2.4514 C   0  0  0  0  0  0  0  0  0  0  0  0
    1.2793    0.2172    2.3047 C   0  0  2  0  0  0  0  0  0  0  0  0
    0.0675    0.2562    3.2494 C   0  0  0  0  0  0  0  0  0  0  0  0
    0.3929   -0.0367    4.7089 C   0  0  0  0  0  0  0  0  0  0  0  0
   -0.3941    0.3221    5.5899 O   0  0  0  0  0  0  0  0  0  0  0  0
    1.6597   -0.8633    5.0495 C   0  0  0  0  0  0  0  0  0  0  0  0
    1.8405   -1.2523    6.2070 O   0  0  0  0  0  0  0  0  0  0  0  0
    2.7045   -1.1548    3.9466 C   0  0  2  0  0  0  0  0  0  0  0  0
    2.0743   -1.1060    2.5318 C   0  0  2  0  0  0  0  0  0  0  0  0
    3.0514   -1.5407    1.3950 C   0  0  1  0  0  0  0  0  0  0  0  0
    3.4417   -0.4988    0.5353 O   0  0  0  0  0  0  0  0  0  0  0  0
    4.3234   -2.2372    1.9029 C   0  0  0  0  0  0  0  0  0  0  0  0
    4.0047   -3.2841    3.0112 C   0  0  2  0  0  0  0  0  0  0  0  0
    3.5672   -2.4326    4.2638 C   0  0  1  0  0  0  0  0  0  0  0  0
    4.7870   -2.0157    5.1276 C   0  0  0  0  0  0  0  0  0  0  0  0
    5.6343   -3.1917    5.5524 C   0  0  1  0  0  0  0  0  0  0  0  0
    4.9108   -4.3891    5.8606 O   0  0  0  0  0  0  0  0  0  0  0  0
    5.7329   -4.4022    4.6823 C   0  0  1  0  0  0  0  0  0  0  0  0
    5.1135   -4.3673    3.2873 C   0  0  2  0  0  0  0  0  0  0  0  0
    6.1895   -4.2733    2.3875 O   0  0  0  0  0  0  0  0  0  0  0  0
    4.3126   -5.6303    2.9246 C   0  0  1  0  0  0  0  0  0  0  0  0
    2.9437   -5.4967    3.6255 C   0  0  1  0  0  0  0  0  0  0  0  0
    2.9238   -4.3388    2.5962 C   0  0  2  0  0  0  0  0  0  0  0  0
    3.5098   -5.3988    1.6304 C   0  0  1  0  0  0  0  0  0  0  0  0
    4.1844   -4.8823    0.5023 O   0  0  0  0  0  0  0  0  0  0  0  0
    2.7276   -6.4798    0.8752 C   0  0  0  0  0  0  0  0  0  0  0  0
    1.9510   -7.5746    1.6109 C   0  0  0  0  0  0  0  0  0  0  0  0
    1.0437   -7.1023    2.7337 C   0  0  1  0  0  0  0  0  0  0  0  0
    0.3886   -5.9517    2.2416 O   0  0  0  0  0  0  0  0  0  0  0  0
   -0.0802   -8.1317    3.1029 C   0  0  0  0  0  0  0  0  0  0  0  0
   -1.2504   -8.1278    2.0817 C   0  0  0  0  0  0  0  0  0  0  0  0
    0.4128   -9.6012    3.1405 C   0  0  0  0  0  0  0  0  0  0  0  0
   -0.7589   -7.7452    4.4355 C   0  0  0  0  0  0  0  0  0  0  0  0
   -1.7728   -8.3371    4.7568 O   0  0  0  0  0  0  0  0  0  0  0  0
   -0.2517   -6.6274    5.2542 C   0  0  0  0  0  0  0  0  0  0  0  0
    0.9518   -6.0997    5.0195 C   0  0  0  0  0  0  0  0  0  0  0  0
    1.9053   -6.6136    3.9422 C   0  0  2  0  0  0  0  0  0  0  0  0
    2.7020   -7.7406    4.6415 C   0  0  0  0  0  0  0  0  0  0  0  0
    2.4582    1.6808    3.4659 H   0  0  0  0  0  0  0  0  0  0  0  0
    1.4646    2.3871    2.2007 H   0  0  0  0  0  0  0  0  0  0  0  0
    2.9478    1.5672    1.7848 H   0  0  0  0  0  0  0  0  0  0  0  0
    0.8752    0.2001    1.2905 H   0  0  0  0  0  0  0  0  0  0  0  0
   -0.4438    1.2172    3.1766 H   0  0  0  0  0  0  0  0  0  0  0  0
   -0.6515   -0.4935    2.9363 H   0  0  0  0  0  0  0  0  0  0  0  0
    3.3955   -0.3124    3.9850 H   0  0  0  0  0  0  0  0  0  0  0  0
    1.3129   -1.8856    2.5208 H   0  0  0  0  0  0  0  0  0  0  0  0
    2.5174   -2.2391    0.7498 H   0  0  0  0  0  0  0  0  0  0  0  0
    2.6926   -0.3078   -0.0166 H   0  0  0  0  0  0  0  0  0  0  0  0
    4.8615   -2.6425    1.0501 H   0  0  0  0  0  0  0  0  0  0  0  0
    4.9937   -1.4861    2.3043 H   0  0  0  0  0  0  0  0  0  0  0  0
    2.9577   -3.0654    4.9090 H   0  0  0  0  0  0  0  0  0  0  0  0
    5.4310   -1.3422    4.5592 H   0  0  0  0  0  0  0  0  0  0  0  0
    4.4854   -1.4751    6.0324 H   0  0  0  0  0  0  0  0  0  0  0  0
    6.4861   -2.9805    6.1906 H   0  0  0  0  0  0  0  0  0  0  0  0
    6.6008   -5.0389    4.7886 H   0  0  0  0  0  0  0  0  0  0  0  0
    6.6281   -3.4583    2.5632 H   0  0  0  0  0  0  0  0  0  0  0  0
    4.8095   -6.5953    3.0326 H   0  0  0  0  0  0  0  0  0  0  0  0
    3.1541   -5.0896    4.5959 H   0  0  0  0  0  0  0  0  0  0  0  0
    1.9476   -3.9619    2.3087 H   0  0  0  0  0  0  0  0  0  0  0  0
    4.6848   -5.5921    0.1300 H   0  0  0  0  0  0  0  0  0  0  0  0
    2.0508   -5.9784    0.1894 H   0  0  0  0  0  0  0  0  0  0  0  0
    3.4245   -7.0172    0.2363 H   0  0  0  0  0  0  0  0  0  0  0  0
    1.3411   -8.0665    0.8576 H   0  0  0  0  0  0  0  0  0  0  0  0
    2.6470   -8.3378    1.9466 H   0  0  0  0  0  0  0  0  0  0  0  0
    1.0446   -5.2697    2.2446 H   0  0  0  0  0  0  0  0  0  0  0  0
   -0.9191   -8.2012    1.0506 H   0  0  0  0  0  0  0  0  0  0  0  0
   -1.8282   -7.2078    2.1870 H   0  0  0  0  0  0  0  0  0  0  0  0
   -1.9599   -8.9453    2.2573 H   0  0  0  0  0  0  0  0  0  0  0  0
    0.5709   -9.9929    2.1318 H   0  0  0  0  0  0  0  0  0  0  0  0
   -0.3129  -10.2617    3.6196 H   0  0  0  0  0  0  0  0  0  0  0  0
    1.3489   -9.7337    3.6695 H   0  0  0  0  0  0  0  0  0  0  0  0
   -0.8979   -6.2540    6.0355 H   0  0  0  0  0  0  0  0  0  0  0  0
    1.2932   -5.2790    5.6358 H   0  0  0  0  0  0  0  0  0  0  0  0
    3.3217   -8.3259    3.9643 H   0  0  0  0  0  0  0  0  0  0  0  0
    2.0567   -8.4242    5.1868 H   0  0  0  0  0  0  0  0  0  0  0  0
    3.3729   -7.3217    5.3937 H   0  0  0  0  0  0  0  0  0  0  0  0
  1  2  1  0
  1 39  1  0
  1 40  1  0
  1 41  1  0
  2  9  1  0
  2  3  1  0
  2 42  1  6
  3  4  1  0
  3 43  1  0
  3 44  1  0
  4  5  2  0
  4  6  1  0
  6  7  2  0
  6  8  1  0
  8 14  1  0
  8  9  1  0
  8 45  1  6
  9 10  1  0
  9 46  1  1
 10 11  1  0
 10 12  1  0
 10 47  1  6
 11 48  1  0
 13 12  1  6
 12 49  1  0
 12 50  1  0
 13 19  1  0
 13 23  1  0
 13 14  1  0
 14 15  1  0
 14 51  1  1
 15 16  1  0
 15 52  1  0
 15 53  1  0
 16 18  1  0
 16 17  1  0
 16 54  1  1
 17 18  1  0
 18 19  1  0
 18 55  1  6
 19 20  1  6
 19 21  1  0
 20 56  1  0
 21 24  1  0
 21 22  1  0
 21 57  1  6
 22 37  1  0
 22 23  1  0
 22 58  1  1
 23 24  1  0
 23 59  1  6
 24 25  1  6
 24 26  1  0
 25 60  1  0
 26 27  1  0
 26 61  1  0
 26 62  1  0
 27 28  1  0
 27 63  1  0
 27 64  1  0
 28 37  1  0
 28 29  1  6
 28 30  1  0
 29 65  1  0
 30 31  1  0
 30 32  1  0
 30 33  1  0
 31 66  1  0
 31 67  1  0
 31 68  1  0
 32 69  1  0
 32 70  1  0
 32 71  1  0
 33 34  2  0
 33 35  1  0
 35 36  2  0
 35 72  1  0
 36 37  1  0
 36 73  1  0
 37 38  1  1
 38 74  1  0
 38 75  1  0
 38 76  1  0
M  END
>  <i_m_ct_stereo_status>  (426) 
1

>  <s_m_source_file>  (426) 
/var/tmp/pbs.5076255.sched01/tmpg0s73j8k/135j_ekwz2c.sdf

>  <i_m_source_file_index>  (426) 
42

>  <i_lp_mmshare_version>  (426) 
48012

>  <i_f3d_flags>  (426) 
0

>  <s_epik_input>  (426) 
Tz1DMUMoPU8pW0NIMl1bQ0BASF0oW0NIM10pW0NAQEhdKFtDQEBIXShbT0hdKVtDSDJdMilbQ0BASF0xW0NAQEhdKFtDQEBdMjM0KVtDSDJdW0NAQEhdNVtDQEBIXShPNSlbQ0BAXTMoW09IXSlbQ0BIXTZbQ0BIXTdbQ0BASF00W0NAXTYoW09IXSlbQ0gyXVtDSDJdW0NAXTgoW09IXSlbQ0BdNyhbQ0gzXSlbQ0hdPVtDSF1DKD1PKUM4KFtDSDNdKVtDSDNd

>  <s_epik_cmdline>  (426) 
J2VwaWtfcHl0aG9uJywgJy1waHQnLCAnMi4wJywgJy1waCcsICc3LjAnLCAnLXRuJywgJzgnLCAnLW1hJywgJzIwMCcsICctaW1hZScsICc8aW5maWxlLm1hZT4nLCAnLW9tYWUnLCAnPG91dGZpbGUubWFlPic=

>  <r_lp_tautomer_probability>  (426) 
1

>  <r_epik_Ionization_Penalty>  (426) 
4.88254e-07

>  <r_epik_Ionization_Penalty_Charging>  (426) 
0

>  <r_epik_Ionization_Penalty_Neutral>  (426) 
4.88254e-07

>  <r_epik_State_Penalty>  (426) 
-0

>  <r_epik_Charging_Adjusted_Penalty>  (426) 
0

>  <i_epik_Tot_Q>  (426) 
0

>  <i_epik_Tot_abs_Q>  (426) 
0

>  <s_lp_Force_Field>  (426) 
OPLS3e

>  <r_lp_Energy>  (426) 
115.757

>  <b_lp_Chiralities_Consistent>  (426) 
1

>  <s_lp_Variant>  (426) 
113:0-1

>  <s_i_glide_gridfile>  (426) 
pfpi4k_grid

>  <i_i_glide_lignum>  (426) 
42

>  <i_i_glide_rotatable_bonds>  (426) 
4

>  <r_i_docking_score>  (426) 
-2.72735

>  <r_i_glide_ligand_efficiency>  (426) 
-0.0717724

>  <r_i_glide_ligand_efficiency_sa>  (426) 
-0.241297

>  <r_i_glide_ligand_efficiency_ln>  (426) 
-0.588097

>  <r_i_glide_gscore>  (426) 
-2.72735

>  <r_i_glide_lipo>  (426) 
-0.144123

>  <r_i_glide_hbond>  (426) 
-0.29412

>  <r_i_glide_metal>  (426) 
-0

>  <r_i_glide_rewards>  (426) 
0

>  <r_i_glide_evdw>  (426) 
-24.8148

>  <r_i_glide_ecoul>  (426) 
-6.56554

>  <r_i_glide_erotb>  (426) 
0

>  <r_i_glide_esite>  (426) 
-0.0635386

>  <r_i_glide_emodel>  (426) 
-36.8634

>  <r_i_glide_energy>  (426) 
-31.3803

>  <r_i_glide_einternal>  (426) 
1.25956

>  <r_i_glide_intrahb_reward>  (426) 
-0

>  <i_i_glide_confnum>  (426) 
1

>  <i_i_glide_posenum>  (426) 
14

>  <r_i_glide_eff_state_penalty>  (426) 
0

>  <ligand_id>  (426) 
113

>  <original_smiles>  (426) 
CC1CC(=O)C(=O)C2C1C(O)CC13C2CC2OC2C1(O)C1C2C3C1(O)CCC1(O)C(C)(C)C(=O)C=CC21C

>  <smiles>  (426) 
[H]OC1([H])C([H])([H])C23C([H])(C([H])([H])C4([H])OC4([H])C2(O[H])C2([H])C4([H])C3([H])C2(O[H])C([H])([H])C([H])([H])C2(O[H])C(C([H])([H])[H])(C([H])([H])[H])C(=O)C([H])=C([H])C42C([H])([H])[H])C2([H])C(=O)C(=O)C([H])([H])C([H])(C([H])([H])[H])C12[H]

$$$$
113:0:2
     RDKit          3D

 76 83  0  0  1  0  0  0  0  0999 V2000
    2.5209    0.0084    5.9426 C   0  0  0  0  0  0  0  0  0  0  0  0
    2.4271   -1.2586    5.0552 C   0  0  2  0  0  0  0  0  0  0  0  0
    1.2047   -1.1546    4.1184 C   0  0  0  0  0  0  0  0  0  0  0  0
   -0.1214   -1.4273    4.8209 C   0  0  0  0  0  0  0  0  0  0  0  0
   -1.1685   -0.9485    4.3798 O   0  0  0  0  0  0  0  0  0  0  0  0
   -0.1487   -2.3461    6.0529 C   0  0  0  0  0  0  0  0  0  0  0  0
   -1.2403   -2.7433    6.4794 O   0  0  0  0  0  0  0  0  0  0  0  0
    1.1669   -2.6923    6.7854 C   0  0  2  0  0  0  0  0  0  0  0  0
    2.3797   -2.6174    5.8245 C   0  0  2  0  0  0  0  0  0  0  0  0
    3.7221   -3.1075    6.4545 C   0  0  1  0  0  0  0  0  0  0  0  0
    4.6852   -2.0908    6.6523 O   0  0  0  0  0  0  0  0  0  0  0  0
    3.5388   -3.8818    7.7740 C   0  0  0  0  0  0  0  0  0  0  0  0
    2.3603   -4.8977    7.7083 C   0  0  2  0  0  0  0  0  0  0  0  0
    1.0553   -4.0084    7.6434 C   0  0  1  0  0  0  0  0  0  0  0  0
    0.5429   -3.6467    9.0603 C   0  0  0  0  0  0  0  0  0  0  0  0
    0.3338   -4.8626    9.9352 C   0  0  1  0  0  0  0  0  0  0  0  0
   -0.1816   -6.0181    9.2580 O   0  0  0  0  0  0  0  0  0  0  0  0
    1.1659   -6.0784    9.7543 C   0  0  1  0  0  0  0  0  0  0  0  0
    2.3577   -6.0333    8.8028 C   0  0  2  0  0  0  0  0  0  0  0  0
    3.4700   -5.9900    9.6683 O   0  0  0  0  0  0  0  0  0  0  0  0
    2.4622   -7.2600    7.8574 C   0  0  1  0  0  0  0  0  0  0  0  0
    1.4456   -7.0416    6.7139 C   0  0  1  0  0  0  0  0  0  0  0  0
    2.4651   -5.8984    6.5032 C   0  0  2  0  0  0  0  0  0  0  0  0
    3.5199   -7.0108    6.7580 C   0  0  1  0  0  0  0  0  0  0  0  0
    4.7857   -6.5548    7.1770 O   0  0  0  0  0  0  0  0  0  0  0  0
    4.0425   -8.0455    5.7252 C   0  0  0  0  0  0  0  0  0  0  0  0
    3.1010   -9.0747    5.1062 C   0  0  0  0  0  0  0  0  0  0  0  0
    1.7798   -8.5308    4.5466 C   0  0  1  0  0  0  0  0  0  0  0  0
    2.1025   -7.3487    3.8272 O   0  0  0  0  0  0  0  0  0  0  0  0
    1.0910   -9.4924    3.4942 C   0  0  0  0  0  0  0  0  0  0  0  0
    1.8247   -9.4428    2.1222 C   0  0  0  0  0  0  0  0  0  0  0  0
    1.1456  -10.9883    3.9236 C   0  0  0  0  0  0  0  0  0  0  0  0
   -0.3763   -9.0727    3.2233 C   0  0  0  0  0  0  0  0  0  0  0  0
   -1.0276   -9.6922    2.3774 O   0  0  0  0  0  0  0  0  0  0  0  0
   -0.9982   -7.9669    3.9610 C   0  0  0  0  0  0  0  0  0  0  0  0
   -0.4254   -7.5046    5.0927 C   0  0  0  0  0  0  0  0  0  0  0  0
    0.8393   -8.0848    5.7173 C   0  0  2  0  0  0  0  0  0  0  0  0
    0.3339   -9.2420    6.6172 C   0  0  0  0  0  0  0  0  0  0  0  0
    1.6398    0.1475    6.5694 H   0  0  0  0  0  0  0  0  0  0  0  0
    2.6157    0.9003    5.3213 H   0  0  0  0  0  0  0  0  0  0  0  0
    3.3875    0.0051    6.6005 H   0  0  0  0  0  0  0  0  0  0  0  0
    3.3120   -1.2661    4.4147 H   0  0  0  0  0  0  0  0  0  0  0  0
    1.1655   -0.1605    3.6668 H   0  0  0  0  0  0  0  0  0  0  0  0
    1.3085   -1.8598    3.2913 H   0  0  0  0  0  0  0  0  0  0  0  0
    1.3204   -1.8867    7.5057 H   0  0  0  0  0  0  0  0  0  0  0  0
    2.1761   -3.3559    5.0476 H   0  0  0  0  0  0  0  0  0  0  0  0
    4.1797   -3.7855    5.7353 H   0  0  0  0  0  0  0  0  0  0  0  0
    4.3700   -1.4804    7.3017 H   0  0  0  0  0  0  0  0  0  0  0  0
    4.4844   -4.3348    8.0612 H   0  0  0  0  0  0  0  0  0  0  0  0
    3.3348   -3.1720    8.5676 H   0  0  0  0  0  0  0  0  0  0  0  0
    0.2624   -4.5993    7.1865 H   0  0  0  0  0  0  0  0  0  0  0  0
    1.2737   -3.0199    9.5718 H   0  0  0  0  0  0  0  0  0  0  0  0
   -0.3979   -3.0890    9.0290 H   0  0  0  0  0  0  0  0  0  0  0  0
   -0.0788   -4.6891   10.9270 H   0  0  0  0  0  0  0  0  0  0  0  0
    1.2601   -6.7729   10.5838 H   0  0  0  0  0  0  0  0  0  0  0  0
    3.4679   -6.7790   10.1902 H   0  0  0  0  0  0  0  0  0  0  0  0
    2.4527   -8.2499    8.3062 H   0  0  0  0  0  0  0  0  0  0  0  0
    0.5732   -6.6331    7.1838 H   0  0  0  0  0  0  0  0  0  0  0  0
    2.4876   -5.4768    5.5083 H   0  0  0  0  0  0  0  0  0  0  0  0
    5.1589   -7.2335    7.7114 H   0  0  0  0  0  0  0  0  0  0  0  0
    4.5332   -7.5008    4.9184 H   0  0  0  0  0  0  0  0  0  0  0  0
    4.8481   -8.6357    6.1692 H   0  0  0  0  0  0  0  0  0  0  0  0
    3.6622   -9.5528    4.3042 H   0  0  0  0  0  0  0  0  0  0  0  0
    2.9156   -9.8641    5.8298 H   0  0  0  0  0  0  0  0  0  0  0  0
    2.6177   -6.7977    4.3953 H   0  0  0  0  0  0  0  0  0  0  0  0
    2.8983   -9.6253    2.1982 H   0  0  0  0  0  0  0  0  0  0  0  0
    1.6856   -8.4887    1.6153 H   0  0  0  0  0  0  0  0  0  0  0  0
    1.4278  -10.1936    1.4460 H   0  0  0  0  0  0  0  0  0  0  0  0
    2.1489  -11.4027    3.8076 H   0  0  0  0  0  0  0  0  0  0  0  0
    0.4866  -11.6146    3.3226 H   0  0  0  0  0  0  0  0  0  0  0  0
    0.8708  -11.1617    4.9589 H   0  0  0  0  0  0  0  0  0  0  0  0
   -1.9164   -7.5660    3.5792 H   0  0  0  0  0  0  0  0  0  0  0  0
   -0.9124   -6.6997    5.6209 H   0  0  0  0  0  0  0  0  0  0  0  0
    1.1270   -9.8753    7.0127 H   0  0  0  0  0  0  0  0  0  0  0  0
   -0.3786   -9.8804    6.1011 H   0  0  0  0  0  0  0  0  0  0  0  0
   -0.2093   -8.8609    7.4851 H   0  0  0  0  0  0  0  0  0  0  0  0
  1  2  1  0
  1 39  1  0
  1 40  1  0
  1 41  1  0
  2  9  1  0
  2  3  1  0
  2 42  1  6
  3  4  1  0
  3 43  1  0
  3 44  1  0
  4  5  2  0
  4  6  1  0
  6  7  2  0
  6  8  1  0
  8 14  1  0
  8  9  1  0
  8 45  1  1
  9 10  1  0
  9 46  1  6
 10 11  1  0
 10 12  1  0
 10 47  1  6
 11 48  1  0
 13 12  1  1
 12 49  1  0
 12 50  1  0
 13 19  1  0
 13 23  1  0
 13 14  1  0
 14 15  1  0
 14 51  1  6
 15 16  1  0
 15 52  1  0
 15 53  1  0
 16 18  1  0
 16 17  1  0
 16 54  1  1
 17 18  1  0
 18 19  1  0
 18 55  1  1
 19 20  1  1
 19 21  1  0
 20 56  1  0
 21 24  1  0
 21 22  1  0
 21 57  1  1
 22 37  1  0
 22 23  1  0
 22 58  1  1
 23 24  1  0
 23 59  1  6
 24 25  1  1
 24 26  1  0
 25 60  1  0
 26 27  1  0
 26 61  1  0
 26 62  1  0
 27 28  1  0
 27 63  1  0
 27 64  1  0
 28 37  1  0
 28 29  1  6
 28 30  1  0
 29 65  1  0
 30 31  1  0
 30 32  1  0
 30 33  1  0
 31 66  1  0
 31 67  1  0
 31 68  1  0
 32 69  1  0
 32 70  1  0
 32 71  1  0
 33 34  2  0
 33 35  1  0
 35 36  2  0
 35 72  1  0
 36 37  1  0
 36 73  1  0
 37 38  1  1
 38 74  1  0
 38 75  1  0
 38 76  1  0
M  END
>  <i_m_ct_stereo_status>  (427) 
1

>  <s_m_source_file>  (427) 
/var/tmp/pbs.5076255.sched01/tmpg0s73j8k/135j_ekwz2c.sdf

>  <i_m_source_file_index>  (427) 
42

>  <i_lp_mmshare_version>  (427) 
48012

>  <i_f3d_flags>  (427) 
0

>  <s_epik_input>  (427) 
Tz1DMUMoPU8pW0NIMl1bQ0BASF0oW0NIM10pW0NAQEhdKFtDQEBIXShbT0hdKVtDSDJdMilbQ0BASF0xW0NAQEhdKFtDQEBdMjM0KVtDSDJdW0NAQEhdNVtDQEBIXShPNSlbQ0BAXTMoW09IXSlbQ0BIXTZbQ0BIXTdbQ0BASF00W0NAXTYoW09IXSlbQ0gyXVtDSDJdW0NAXTgoW09IXSlbQ0BdNyhbQ0gzXSlbQ0hdPVtDSF1DKD1PKUM4KFtDSDNdKVtDSDNd

>  <s_epik_cmdline>  (427) 
J2VwaWtfcHl0aG9uJywgJy1waHQnLCAnMi4wJywgJy1waCcsICc3LjAnLCAnLXRuJywgJzgnLCAnLW1hJywgJzIwMCcsICctaW1hZScsICc8aW5maWxlLm1hZT4nLCAnLW9tYWUnLCAnPG91dGZpbGUubWFlPic=

>  <r_lp_tautomer_probability>  (427) 
1

>  <r_epik_Ionization_Penalty>  (427) 
4.88254e-07

>  <r_epik_Ionization_Penalty_Charging>  (427) 
0

>  <r_epik_Ionization_Penalty_Neutral>  (427) 
4.88254e-07

>  <r_epik_State_Penalty>  (427) 
-0

>  <r_epik_Charging_Adjusted_Penalty>  (427) 
0

>  <i_epik_Tot_Q>  (427) 
0

>  <i_epik_Tot_abs_Q>  (427) 
0

>  <s_lp_Force_Field>  (427) 
OPLS3e

>  <r_lp_Energy>  (427) 
115.757

>  <b_lp_Chiralities_Consistent>  (427) 
1

>  <s_lp_Variant>  (427) 
113:0-1

>  <s_i_glide_gridfile>  (427) 
pfpi4k_grid

>  <i_i_glide_lignum>  (427) 
42

>  <i_i_glide_rotatable_bonds>  (427) 
4

>  <r_i_docking_score>  (427) 
-2.44381

>  <r_i_glide_ligand_efficiency>  (427) 
-0.0643109

>  <r_i_glide_ligand_efficiency_sa>  (427) 
-0.216212

>  <r_i_glide_ligand_efficiency_ln>  (427) 
-0.526958

>  <r_i_glide_gscore>  (427) 
-2.44381

>  <r_i_glide_lipo>  (427) 
-0.215115

>  <r_i_glide_hbond>  (427) 
-0.295512

>  <r_i_glide_metal>  (427) 
-0

>  <r_i_glide_rewards>  (427) 
0

>  <r_i_glide_evdw>  (427) 
-28.0234

>  <r_i_glide_ecoul>  (427) 
-2.97865

>  <r_i_glide_erotb>  (427) 
0

>  <r_i_glide_esite>  (427) 
-0.0852198

>  <r_i_glide_emodel>  (427) 
-36.4805

>  <r_i_glide_energy>  (427) 
-31.002

>  <r_i_glide_einternal>  (427) 
0.44148

>  <r_i_glide_intrahb_reward>  (427) 
-0

>  <i_i_glide_confnum>  (427) 
2

>  <i_i_glide_posenum>  (427) 
16

>  <r_i_glide_eff_state_penalty>  (427) 
0

>  <ligand_id>  (427) 
113

>  <original_smiles>  (427) 
CC1CC(=O)C(=O)C2C1C(O)CC13C2CC2OC2C1(O)C1C2C3C1(O)CCC1(O)C(C)(C)C(=O)C=CC21C

>  <smiles>  (427) 
[H]OC1([H])C([H])([H])C23C([H])(C([H])([H])C4([H])OC4([H])C2(O[H])C2([H])C4([H])C3([H])C2(O[H])C([H])([H])C([H])([H])C2(O[H])C(C([H])([H])[H])(C([H])([H])[H])C(=O)C([H])=C([H])C42C([H])([H])[H])C2([H])C(=O)C(=O)C([H])([H])C([H])(C([H])([H])[H])C12[H]

$$$$
114:0:0
     RDKit          3D

 26 31  0  0  1  0  0  0  0  0999 V2000
    1.9254   -3.4585   -1.6882 C   0  0  0  0  0  0  0  0  0  0  0  0
    2.6321   -2.5769   -2.8421 C   0  0  2  0  0  0  0  0  0  0  0  0
    3.7749   -3.2689   -3.7473 C   0  0  0  0  0  0  0  0  0  0  0  0
    5.2403   -3.0748   -2.9629 C   0  0  2  0  0  0  0  0  0  0  0  0
    5.6072   -2.3011   -1.3098 C   0  0  1  0  0  0  0  0  0  0  0  0
    4.4430   -2.4153   -0.0168 C   0  0  1  0  0  0  0  0  0  0  0  0
    2.8301   -3.3083   -0.2899 C   0  0  1  0  0  0  0  0  0  0  0  0
    3.8979   -3.7797   -0.7233 C   0  0  2  0  0  0  0  0  0  0  0  0
    4.9466   -3.6857   -1.9126 C   0  0  1  0  0  0  0  0  0  0  0  0
    4.8393   -1.8632   -2.2037 C   0  0  1  0  0  0  0  0  0  0  0  0
    3.4203   -1.4921   -2.0314 C   0  0  2  0  0  0  0  0  0  0  0  0
    3.4332   -1.9960   -0.6325 C   0  0  2  0  0  0  0  0  0  0  0  0
    1.7908   -4.4995   -1.9749 H   0  0  0  0  0  0  0  0  0  0  0  0
    0.9224   -3.0683   -1.5273 H   0  0  0  0  0  0  0  0  0  0  0  0
    1.8706   -2.1352   -3.4859 H   0  0  0  0  0  0  0  0  0  0  0  0
    3.5400   -4.3150   -3.9387 H   0  0  0  0  0  0  0  0  0  0  0  0
    3.8082   -2.7706   -4.7198 H   0  0  0  0  0  0  0  0  0  0  0  0
    6.1099   -3.5033   -3.4773 H   0  0  0  0  0  0  0  0  0  0  0  0
    6.5053   -1.6998   -1.1682 H   0  0  0  0  0  0  0  0  0  0  0  0
    4.6300   -1.8710    0.9118 H   0  0  0  0  0  0  0  0  0  0  0  0
    2.4437   -3.8407    0.5888 H   0  0  0  0  0  0  0  0  0  0  0  0
    4.2118   -4.5237    0.0485 H   0  0  0  0  0  0  0  0  0  0  0  0
    5.8115   -4.3652   -1.7291 H   0  0  0  0  0  0  0  0  0  0  0  0
    5.4358   -1.0468   -2.7091 H   0  0  0  0  0  0  0  0  0  0  0  0
    3.1832   -0.4396   -2.2020 H   0  0  0  0  0  0  0  0  0  0  0  0
    2.9491   -1.2919    0.1095 H   0  0  0  0  0  0  0  0  0  0  0  0
  1  7  1  0
  1  2  1  0
  1 13  1  0
  1 14  1  0
  2 11  1  0
  2  3  1  0
  2 15  1  6
  3  4  1  0
  3 16  1  0
  3 17  1  0
  4  9  1  0
  4  5  1  0
  4 18  1  6
  5 10  1  0
  5  6  1  0
  5 19  1  1
  6 12  1  0
  6  7  1  0
  6 20  1  1
  7  8  1  0
  7 21  1  1
  8 12  1  0
  8  9  1  0
  8 22  1  1
  9 10  1  0
  9 23  1  1
 10 11  1  0
 10 24  1  6
 11 12  1  0
 11 25  1  1
 12 26  1  1
M  END
>  <i_m_ct_stereo_status>  (428) 
1

>  <s_m_source_file>  (428) 
/var/tmp/pbs.5076255.sched01/tmpg0s73j8k/135j_ekwz2c.sdf

>  <i_m_source_file_index>  (428) 
43

>  <i_lp_mmshare_version>  (428) 
48012

>  <i_f3d_flags>  (428) 
0

>  <s_epik_input>  (428) 
W0NAQEhdMTJbQ0BIXTNbQ0BASF0oW0NIMl00KVtDQEhdMVtDQEhdNVtDQEBIXShbQ0gyXTYpW0NASF0zW0NAQEhdNVtDQEhdMltDQEhdNDY=

>  <s_epik_cmdline>  (428) 
J2VwaWtfcHl0aG9uJywgJy1waHQnLCAnMi4wJywgJy1waCcsICc3LjAnLCAnLXRuJywgJzgnLCAnLW1hJywgJzIwMCcsICctaW1hZScsICc8aW5maWxlLm1hZT4nLCAnLW9tYWUnLCAnPG91dGZpbGUubWFlPic=

>  <r_lp_tautomer_probability>  (428) 
1

>  <r_epik_Ionization_Penalty>  (428) 
0

>  <r_epik_Ionization_Penalty_Charging>  (428) 
0

>  <r_epik_Ionization_Penalty_Neutral>  (428) 
0

>  <r_epik_State_Penalty>  (428) 
-0

>  <r_epik_Charging_Adjusted_Penalty>  (428) 
0

>  <i_epik_Tot_Q>  (428) 
0

>  <i_epik_Tot_abs_Q>  (428) 
0

>  <s_lp_Force_Field>  (428) 
OPLS3e

>  <r_lp_Energy>  (428) 
742.086

>  <b_lp_Chiralities_Consistent>  (428) 
1

>  <s_lp_Variant>  (428) 
114:0-1

>  <s_i_glide_gridfile>  (428) 
pfpi4k_grid

>  <i_i_glide_lignum>  (428) 
43

>  <i_i_glide_rotatable_bonds>  (428) 
0

>  <r_i_docking_score>  (428) 
-3.37687

>  <r_i_glide_ligand_efficiency>  (428) 
-0.281406

>  <r_i_glide_ligand_efficiency_sa>  (428) 
-0.644258

>  <r_i_glide_ligand_efficiency_ln>  (428) 
-0.968999

>  <r_i_glide_gscore>  (428) 
-3.37687

>  <r_i_glide_lipo>  (428) 
-0.427009

>  <r_i_glide_hbond>  (428) 
0

>  <r_i_glide_metal>  (428) 
-0

>  <r_i_glide_rewards>  (428) 
-2.25

>  <r_i_glide_evdw>  (428) 
-15.8467

>  <r_i_glide_ecoul>  (428) 
0.616486

>  <r_i_glide_erotb>  (428) 
0

>  <r_i_glide_esite>  (428) 
0

>  <r_i_glide_emodel>  (428) 
-18.363

>  <r_i_glide_energy>  (428) 
-15.2302

>  <r_i_glide_einternal>  (428) 
0

>  <r_i_glide_intrahb_reward>  (428) 
-0

>  <i_i_glide_confnum>  (428) 
1

>  <i_i_glide_posenum>  (428) 
2

>  <r_i_glide_eff_state_penalty>  (428) 
0

>  <ligand_id>  (428) 
114

>  <original_smiles>  (428) 
C1C2CC3C4C5C1C1C3C4C2C51

>  <smiles>  (428) 
[H]C1([H])C2([H])C([H])([H])C3([H])C4([H])C5([H])C1([H])C1([H])C3([H])C4([H])C2([H])C51[H]

$$$$
114:0:1
     RDKit          3D

 26 31  0  0  1  0  0  0  0  0999 V2000
    4.5956   -1.5085   -1.7539 C   0  0  0  0  0  0  0  0  0  0  0  0
    4.5921   -0.9892   -0.2202 C   0  0  2  0  0  0  0  0  0  0  0  0
    5.9307   -1.2402    0.6563 C   0  0  0  0  0  0  0  0  0  0  0  0
    5.7912   -2.7400    1.3808 C   0  0  2  0  0  0  0  0  0  0  0  0
    4.4629   -4.0287    1.1917 C   0  0  1  0  0  0  0  0  0  0  0  0
    3.6224   -4.2000   -0.3212 C   0  0  1  0  0  0  0  0  0  0  0  0
    4.0558   -3.0895   -1.7588 C   0  0  1  0  0  0  0  0  0  0  0  0
    4.9553   -3.5789   -1.0424 C   0  0  2  0  0  0  0  0  0  0  0  0
    5.7206   -3.4220    0.3353 C   0  0  1  0  0  0  0  0  0  0  0  0
    4.3104   -2.7891    1.3524 C   0  0  1  0  0  0  0  0  0  0  0  0
    3.5194   -1.8972    0.4730 C   0  0  2  0  0  0  0  0  0  0  0  0
    3.2912   -2.9972   -0.4921 C   0  0  2  0  0  0  0  0  0  0  0  0
    5.5871   -1.4219   -2.1970 H   0  0  0  0  0  0  0  0  0  0  0  0
    3.9229   -0.8936   -2.3539 H   0  0  0  0  0  0  0  0  0  0  0  0
    4.3187    0.0689   -0.1840 H   0  0  0  0  0  0  0  0  0  0  0  0
    6.8258   -1.1740    0.0398 H   0  0  0  0  0  0  0  0  0  0  0  0
    6.0196   -0.4714    1.4247 H   0  0  0  0  0  0  0  0  0  0  0  0
    6.6257   -3.0310    2.0301 H   0  0  0  0  0  0  0  0  0  0  0  0
    4.1288   -4.6153    2.0516 H   0  0  0  0  0  0  0  0  0  0  0  0
    2.7791   -4.8888   -0.3848 H   0  0  0  0  0  0  0  0  0  0  0  0
    3.9879   -3.5653   -2.7469 H   0  0  0  0  0  0  0  0  0  0  0  0
    5.2926   -4.4914   -1.5932 H   0  0  0  0  0  0  0  0  0  0  0  0
    6.4488   -4.2543    0.4903 H   0  0  0  0  0  0  0  0  0  0  0  0
    4.0442   -2.6953    2.4522 H   0  0  0  0  0  0  0  0  0  0  0  0
    2.6308   -1.4300    0.9059 H   0  0  0  0  0  0  0  0  0  0  0  0
    2.2163   -3.0658   -0.8537 H   0  0  0  0  0  0  0  0  0  0  0  0
  1  7  1  0
  1  2  1  0
  1 13  1  0
  1 14  1  0
  2 11  1  0
  2  3  1  0
  2 15  1  6
  3  4  1  0
  3 16  1  0
  3 17  1  0
  4  9  1  0
  4  5  1  0
  4 18  1  1
  5 10  1  0
  5  6  1  0
  5 19  1  1
  6 12  1  0
  6  7  1  0
  6 20  1  6
  7  8  1  0
  7 21  1  6
  8 12  1  0
  8  9  1  0
  8 22  1  6
  9 10  1  0
  9 23  1  1
 10 11  1  0
 10 24  1  1
 11 12  1  0
 11 25  1  1
 12 26  1  6
M  END
>  <i_m_ct_stereo_status>  (429) 
1

>  <s_m_source_file>  (429) 
/var/tmp/pbs.5076255.sched01/tmpg0s73j8k/135j_ekwz2c.sdf

>  <i_m_source_file_index>  (429) 
43

>  <i_lp_mmshare_version>  (429) 
48012

>  <i_f3d_flags>  (429) 
0

>  <s_epik_input>  (429) 
W0NAQEhdMTJbQ0BIXTNbQ0BASF0oW0NIMl00KVtDQEhdMVtDQEhdNVtDQEBIXShbQ0gyXTYpW0NASF0zW0NAQEhdNVtDQEhdMltDQEhdNDY=

>  <s_epik_cmdline>  (429) 
J2VwaWtfcHl0aG9uJywgJy1waHQnLCAnMi4wJywgJy1waCcsICc3LjAnLCAnLXRuJywgJzgnLCAnLW1hJywgJzIwMCcsICctaW1hZScsICc8aW5maWxlLm1hZT4nLCAnLW9tYWUnLCAnPG91dGZpbGUubWFlPic=

>  <r_lp_tautomer_probability>  (429) 
1

>  <r_epik_Ionization_Penalty>  (429) 
0

>  <r_epik_Ionization_Penalty_Charging>  (429) 
0

>  <r_epik_Ionization_Penalty_Neutral>  (429) 
0

>  <r_epik_State_Penalty>  (429) 
-0

>  <r_epik_Charging_Adjusted_Penalty>  (429) 
0

>  <i_epik_Tot_Q>  (429) 
0

>  <i_epik_Tot_abs_Q>  (429) 
0

>  <s_lp_Force_Field>  (429) 
OPLS3e

>  <r_lp_Energy>  (429) 
742.086

>  <b_lp_Chiralities_Consistent>  (429) 
1

>  <s_lp_Variant>  (429) 
114:0-1

>  <s_i_glide_gridfile>  (429) 
pfpi4k_grid

>  <i_i_glide_lignum>  (429) 
43

>  <i_i_glide_rotatable_bonds>  (429) 
0

>  <r_i_docking_score>  (429) 
-3.3704

>  <r_i_glide_ligand_efficiency>  (429) 
-0.280867

>  <r_i_glide_ligand_efficiency_sa>  (429) 
-0.643024

>  <r_i_glide_ligand_efficiency_ln>  (429) 
-0.967142

>  <r_i_glide_gscore>  (429) 
-3.3704

>  <r_i_glide_lipo>  (429) 
-0.341881

>  <r_i_glide_hbond>  (429) 
0

>  <r_i_glide_metal>  (429) 
-0

>  <r_i_glide_rewards>  (429) 
-2.25

>  <r_i_glide_evdw>  (429) 
-15.5127

>  <r_i_glide_ecoul>  (429) 
-0.0192454

>  <r_i_glide_erotb>  (429) 
0

>  <r_i_glide_esite>  (429) 
0

>  <r_i_glide_emodel>  (429) 
-18.6796

>  <r_i_glide_energy>  (429) 
-15.5319

>  <r_i_glide_einternal>  (429) 
0

>  <r_i_glide_intrahb_reward>  (429) 
-0

>  <i_i_glide_confnum>  (429) 
1

>  <i_i_glide_posenum>  (429) 
31

>  <r_i_glide_eff_state_penalty>  (429) 
0

>  <ligand_id>  (429) 
114

>  <original_smiles>  (429) 
C1C2CC3C4C5C1C1C3C4C2C51

>  <smiles>  (429) 
[H]C1([H])C2([H])C([H])([H])C3([H])C4([H])C5([H])C1([H])C1([H])C3([H])C4([H])C2([H])C51[H]

$$$$
114:0:2
     RDKit          3D

 26 31  0  0  1  0  0  0  0  0999 V2000
    4.0071   -1.9797    0.3586 C   0  0  0  0  0  0  0  0  0  0  0  0
    3.4848   -3.3117   -0.3975 C   0  0  2  0  0  0  0  0  0  0  0  0
    4.6150   -4.3546   -0.8847 C   0  0  0  0  0  0  0  0  0  0  0  0
    5.0752   -3.9280   -2.4314 C   0  0  2  0  0  0  0  0  0  0  0  0
    4.5977   -2.4466   -3.4513 C   0  0  1  0  0  0  0  0  0  0  0  0
    4.2389   -0.9495   -2.6656 C   0  0  1  0  0  0  0  0  0  0  0  0
    4.3217   -0.8276   -0.8084 C   0  0  1  0  0  0  0  0  0  0  0  0
    5.2172   -1.4572   -1.4297 C   0  0  2  0  0  0  0  0  0  0  0  0
    5.5409   -2.8105   -2.1753 C   0  0  1  0  0  0  0  0  0  0  0  0
    3.8462   -3.2081   -2.7900 C   0  0  1  0  0  0  0  0  0  0  0  0
    2.8962   -2.7738   -1.7461 C   0  0  2  0  0  0  0  0  0  0  0  0
    3.4196   -1.4007   -1.8294 C   0  0  2  0  0  0  0  0  0  0  0  0
    4.8919   -2.2002    0.9584 H   0  0  0  0  0  0  0  0  0  0  0  0
    3.2365   -1.6116    1.0365 H   0  0  0  0  0  0  0  0  0  0  0  0
    2.7285   -3.8181    0.2085 H   0  0  0  0  0  0  0  0  0  0  0  0
    5.4602   -4.3825   -0.1962 H   0  0  0  0  0  0  0  0  0  0  0  0
    4.2126   -5.3686   -0.8952 H   0  0  0  0  0  0  0  0  0  0  0  0
    5.7956   -4.5883   -2.9145 H   0  0  0  0  0  0  0  0  0  0  0  0
    4.4232   -2.5385   -4.5239 H   0  0  0  0  0  0  0  0  0  0  0  0
    3.8603   -0.1183   -3.2680 H   0  0  0  0  0  0  0  0  0  0  0  0
    4.6573    0.1407   -0.4157 H   0  0  0  0  0  0  0  0  0  0  0  0
    6.0305   -0.7127   -1.5669 H   0  0  0  0  0  0  0  0  0  0  0  0
    6.5432   -2.7915   -2.6751 H   0  0  0  0  0  0  0  0  0  0  0  0
    3.3712   -3.8668   -3.5830 H   0  0  0  0  0  0  0  0  0  0  0  0
    1.8305   -2.8992   -1.9553 H   0  0  0  0  0  0  0  0  0  0  0  0
    2.6050   -0.6361   -1.9252 H   0  0  0  0  0  0  0  0  0  0  0  0
  1  7  1  0
  1  2  1  0
  1 13  1  0
  1 14  1  0
  2 11  1  0
  2  3  1  0
  2 15  1  1
  3  4  1  0
  3 16  1  0
  3 17  1  0
  4  9  1  0
  4  5  1  0
  4 18  1  6
  5 10  1  0
  5  6  1  0
  5 19  1  6
  6 12  1  0
  6  7  1  0
  6 20  1  6
  7  8  1  0
  7 21  1  1
  8 12  1  0
  8  9  1  0
  8 22  1  6
  9 10  1  0
  9 23  1  6
 10 11  1  0
 10 24  1  6
 11 12  1  0
 11 25  1  6
 12 26  1  1
M  END
>  <i_m_ct_stereo_status>  (430) 
1

>  <s_m_source_file>  (430) 
/var/tmp/pbs.5076255.sched01/tmpg0s73j8k/135j_ekwz2c.sdf

>  <i_m_source_file_index>  (430) 
43

>  <i_lp_mmshare_version>  (430) 
48012

>  <i_f3d_flags>  (430) 
0

>  <s_epik_input>  (430) 
W0NAQEhdMTJbQ0BIXTNbQ0BASF0oW0NIMl00KVtDQEhdMVtDQEhdNVtDQEBIXShbQ0gyXTYpW0NASF0zW0NAQEhdNVtDQEhdMltDQEhdNDY=

>  <s_epik_cmdline>  (430) 
J2VwaWtfcHl0aG9uJywgJy1waHQnLCAnMi4wJywgJy1waCcsICc3LjAnLCAnLXRuJywgJzgnLCAnLW1hJywgJzIwMCcsICctaW1hZScsICc8aW5maWxlLm1hZT4nLCAnLW9tYWUnLCAnPG91dGZpbGUubWFlPic=

>  <r_lp_tautomer_probability>  (430) 
1

>  <r_epik_Ionization_Penalty>  (430) 
0

>  <r_epik_Ionization_Penalty_Charging>  (430) 
0

>  <r_epik_Ionization_Penalty_Neutral>  (430) 
0

>  <r_epik_State_Penalty>  (430) 
-0

>  <r_epik_Charging_Adjusted_Penalty>  (430) 
0

>  <i_epik_Tot_Q>  (430) 
0

>  <i_epik_Tot_abs_Q>  (430) 
0

>  <s_lp_Force_Field>  (430) 
OPLS3e

>  <r_lp_Energy>  (430) 
742.086

>  <b_lp_Chiralities_Consistent>  (430) 
1

>  <s_lp_Variant>  (430) 
114:0-1

>  <s_i_glide_gridfile>  (430) 
pfpi4k_grid

>  <i_i_glide_lignum>  (430) 
43

>  <i_i_glide_rotatable_bonds>  (430) 
0

>  <r_i_docking_score>  (430) 
-3.15412

>  <r_i_glide_ligand_efficiency>  (430) 
-0.262844

>  <r_i_glide_ligand_efficiency_sa>  (430) 
-0.601762

>  <r_i_glide_ligand_efficiency_ln>  (430) 
-0.905082

>  <r_i_glide_gscore>  (430) 
-3.15412

>  <r_i_glide_lipo>  (430) 
-0.21991

>  <r_i_glide_hbond>  (430) 
0

>  <r_i_glide_metal>  (430) 
-0

>  <r_i_glide_rewards>  (430) 
-2.25

>  <r_i_glide_evdw>  (430) 
-13.5192

>  <r_i_glide_ecoul>  (430) 
-0.0550458

>  <r_i_glide_erotb>  (430) 
0

>  <r_i_glide_esite>  (430) 
0

>  <r_i_glide_emodel>  (430) 
-16.4832

>  <r_i_glide_energy>  (430) 
-13.5742

>  <r_i_glide_einternal>  (430) 
0

>  <r_i_glide_intrahb_reward>  (430) 
-0

>  <i_i_glide_confnum>  (430) 
2

>  <i_i_glide_posenum>  (430) 
1

>  <r_i_glide_eff_state_penalty>  (430) 
0

>  <ligand_id>  (430) 
114

>  <original_smiles>  (430) 
C1C2CC3C4C5C1C1C3C4C2C51

>  <smiles>  (430) 
[H]C1([H])C2([H])C([H])([H])C3([H])C4([H])C5([H])C1([H])C1([H])C3([H])C4([H])C2([H])C51[H]

$$$$
