0:0:0
     RDKit          3D

 70 74  0  0  1  0  0  0  0  0999 V2000
   -1.4077   -7.1871    4.4746 C   0  0  0  0  0  0  0  0  0  0  0  0
   -0.7486   -7.9801    3.6051 C   0  0  0  0  0  0  0  0  0  0  0  0
   -1.5016   -8.7777    2.5563 C   0  0  0  0  0  0  0  0  0  0  0  0
    0.7685   -8.1776    3.6009 C   0  0  2  0  0  0  0  0  0  0  0  0
    1.5688   -7.5813    4.7613 C   0  0  0  0  0  0  0  0  0  0  0  0
    3.0242   -7.5306    4.2684 C   0  0  0  0  0  0  0  0  0  0  0  0
    3.0371   -7.8243    2.7416 C   0  0  1  0  0  0  0  0  0  0  0  0
    3.4321   -9.3214    2.5545 C   0  0  0  0  0  0  0  0  0  0  0  0
    1.5379   -7.7030    2.3388 C   0  0  2  0  0  0  0  0  0  0  0  0
    1.1507   -6.2905    1.8566 C   0  0  0  0  0  0  0  0  0  0  0  0
    2.1471   -5.1800    2.2271 C   0  0  0  0  0  0  0  0  0  0  0  0
    3.5972   -5.3635    1.6855 C   0  0  2  0  0  0  0  0  0  0  0  0
    3.4615   -5.1582    0.1615 C   0  0  0  0  0  0  0  0  0  0  0  0
    4.0130   -6.9017    1.8851 C   0  0  1  0  0  0  0  0  0  0  0  0
    5.5027   -7.2649    2.1708 C   0  0  0  0  0  0  0  0  0  0  0  0
    6.6311   -6.5695    1.4449 C   0  0  0  0  0  0  0  0  0  0  0  0
    6.8626   -5.2629    1.2784 C   0  0  0  0  0  0  0  0  0  0  0  0
    8.1193   -4.7112    0.6263 C   0  0  0  0  0  0  0  0  0  0  0  0
    7.8500   -3.2045    0.4307 C   0  0  0  0  0  0  0  0  0  0  0  0
    6.3129   -3.0559    0.4884 C   0  0  2  0  0  0  0  0  0  0  0  0
    5.8306   -3.3826   -0.9516 C   0  0  0  0  0  0  0  0  0  0  0  0
    5.7951   -1.6752    0.9268 C   0  0  1  0  0  0  0  0  0  0  0  0
    6.0482   -0.6939   -0.0586 O   0  0  0  0  0  0  0  0  0  0  0  0
    4.2886   -1.7650    1.2079 C   0  0  0  0  0  0  0  0  0  0  0  0
    3.9854   -2.7499    2.3532 C   0  0  0  0  0  0  0  0  0  0  0  0
    4.5756   -4.2243    2.2971 C   0  0  1  0  0  0  0  0  0  0  0  0
    4.8015   -4.4998    3.8179 C   0  0  0  0  0  0  0  0  0  0  0  0
    5.9988   -4.0821    1.6266 C   0  0  1  0  0  0  0  0  0  0  0  0
   -2.4804   -7.0915    4.4272 H   0  0  0  0  0  0  0  0  0  0  0  0
   -0.9022   -6.6273    5.2442 H   0  0  0  0  0  0  0  0  0  0  0  0
   -1.2813   -9.8415    2.6624 H   0  0  0  0  0  0  0  0  0  0  0  0
   -1.2125   -8.4704    1.5514 H   0  0  0  0  0  0  0  0  0  0  0  0
   -2.5802   -8.6575    2.6556 H   0  0  0  0  0  0  0  0  0  0  0  0
    0.8759   -9.2586    3.6829 H   0  0  0  0  0  0  0  0  0  0  0  0
    1.2447   -6.5632    4.9785 H   0  0  0  0  0  0  0  0  0  0  0  0
    1.4603   -8.1676    5.6760 H   0  0  0  0  0  0  0  0  0  0  0  0
    3.4150   -6.5510    4.5017 H   0  0  0  0  0  0  0  0  0  0  0  0
    3.6478   -8.2328    4.8233 H   0  0  0  0  0  0  0  0  0  0  0  0
    3.5247   -9.5883    1.5012 H   0  0  0  0  0  0  0  0  0  0  0  0
    2.7162  -10.0178    2.9863 H   0  0  0  0  0  0  0  0  0  0  0  0
    4.3772   -9.5607    3.0427 H   0  0  0  0  0  0  0  0  0  0  0  0
    1.3122   -8.3894    1.5219 H   0  0  0  0  0  0  0  0  0  0  0  0
    0.9959   -6.3289    0.7796 H   0  0  0  0  0  0  0  0  0  0  0  0
    0.1800   -6.0034    2.2478 H   0  0  0  0  0  0  0  0  0  0  0  0
    1.7330   -4.2595    1.8278 H   0  0  0  0  0  0  0  0  0  0  0  0
    2.1245   -5.0532    3.3072 H   0  0  0  0  0  0  0  0  0  0  0  0
    4.3885   -5.4036   -0.3440 H   0  0  0  0  0  0  0  0  0  0  0  0
    3.1406   -4.1508   -0.0916 H   0  0  0  0  0  0  0  0  0  0  0  0
    2.7364   -5.8244   -0.3016 H   0  0  0  0  0  0  0  0  0  0  0  0
    3.8789   -7.3410    0.8962 H   0  0  0  0  0  0  0  0  0  0  0  0
    5.7297   -7.3002    3.2331 H   0  0  0  0  0  0  0  0  0  0  0  0
    5.6529   -8.2902    1.8388 H   0  0  0  0  0  0  0  0  0  0  0  0
    7.4120   -7.2370    1.1099 H   0  0  0  0  0  0  0  0  0  0  0  0
    8.9948   -4.8743    1.2610 H   0  0  0  0  0  0  0  0  0  0  0  0
    8.2878   -5.2148   -0.3201 H   0  0  0  0  0  0  0  0  0  0  0  0
    8.3002   -2.6638    1.2555 H   0  0  0  0  0  0  0  0  0  0  0  0
    8.3062   -2.8042   -0.4755 H   0  0  0  0  0  0  0  0  0  0  0  0
    4.7713   -3.2207   -1.1213 H   0  0  0  0  0  0  0  0  0  0  0  0
    6.0617   -4.4068   -1.2189 H   0  0  0  0  0  0  0  0  0  0  0  0
    6.3419   -2.7557   -1.6840 H   0  0  0  0  0  0  0  0  0  0  0  0
    6.3002   -1.3629    1.8437 H   0  0  0  0  0  0  0  0  0  0  0  0
    5.5614    0.0885    0.1562 H   0  0  0  0  0  0  0  0  0  0  0  0
    3.9273   -0.7811    1.5054 H   0  0  0  0  0  0  0  0  0  0  0  0
    3.7143   -2.0072    0.3172 H   0  0  0  0  0  0  0  0  0  0  0  0
    4.4091   -2.2358    3.2191 H   0  0  0  0  0  0  0  0  0  0  0  0
    2.9237   -2.7251    2.5680 H   0  0  0  0  0  0  0  0  0  0  0  0
    5.4679   -3.7672    4.2783 H   0  0  0  0  0  0  0  0  0  0  0  0
    5.2619   -5.4560    4.0340 H   0  0  0  0  0  0  0  0  0  0  0  0
    3.8762   -4.4233    4.3891 H   0  0  0  0  0  0  0  0  0  0  0  0
    6.5729   -3.6684    2.4538 H   0  0  0  0  0  0  0  0  0  0  0  0
  1  2  2  0
  1 29  1  0
  1 30  1  0
  2  3  1  0
  2  4  1  0
  3 31  1  0
  3 32  1  0
  3 33  1  0
  4  9  1  0
  4  5  1  0
  4 34  1  1
  5  6  1  0
  5 35  1  0
  5 36  1  0
  6  7  1  0
  6 37  1  0
  6 38  1  0
  7 14  1  0
  7  8  1  1
  7  9  1  0
  8 39  1  0
  8 40  1  0
  8 41  1  0
  9 10  1  0
  9 42  1  6
 10 11  1  0
 10 43  1  0
 10 44  1  0
 11 12  1  0
 11 45  1  0
 11 46  1  0
 12 26  1  0
 12 13  1  6
 12 14  1  0
 13 47  1  0
 13 48  1  0
 13 49  1  0
 14 15  1  0
 14 50  1  6
 15 16  1  0
 15 51  1  0
 15 52  1  0
 16 17  2  0
 16 53  1  0
 17 28  1  0
 17 18  1  0
 18 19  1  0
 18 54  1  0
 18 55  1  0
 19 20  1  0
 19 56  1  0
 19 57  1  0
 20 28  1  0
 20 21  1  6
 20 22  1  0
 21 58  1  0
 21 59  1  0
 21 60  1  0
 22 23  1  0
 22 24  1  0
 22 61  1  1
 23 62  1  0
 24 25  1  0
 24 63  1  0
 24 64  1  0
 25 26  1  0
 25 65  1  0
 25 66  1  0
 26 27  1  1
 26 28  1  0
 27 67  1  0
 27 68  1  0
 27 69  1  0
 28 70  1  1
M  END
>  <i_m_ct_stereo_status>  (1) 
1

>  <s_m_source_file>  (1) 
/var/tmp/pbs.5076255.sched01/tmp361wbqj1/0nt8_y6ui.sdf

>  <i_m_source_file_index>  (1) 
1

>  <i_lp_mmshare_version>  (1) 
48012

>  <i_f3d_flags>  (1) 
0

>  <s_epik_input>  (1) 
W0NIMl09QyhbQ0gzXSlbQ0BIXShbQ0gyXVtDSDJdMSlbQ0BIXShbQ0BdMTJbQ0gzXSlbQ0gyXVtDSDJdW0NAXTMoW0NIM10pW0NASF0yW0NIMl1bQ0hdPUM0W0NASF01W0NAXShbQ0gzXSkoW0NIMl1bQ0gyXTQpW0NAQEhdKFtPSF0pW0NIMl1bQ0gyXVtDQEBdMzVbQ0gzXQ==

>  <s_epik_cmdline>  (1) 
J2VwaWtfcHl0aG9uJywgJy1waHQnLCAnMi4wJywgJy1waCcsICc3LjAnLCAnLXRuJywgJzgnLCAnLW1hJywgJzIwMCcsICctaW1hZScsICc8aW5maWxlLm1hZT4nLCAnLW9tYWUnLCAnPG91dGZpbGUubWFlPic=

>  <r_lp_tautomer_probability>  (1) 
1

>  <r_epik_Ionization_Penalty>  (1) 
2.17184e-06

>  <r_epik_Ionization_Penalty_Charging>  (1) 
0

>  <r_epik_Ionization_Penalty_Neutral>  (1) 
2.17184e-06

>  <r_epik_State_Penalty>  (1) 
-0

>  <r_epik_Charging_Adjusted_Penalty>  (1) 
0

>  <i_epik_Tot_Q>  (1) 
0

>  <i_epik_Tot_abs_Q>  (1) 
0

>  <s_lp_Force_Field>  (1) 
OPLS3e

>  <r_lp_Energy>  (1) 
94.9902

>  <b_lp_Chiralities_Consistent>  (1) 
1

>  <s_lp_Variant>  (1) 
0:0-1

>  <s_i_glide_gridfile>  (1) 
pfpi4k_grid

>  <i_i_glide_lignum>  (1) 
1

>  <i_i_glide_rotatable_bonds>  (1) 
2

>  <r_i_docking_score>  (1) 
-3.50523

>  <r_i_glide_ligand_efficiency>  (1) 
-0.125187

>  <r_i_glide_ligand_efficiency_sa>  (1) 
-0.380141

>  <r_i_glide_ligand_efficiency_ln>  (1) 
-0.809111

>  <r_i_glide_gscore>  (1) 
-3.50523

>  <r_i_glide_lipo>  (1) 
-1.11902

>  <r_i_glide_hbond>  (1) 
-0.0709373

>  <r_i_glide_metal>  (1) 
-0

>  <r_i_glide_rewards>  (1) 
-0.800306

>  <r_i_glide_evdw>  (1) 
-27.6755

>  <r_i_glide_ecoul>  (1) 
-1.75912

>  <r_i_glide_erotb>  (1) 
0.132675

>  <r_i_glide_esite>  (1) 
0

>  <r_i_glide_emodel>  (1) 
-36.1407

>  <r_i_glide_energy>  (1) 
-29.4346

>  <r_i_glide_einternal>  (1) 
0.672054

>  <r_i_glide_intrahb_reward>  (1) 
-0

>  <i_i_glide_confnum>  (1) 
3

>  <i_i_glide_posenum>  (1) 
20

>  <r_i_glide_eff_state_penalty>  (1) 
0

>  <ligand_id>  (1) 
0

>  <original_smiles>  (1) 
C=C(C)C1CCC2(C)C1CCC1(C)C2CC=C2CCC3(C)C(O)CCC1(C)C23

>  <smiles>  (1) 
[H]OC1([H])C([H])([H])C([H])([H])C2(C([H])([H])[H])C3([H])C(=C([H])C([H])([H])C4([H])C5(C([H])([H])[H])C([H])([H])C([H])([H])C([H])(C(=C([H])[H])C([H])([H])[H])C5([H])C([H])([H])C([H])([H])C42C([H])([H])[H])C([H])([H])C([H])([H])C13C([H])([H])[H]

$$$$
0:0:1
     RDKit          3D

 70 74  0  0  1  0  0  0  0  0999 V2000
   -1.1610   -9.2211    3.2610 C   0  0  0  0  0  0  0  0  0  0  0  0
   -0.3804   -8.2570    3.7757 C   0  0  0  0  0  0  0  0  0  0  0  0
   -0.9892   -7.0446    4.4617 C   0  0  0  0  0  0  0  0  0  0  0  0
    1.1472   -8.3664    3.7225 C   0  0  2  0  0  0  0  0  0  0  0  0
    1.9282   -7.6920    4.8534 C   0  0  0  0  0  0  0  0  0  0  0  0
    3.3636   -7.5446    4.3282 C   0  0  0  0  0  0  0  0  0  0  0  0
    3.3704   -7.8965    2.8114 C   0  0  1  0  0  0  0  0  0  0  0  0
    3.8811   -9.3652    2.6858 C   0  0  0  0  0  0  0  0  0  0  0  0
    1.8589   -7.9044    2.4235 C   0  0  2  0  0  0  0  0  0  0  0  0
    1.3646   -6.5579    1.8577 C   0  0  0  0  0  0  0  0  0  0  0  0
    2.2656   -5.3573    2.1935 C   0  0  0  0  0  0  0  0  0  0  0  0
    3.7241   -5.4452    1.6456 C   0  0  2  0  0  0  0  0  0  0  0  0
    3.5564   -5.3166    0.1186 C   0  0  0  0  0  0  0  0  0  0  0  0
    4.2631   -6.9363    1.9052 C   0  0  1  0  0  0  0  0  0  0  0  0
    5.7821   -7.1702    2.1796 C   0  0  0  0  0  0  0  0  0  0  0  0
    6.8371   -6.4258    1.3982 C   0  0  0  0  0  0  0  0  0  0  0  0
    6.9626   -5.1105    1.1661 C   0  0  0  0  0  0  0  0  0  0  0  0
    8.1621   -4.4855    0.4826 C   0  0  0  0  0  0  0  0  0  0  0  0
    7.7726   -3.0154    0.2086 C   0  0  0  0  0  0  0  0  0  0  0  0
    6.2324   -2.9873    0.2958 C   0  0  2  0  0  0  0  0  0  0  0  0
    5.7444   -3.4092   -1.1147 C   0  0  0  0  0  0  0  0  0  0  0  0
    5.6202   -1.6304    0.6898 C   0  0  1  0  0  0  0  0  0  0  0  0
    5.8152   -0.6606   -0.3233 O   0  0  0  0  0  0  0  0  0  0  0  0
    4.1274   -1.8273    1.0004 C   0  0  0  0  0  0  0  0  0  0  0  0
    3.9168   -2.7822    2.1910 C   0  0  0  0  0  0  0  0  0  0  0  0
    4.6225   -4.2082    2.1896 C   0  0  1  0  0  0  0  0  0  0  0  0
    4.8907   -4.3998    3.7184 C   0  0  0  0  0  0  0  0  0  0  0  0
    6.0166   -3.9834    1.4838 C   0  0  1  0  0  0  0  0  0  0  0  0
   -2.2369   -9.1570    3.3097 H   0  0  0  0  0  0  0  0  0  0  0  0
   -0.7409  -10.0999    2.7915 H   0  0  0  0  0  0  0  0  0  0  0  0
   -0.6302   -6.1016    4.0506 H   0  0  0  0  0  0  0  0  0  0  0  0
   -0.7414   -7.0663    5.5200 H   0  0  0  0  0  0  0  0  0  0  0  0
   -2.0759   -7.0587    4.3842 H   0  0  0  0  0  0  0  0  0  0  0  0
    1.3251   -9.4368    3.8260 H   0  0  0  0  0  0  0  0  0  0  0  0
    1.5338   -6.6953    5.0434 H   0  0  0  0  0  0  0  0  0  0  0  0
    1.8743   -8.2525    5.7901 H   0  0  0  0  0  0  0  0  0  0  0  0
    3.6741   -6.5256    4.5144 H   0  0  0  0  0  0  0  0  0  0  0  0
    4.0506   -8.1708    4.9010 H   0  0  0  0  0  0  0  0  0  0  0  0
    3.9762   -9.6696    1.6432 H   0  0  0  0  0  0  0  0  0  0  0  0
    3.2279  -10.0927    3.1632 H   0  0  0  0  0  0  0  0  0  0  0  0
    4.8503   -9.5056    3.1670 H   0  0  0  0  0  0  0  0  0  0  0  0
    1.6758   -8.6588    1.6535 H   0  0  0  0  0  0  0  0  0  0  0  0
    1.2492   -6.6721    0.7829 H   0  0  0  0  0  0  0  0  0  0  0  0
    0.3570   -6.3299    2.1874 H   0  0  0  0  0  0  0  0  0  0  0  0
    1.7798   -4.4868    1.7662 H   0  0  0  0  0  0  0  0  0  0  0  0
    2.2419   -5.1968    3.2668 H   0  0  0  0  0  0  0  0  0  0  0  0
    4.4915   -5.5147   -0.3890 H   0  0  0  0  0  0  0  0  0  0  0  0
    3.1504   -4.3501   -0.1653 H   0  0  0  0  0  0  0  0  0  0  0  0
    2.8839   -6.0536   -0.3087 H   0  0  0  0  0  0  0  0  0  0  0  0
    4.1499   -7.4280    0.9390 H   0  0  0  0  0  0  0  0  0  0  0  0
    6.0224   -7.1425    3.2400 H   0  0  0  0  0  0  0  0  0  0  0  0
    6.0024   -8.1942    1.8886 H   0  0  0  0  0  0  0  0  0  0  0  0
    7.6618   -7.0472    1.0807 H   0  0  0  0  0  0  0  0  0  0  0  0
    9.0533   -4.5527    1.1086 H   0  0  0  0  0  0  0  0  0  0  0  0
    8.3822   -5.0112   -0.4425 H   0  0  0  0  0  0  0  0  0  0  0  0
    8.1983   -2.3772    0.9731 H   0  0  0  0  0  0  0  0  0  0  0  0
    8.1742   -2.6426   -0.7318 H   0  0  0  0  0  0  0  0  0  0  0  0
    4.6731   -3.3337   -1.2688 H   0  0  0  0  0  0  0  0  0  0  0  0
    6.0439   -4.4259   -1.3377 H   0  0  0  0  0  0  0  0  0  0  0  0
    6.1986   -2.7804   -1.8830 H   0  0  0  0  0  0  0  0  0  0  0  0
    6.1075   -1.2580    1.5935 H   0  0  0  0  0  0  0  0  0  0  0  0
    5.4075    0.1567   -0.0682 H   0  0  0  0  0  0  0  0  0  0  0  0
    3.6872   -0.8643    1.2570 H   0  0  0  0  0  0  0  0  0  0  0  0
    3.5618   -2.1586    0.1398 H   0  0  0  0  0  0  0  0  0  0  0  0
    4.3070   -2.2001    3.0305 H   0  0  0  0  0  0  0  0  0  0  0  0
    2.8581   -2.8341    2.4216 H   0  0  0  0  0  0  0  0  0  0  0  0
    5.5052   -3.5977    4.1297 H   0  0  0  0  0  0  0  0  0  0  0  0
    5.4265   -5.3093    3.9594 H   0  0  0  0  0  0  0  0  0  0  0  0
    3.9660   -4.3728    4.2960 H   0  0  0  0  0  0  0  0  0  0  0  0
    6.5760   -3.4897    2.2760 H   0  0  0  0  0  0  0  0  0  0  0  0
  1  2  2  0
  1 29  1  0
  1 30  1  0
  2  3  1  0
  2  4  1  0
  3 31  1  0
  3 32  1  0
  3 33  1  0
  4  9  1  0
  4  5  1  0
  4 34  1  1
  5  6  1  0
  5 35  1  0
  5 36  1  0
  6  7  1  0
  6 37  1  0
  6 38  1  0
  7 14  1  0
  7  8  1  1
  7  9  1  0
  8 39  1  0
  8 40  1  0
  8 41  1  0
  9 10  1  0
  9 42  1  6
 10 11  1  0
 10 43  1  0
 10 44  1  0
 11 12  1  0
 11 45  1  0
 11 46  1  0
 12 26  1  0
 12 13  1  6
 12 14  1  0
 13 47  1  0
 13 48  1  0
 13 49  1  0
 14 15  1  0
 14 50  1  6
 15 16  1  0
 15 51  1  0
 15 52  1  0
 16 17  2  0
 16 53  1  0
 17 28  1  0
 17 18  1  0
 18 19  1  0
 18 54  1  0
 18 55  1  0
 19 20  1  0
 19 56  1  0
 19 57  1  0
 20 28  1  0
 20 21  1  6
 20 22  1  0
 21 58  1  0
 21 59  1  0
 21 60  1  0
 22 23  1  0
 22 24  1  0
 22 61  1  1
 23 62  1  0
 24 25  1  0
 24 63  1  0
 24 64  1  0
 25 26  1  0
 25 65  1  0
 25 66  1  0
 26 27  1  1
 26 28  1  0
 27 67  1  0
 27 68  1  0
 27 69  1  0
 28 70  1  1
M  END
>  <i_m_ct_stereo_status>  (2) 
1

>  <s_m_source_file>  (2) 
/var/tmp/pbs.5076255.sched01/tmp361wbqj1/0nt8_y6ui.sdf

>  <i_m_source_file_index>  (2) 
1

>  <i_lp_mmshare_version>  (2) 
48012

>  <i_f3d_flags>  (2) 
0

>  <s_epik_input>  (2) 
W0NIMl09QyhbQ0gzXSlbQ0BIXShbQ0gyXVtDSDJdMSlbQ0BIXShbQ0BdMTJbQ0gzXSlbQ0gyXVtDSDJdW0NAXTMoW0NIM10pW0NASF0yW0NIMl1bQ0hdPUM0W0NASF01W0NAXShbQ0gzXSkoW0NIMl1bQ0gyXTQpW0NAQEhdKFtPSF0pW0NIMl1bQ0gyXVtDQEBdMzVbQ0gzXQ==

>  <s_epik_cmdline>  (2) 
J2VwaWtfcHl0aG9uJywgJy1waHQnLCAnMi4wJywgJy1waCcsICc3LjAnLCAnLXRuJywgJzgnLCAnLW1hJywgJzIwMCcsICctaW1hZScsICc8aW5maWxlLm1hZT4nLCAnLW9tYWUnLCAnPG91dGZpbGUubWFlPic=

>  <r_lp_tautomer_probability>  (2) 
1

>  <r_epik_Ionization_Penalty>  (2) 
2.17184e-06

>  <r_epik_Ionization_Penalty_Charging>  (2) 
0

>  <r_epik_Ionization_Penalty_Neutral>  (2) 
2.17184e-06

>  <r_epik_State_Penalty>  (2) 
-0

>  <r_epik_Charging_Adjusted_Penalty>  (2) 
0

>  <i_epik_Tot_Q>  (2) 
0

>  <i_epik_Tot_abs_Q>  (2) 
0

>  <s_lp_Force_Field>  (2) 
OPLS3e

>  <r_lp_Energy>  (2) 
94.9902

>  <b_lp_Chiralities_Consistent>  (2) 
1

>  <s_lp_Variant>  (2) 
0:0-1

>  <s_i_glide_gridfile>  (2) 
pfpi4k_grid

>  <i_i_glide_lignum>  (2) 
1

>  <i_i_glide_rotatable_bonds>  (2) 
2

>  <r_i_docking_score>  (2) 
-3.50096

>  <r_i_glide_ligand_efficiency>  (2) 
-0.125034

>  <r_i_glide_ligand_efficiency_sa>  (2) 
-0.379677

>  <r_i_glide_ligand_efficiency_ln>  (2) 
-0.808124

>  <r_i_glide_gscore>  (2) 
-3.50096

>  <r_i_glide_lipo>  (2) 
-0.994134

>  <r_i_glide_hbond>  (2) 
-0.144337

>  <r_i_glide_metal>  (2) 
-0

>  <r_i_glide_rewards>  (2) 
-0.800306

>  <r_i_glide_evdw>  (2) 
-27.242

>  <r_i_glide_ecoul>  (2) 
-2.21837

>  <r_i_glide_erotb>  (2) 
0.132675

>  <r_i_glide_esite>  (2) 
0

>  <r_i_glide_emodel>  (2) 
-34.7308

>  <r_i_glide_energy>  (2) 
-29.4604

>  <r_i_glide_einternal>  (2) 
3.42711

>  <r_i_glide_intrahb_reward>  (2) 
-0

>  <i_i_glide_confnum>  (2) 
3

>  <i_i_glide_posenum>  (2) 
1

>  <r_i_glide_eff_state_penalty>  (2) 
0

>  <ligand_id>  (2) 
0

>  <original_smiles>  (2) 
C=C(C)C1CCC2(C)C1CCC1(C)C2CC=C2CCC3(C)C(O)CCC1(C)C23

>  <smiles>  (2) 
[H]OC1([H])C([H])([H])C([H])([H])C2(C([H])([H])[H])C3([H])C(=C([H])C([H])([H])C4([H])C5(C([H])([H])[H])C([H])([H])C([H])([H])C([H])(C(=C([H])[H])C([H])([H])[H])C5([H])C([H])([H])C([H])([H])C42C([H])([H])[H])C([H])([H])C([H])([H])C13C([H])([H])[H]

$$$$
0:0:2
     RDKit          3D

 70 74  0  0  1  0  0  0  0  0999 V2000
    0.3527  -10.2224    2.6966 C   0  0  0  0  0  0  0  0  0  0  0  0
    1.4113  -10.2426    3.5289 C   0  0  0  0  0  0  0  0  0  0  0  0
    1.3135  -10.9614    4.8602 C   0  0  0  0  0  0  0  0  0  0  0  0
    2.7667   -9.6105    3.1960 C   0  0  2  0  0  0  0  0  0  0  0  0
    3.4908   -8.9204    4.3495 C   0  0  0  0  0  0  0  0  0  0  0  0
    4.5617   -8.0267    3.6968 C   0  0  0  0  0  0  0  0  0  0  0  0
    4.2859   -7.9739    2.1717 C   0  0  1  0  0  0  0  0  0  0  0  0
    5.2521   -8.9874    1.4886 C   0  0  0  0  0  0  0  0  0  0  0  0
    2.8454   -8.5610    2.0478 C   0  0  2  0  0  0  0  0  0  0  0  0
    1.7559   -7.4650    2.0777 C   0  0  0  0  0  0  0  0  0  0  0  0
    2.1914   -6.1139    2.6181 C   0  0  0  0  0  0  0  0  0  0  0  0
    3.3431   -5.4317    1.8388 C   0  0  2  0  0  0  0  0  0  0  0  0
    2.7096   -5.0478    0.4880 C   0  0  0  0  0  0  0  0  0  0  0  0
    4.4547   -6.5426    1.5026 C   0  0  1  0  0  0  0  0  0  0  0  0
    5.9527   -6.1235    1.4498 C   0  0  0  0  0  0  0  0  0  0  0  0
    6.3779   -4.8280    0.7979 C   0  0  0  0  0  0  0  0  0  0  0  0
    5.9349   -3.5758    1.0114 C   0  0  0  0  0  0  0  0  0  0  0  0
    6.5452   -2.3423    0.3630 C   0  0  0  0  0  0  0  0  0  0  0  0
    5.5860   -1.1844    0.7097 C   0  0  0  0  0  0  0  0  0  0  0  0
    4.2443   -1.8750    1.0192 C   0  0  2  0  0  0  0  0  0  0  0  0
    3.6006   -2.1366   -0.3720 C   0  0  0  0  0  0  0  0  0  0  0  0
    3.2853   -1.0760    1.9238 C   0  0  1  0  0  0  0  0  0  0  0  0
    2.7480    0.0623    1.2780 O   0  0  0  0  0  0  0  0  0  0  0  0
    2.1438   -1.9776    2.3888 C   0  0  0  0  0  0  0  0  0  0  0  0
    2.6588   -3.1677    3.2138 C   0  0  0  0  0  0  0  0  0  0  0  0
    3.8142   -4.0880    2.6140 C   0  0  1  0  0  0  0  0  0  0  0  0
    4.5552   -4.4922    3.9266 C   0  0  0  0  0  0  0  0  0  0  0  0
    4.7676   -3.1047    1.8275 C   0  0  1  0  0  0  0  0  0  0  0  0
   -0.5854  -10.6557    2.9853 H   0  0  0  0  0  0  0  0  0  0  0  0
    0.4155   -9.7843    1.7159 H   0  0  0  0  0  0  0  0  0  0  0  0
    1.5542  -10.3034    5.6914 H   0  0  0  0  0  0  0  0  0  0  0  0
    2.0012  -11.8076    4.8766 H   0  0  0  0  0  0  0  0  0  0  0  0
    0.3062  -11.3459    5.0281 H   0  0  0  0  0  0  0  0  0  0  0  0
    3.3694  -10.4765    2.9198 H   0  0  0  0  0  0  0  0  0  0  0  0
    2.7878   -8.3047    4.9183 H   0  0  0  0  0  0  0  0  0  0  0  0
    3.9380   -9.6336    5.0454 H   0  0  0  0  0  0  0  0  0  0  0  0
    4.5171   -7.0518    4.1614 H   0  0  0  0  0  0  0  0  0  0  0  0
    5.5660   -8.3999    3.9141 H   0  0  0  0  0  0  0  0  0  0  0  0
    5.1510   -8.9624    0.4063 H   0  0  0  0  0  0  0  0  0  0  0  0
    5.0871  -10.0210    1.7832 H   0  0  0  0  0  0  0  0  0  0  0  0
    6.2991   -8.7948    1.7301 H   0  0  0  0  0  0  0  0  0  0  0  0
    2.7484   -9.0985    1.1112 H   0  0  0  0  0  0  0  0  0  0  0  0
    1.3157   -7.3881    1.0777 H   0  0  0  0  0  0  0  0  0  0  0  0
    0.9316   -7.7134    2.7315 H   0  0  0  0  0  0  0  0  0  0  0  0
    1.2969   -5.5000    2.5821 H   0  0  0  0  0  0  0  0  0  0  0  0
    2.4156   -6.2297    3.6795 H   0  0  0  0  0  0  0  0  0  0  0  0
    3.4583   -4.6772   -0.2026 H   0  0  0  0  0  0  0  0  0  0  0  0
    1.9099   -4.3201    0.6096 H   0  0  0  0  0  0  0  0  0  0  0  0
    2.2691   -5.8861   -0.0393 H   0  0  0  0  0  0  0  0  0  0  0  0
    4.2652   -6.7880    0.4577 H   0  0  0  0  0  0  0  0  0  0  0  0
    6.4592   -6.2405    2.4067 H   0  0  0  0  0  0  0  0  0  0  0  0
    6.4585   -6.8433    0.8102 H   0  0  0  0  0  0  0  0  0  0  0  0
    7.2360   -4.9287    0.1616 H   0  0  0  0  0  0  0  0  0  0  0  0
    7.5441   -2.1646    0.7532 H   0  0  0  0  0  0  0  0  0  0  0  0
    6.6165   -2.5020   -0.7145 H   0  0  0  0  0  0  0  0  0  0  0  0
    5.9597   -0.6642    1.5950 H   0  0  0  0  0  0  0  0  0  0  0  0
    5.5241   -0.4418   -0.0888 H   0  0  0  0  0  0  0  0  0  0  0  0
    2.5926   -2.5263   -0.3236 H   0  0  0  0  0  0  0  0  0  0  0  0
    4.1938   -2.8071   -0.9935 H   0  0  0  0  0  0  0  0  0  0  0  0
    3.5147   -1.2062   -0.9345 H   0  0  0  0  0  0  0  0  0  0  0  0
    3.8370   -0.7295    2.8011 H   0  0  0  0  0  0  0  0  0  0  0  0
    2.1395   -0.2271    0.6047 H   0  0  0  0  0  0  0  0  0  0  0  0
    1.4787   -1.3981    3.0225 H   0  0  0  0  0  0  0  0  0  0  0  0
    1.5162   -2.3026    1.5603 H   0  0  0  0  0  0  0  0  0  0  0  0
    3.0302   -2.6920    4.1358 H   0  0  0  0  0  0  0  0  0  0  0  0
    1.8191   -3.7403    3.5672 H   0  0  0  0  0  0  0  0  0  0  0  0
    4.9162   -3.6276    4.4921 H   0  0  0  0  0  0  0  0  0  0  0  0
    5.4451   -5.0969    3.7780 H   0  0  0  0  0  0  0  0  0  0  0  0
    3.9050   -5.0148    4.6281 H   0  0  0  0  0  0  0  0  0  0  0  0
    5.3043   -2.6196    2.6423 H   0  0  0  0  0  0  0  0  0  0  0  0
  1  2  2  0
  1 29  1  0
  1 30  1  0
  2  3  1  0
  2  4  1  0
  3 31  1  0
  3 32  1  0
  3 33  1  0
  4  9  1  0
  4  5  1  0
  4 34  1  6
  5  6  1  0
  5 35  1  0
  5 36  1  0
  6  7  1  0
  6 37  1  0
  6 38  1  0
  7 14  1  0
  7  8  1  6
  7  9  1  0
  8 39  1  0
  8 40  1  0
  8 41  1  0
  9 10  1  0
  9 42  1  6
 10 11  1  0
 10 43  1  0
 10 44  1  0
 11 12  1  0
 11 45  1  0
 11 46  1  0
 12 26  1  0
 12 13  1  6
 12 14  1  0
 13 47  1  0
 13 48  1  0
 13 49  1  0
 14 15  1  0
 14 50  1  6
 15 16  1  0
 15 51  1  0
 15 52  1  0
 16 17  2  0
 16 53  1  0
 17 28  1  0
 17 18  1  0
 18 19  1  0
 18 54  1  0
 18 55  1  0
 19 20  1  0
 19 56  1  0
 19 57  1  0
 20 28  1  0
 20 21  1  6
 20 22  1  0
 21 58  1  0
 21 59  1  0
 21 60  1  0
 22 23  1  0
 22 24  1  0
 22 61  1  1
 23 62  1  0
 24 25  1  0
 24 63  1  0
 24 64  1  0
 25 26  1  0
 25 65  1  0
 25 66  1  0
 26 27  1  1
 26 28  1  0
 27 67  1  0
 27 68  1  0
 27 69  1  0
 28 70  1  1
M  END
>  <i_m_ct_stereo_status>  (3) 
1

>  <s_m_source_file>  (3) 
/var/tmp/pbs.5076255.sched01/tmp361wbqj1/0nt8_y6ui.sdf

>  <i_m_source_file_index>  (3) 
1

>  <i_lp_mmshare_version>  (3) 
48012

>  <i_f3d_flags>  (3) 
0

>  <s_epik_input>  (3) 
W0NIMl09QyhbQ0gzXSlbQ0BIXShbQ0gyXVtDSDJdMSlbQ0BIXShbQ0BdMTJbQ0gzXSlbQ0gyXVtDSDJdW0NAXTMoW0NIM10pW0NASF0yW0NIMl1bQ0hdPUM0W0NASF01W0NAXShbQ0gzXSkoW0NIMl1bQ0gyXTQpW0NAQEhdKFtPSF0pW0NIMl1bQ0gyXVtDQEBdMzVbQ0gzXQ==

>  <s_epik_cmdline>  (3) 
J2VwaWtfcHl0aG9uJywgJy1waHQnLCAnMi4wJywgJy1waCcsICc3LjAnLCAnLXRuJywgJzgnLCAnLW1hJywgJzIwMCcsICctaW1hZScsICc8aW5maWxlLm1hZT4nLCAnLW9tYWUnLCAnPG91dGZpbGUubWFlPic=

>  <r_lp_tautomer_probability>  (3) 
1

>  <r_epik_Ionization_Penalty>  (3) 
2.17184e-06

>  <r_epik_Ionization_Penalty_Charging>  (3) 
0

>  <r_epik_Ionization_Penalty_Neutral>  (3) 
2.17184e-06

>  <r_epik_State_Penalty>  (3) 
-0

>  <r_epik_Charging_Adjusted_Penalty>  (3) 
0

>  <i_epik_Tot_Q>  (3) 
0

>  <i_epik_Tot_abs_Q>  (3) 
0

>  <s_lp_Force_Field>  (3) 
OPLS3e

>  <r_lp_Energy>  (3) 
94.9902

>  <b_lp_Chiralities_Consistent>  (3) 
1

>  <s_lp_Variant>  (3) 
0:0-1

>  <s_i_glide_gridfile>  (3) 
pfpi4k_grid

>  <i_i_glide_lignum>  (3) 
1

>  <i_i_glide_rotatable_bonds>  (3) 
2

>  <r_i_docking_score>  (3) 
-3.40676

>  <r_i_glide_ligand_efficiency>  (3) 
-0.12167

>  <r_i_glide_ligand_efficiency_sa>  (3) 
-0.369462

>  <r_i_glide_ligand_efficiency_ln>  (3) 
-0.78638

>  <r_i_glide_gscore>  (3) 
-3.40676

>  <r_i_glide_lipo>  (3) 
-0.76327

>  <r_i_glide_hbond>  (3) 
-0.124572

>  <r_i_glide_metal>  (3) 
-0

>  <r_i_glide_rewards>  (3) 
-0.800306

>  <r_i_glide_evdw>  (3) 
-29.4541

>  <r_i_glide_ecoul>  (3) 
-2.52387

>  <r_i_glide_erotb>  (3) 
0.132675

>  <r_i_glide_esite>  (3) 
0

>  <r_i_glide_emodel>  (3) 
-37.4053

>  <r_i_glide_energy>  (3) 
-31.978

>  <r_i_glide_einternal>  (3) 
2.6969

>  <r_i_glide_intrahb_reward>  (3) 
-0

>  <i_i_glide_confnum>  (3) 
3

>  <i_i_glide_posenum>  (3) 
17

>  <r_i_glide_eff_state_penalty>  (3) 
0

>  <ligand_id>  (3) 
0

>  <original_smiles>  (3) 
C=C(C)C1CCC2(C)C1CCC1(C)C2CC=C2CCC3(C)C(O)CCC1(C)C23

>  <smiles>  (3) 
[H]OC1([H])C([H])([H])C([H])([H])C2(C([H])([H])[H])C3([H])C(=C([H])C([H])([H])C4([H])C5(C([H])([H])[H])C([H])([H])C([H])([H])C([H])(C(=C([H])[H])C([H])([H])[H])C5([H])C([H])([H])C([H])([H])C42C([H])([H])[H])C([H])([H])C([H])([H])C13C([H])([H])[H]

$$$$
1:0:0
     RDKit          3D

 58 61  0  0  1  0  0  0  0  0999 V2000
   -1.7269   -9.2994    2.5643 C   0  0  0  0  0  0  0  0  0  0  0  0
   -0.5609   -8.7447    3.3385 C   0  0  0  0  0  0  0  0  0  0  0  0
   -0.5869   -8.6436    4.7441 C   0  0  0  0  0  0  0  0  0  0  0  0
    0.5364   -8.1439    5.4441 C   0  0  0  0  0  0  0  0  0  0  0  0
    1.6916   -7.7552    4.7266 C   0  0  0  0  0  0  0  0  0  0  0  0
    1.7134   -7.8385    3.3170 C   0  0  0  0  0  0  0  0  0  0  0  0
    2.9000   -7.4791    2.6363 N   0  0  0  0  0  0  0  0  0  0  0  0
    2.9230   -6.8256    1.4680 C   0  0  0  0  0  0  0  0  0  0  0  0
    1.9203   -6.2916    0.9630 O   0  0  0  0  0  0  0  0  0  0  0  0
    4.2712   -6.7734    0.7450 C   0  0  0  0  0  0  0  0  0  0  0  0
    4.4452   -5.6003   -0.1244 N   0  0  0  0  0  0  0  0  0  0  0  0
    5.4841   -4.6962   -0.0059 C   0  0  0  0  0  0  0  0  0  0  0  0
    5.9317   -3.9594    1.0232 C   0  0  0  0  0  0  0  0  0  0  0  0
    6.9010   -3.4509   -0.1031 C   0  0  2  0  0  0  0  0  0  0  0  0
    7.4350   -2.0439   -0.0321 C   0  0  0  0  0  0  0  0  0  0  0  0
    6.1684   -1.1555   -0.1299 C   0  0  0  0  0  0  0  0  0  0  0  0
    4.9804   -2.1466   -0.0021 C   0  0  2  0  0  0  0  0  0  0  0  0
    3.6075   -1.5054   -0.4109 C   0  0  0  0  0  0  0  0  0  0  0  0
    3.4867   -1.0800   -1.8965 C   0  0  0  0  0  0  0  0  0  0  0  0
    3.2545   -0.3028    0.5093 C   0  0  0  0  0  0  0  0  0  0  0  0
    5.0310   -2.7963    1.4295 C   0  0  0  0  0  0  0  0  0  0  0  0
    3.6804   -3.3145    1.9844 C   0  0  0  0  0  0  0  0  0  0  0  0
    5.6118   -1.9391    2.5806 C   0  0  0  0  0  0  0  0  0  0  0  0
    5.5281   -3.3805   -0.7844 C   0  0  2  0  0  0  0  0  0  0  0  0
    5.4945   -3.4607   -2.3128 C   0  0  0  0  0  0  0  0  0  0  0  0
    0.5881   -8.3629    2.6345 C   0  0  0  0  0  0  0  0  0  0  0  0
   -2.5806   -9.4602    3.2248 H   0  0  0  0  0  0  0  0  0  0  0  0
   -1.4621  -10.2478    2.1054 H   0  0  0  0  0  0  0  0  0  0  0  0
   -2.0224   -8.6124    1.7753 H   0  0  0  0  0  0  0  0  0  0  0  0
   -1.4614   -8.9703    5.2917 H   0  0  0  0  0  0  0  0  0  0  0  0
    0.5051   -8.0850    6.5249 H   0  0  0  0  0  0  0  0  0  0  0  0
    2.5586   -7.3851    5.2575 H   0  0  0  0  0  0  0  0  0  0  0  0
    3.7819   -7.7956    3.0249 H   0  0  0  0  0  0  0  0  0  0  0  0
    5.0899   -6.8182    1.4675 H   0  0  0  0  0  0  0  0  0  0  0  0
    4.3637   -7.6613    0.1116 H   0  0  0  0  0  0  0  0  0  0  0  0
    7.6310   -4.1593   -0.5394 H   0  0  0  0  0  0  0  0  0  0  0  0
    8.0369   -1.8507    0.8553 H   0  0  0  0  0  0  0  0  0  0  0  0
    8.0944   -1.8935   -0.8842 H   0  0  0  0  0  0  0  0  0  0  0  0
    6.1698   -0.3332    0.5826 H   0  0  0  0  0  0  0  0  0  0  0  0
    6.1349   -0.6952   -1.1094 H   0  0  0  0  0  0  0  0  0  0  0  0
    2.8248   -2.2493   -0.2753 H   0  0  0  0  0  0  0  0  0  0  0  0
    4.2803   -0.4115   -2.2245 H   0  0  0  0  0  0  0  0  0  0  0  0
    2.5575   -0.5619   -2.0890 H   0  0  0  0  0  0  0  0  0  0  0  0
    3.4224   -1.9260   -2.5702 H   0  0  0  0  0  0  0  0  0  0  0  0
    3.9449    0.5317    0.3794 H   0  0  0  0  0  0  0  0  0  0  0  0
    3.2717   -0.5471    1.5655 H   0  0  0  0  0  0  0  0  0  0  0  0
    2.2409    0.0764    0.3554 H   0  0  0  0  0  0  0  0  0  0  0  0
    3.0693   -2.5107    2.3965 H   0  0  0  0  0  0  0  0  0  0  0  0
    3.8564   -4.0023    2.8129 H   0  0  0  0  0  0  0  0  0  0  0  0
    3.0760   -3.8329    1.2411 H   0  0  0  0  0  0  0  0  0  0  0  0
    5.0823   -1.0021    2.7306 H   0  0  0  0  0  0  0  0  0  0  0  0
    6.6276   -1.6532    2.4181 H   0  0  0  0  0  0  0  0  0  0  0  0
    5.5912   -2.4826    3.5230 H   0  0  0  0  0  0  0  0  0  0  0  0
    5.7934   -2.4946   -2.7322 H   0  0  0  0  0  0  0  0  0  0  0  0
    4.5231   -3.7323   -2.7144 H   0  0  0  0  0  0  0  0  0  0  0  0
    6.2116   -4.1771   -2.6983 H   0  0  0  0  0  0  0  0  0  0  0  0
    0.6058   -8.4954    1.5679 H   0  0  0  0  0  0  0  0  0  0  0  0
    3.9353   -5.6331   -1.0098 H   0  0  0  0  0  0  0  0  0  0  0  0
  1  2  1  0
  1 27  1  0
  1 28  1  0
  1 29  1  0
  2 26  2  0
  2  3  1  0
  3  4  2  0
  3 30  1  0
  4  5  1  0
  4 31  1  0
  5  6  2  0
  5 32  1  0
  6  7  1  0
  6 26  1  0
  7  8  1  0
  7 33  1  0
  8  9  2  0
  8 10  1  0
 10 34  1  0
 10 35  1  0
 10 11  1  0
 11 12  1  0
 11 58  1  0
 12 13  2  0
 12 24  1  0
 13 21  1  0
 13 14  1  0
 14 24  1  0
 14 15  1  0
 14 36  1  6
 15 16  1  0
 15 37  1  0
 15 38  1  0
 16 17  1  0
 16 39  1  0
 16 40  1  0
 17 18  1  6
 17 21  1  0
 17 24  1  0
 18 19  1  0
 18 20  1  0
 18 41  1  0
 19 42  1  0
 19 43  1  0
 19 44  1  0
 20 45  1  0
 20 46  1  0
 20 47  1  0
 21 22  1  0
 21 23  1  0
 22 48  1  0
 22 49  1  0
 22 50  1  0
 23 51  1  0
 23 52  1  0
 23 53  1  0
 24 25  1  6
 25 54  1  0
 25 55  1  0
 25 56  1  0
 26 57  1  0
M  END
>  <i_m_ct_stereo_status>  (4) 
1

>  <s_m_source_file>  (4) 
/var/tmp/pbs.5076255.sched01/tmp361wbqj1/0nt8_y6ui.sdf

>  <i_m_source_file_index>  (4) 
2

>  <i_lp_mmshare_version>  (4) 
48012

>  <i_f3d_flags>  (4) 
0

>  <s_epik_input>  (4) 
W0NIM11jMVtjSF1bY0hdW2NIXWMoW2NIXTEpW05IXUMoPU8pW0NIMl0vTj1DMi9bQ0BIXShDMyhbQ0gzXSlbQ0gzXSlbQ0BIXShbQ0gyXVtDSDJdNClbQ0BdMihbQ0gzXSlbQ0BAXTM0W0NIXShbQ0gzXSlbQ0gzXQ==

>  <s_epik_cmdline>  (4) 
J2VwaWtfcHl0aG9uJywgJy1waHQnLCAnMi4wJywgJy1waCcsICc3LjAnLCAnLXRuJywgJzgnLCAnLW1hJywgJzIwMCcsICctaW1hZScsICc8aW5maWxlLm1hZT4nLCAnLW9tYWUnLCAnPG91dGZpbGUubWFlPic=

>  <r_lp_tautomer_probability>  (4) 
1

>  <r_epik_Ionization_Penalty>  (4) 
0.000820514

>  <r_epik_Ionization_Penalty_Charging>  (4) 
0.000176806

>  <r_epik_Ionization_Penalty_Neutral>  (4) 
0.000643708

>  <r_epik_State_Penalty>  (4) 
-0

>  <r_epik_Charging_Adjusted_Penalty>  (4) 
0.000176806

>  <i_epik_Tot_Q>  (4) 
0

>  <i_epik_Tot_abs_Q>  (4) 
0

>  <s_epik_Chemistry_Notes>  (4) 
This compound has an imine and may undergo hydrolysis.

>  <s_lp_Force_Field>  (4) 
OPLS3e

>  <r_lp_Energy>  (4) 
102.468

>  <b_lp_Chiralities_Consistent>  (4) 
1

>  <s_lp_Variant>  (4) 
1:0-1

>  <s_i_glide_gridfile>  (4) 
pfpi4k_grid

>  <i_i_glide_lignum>  (4) 
2

>  <i_i_glide_rotatable_bonds>  (4) 
6

>  <r_i_docking_score>  (4) 
-3.39298

>  <r_i_glide_ligand_efficiency>  (4) 
-0.130499

>  <r_i_glide_ligand_efficiency_sa>  (4) 
-0.386603

>  <r_i_glide_ligand_efficiency_ln>  (4) 
-0.79683

>  <r_i_glide_gscore>  (4) 
-3.39298

>  <r_i_glide_lipo>  (4) 
-0.962101

>  <r_i_glide_hbond>  (4) 
-0.32

>  <r_i_glide_metal>  (4) 
-0

>  <r_i_glide_rewards>  (4) 
-1.05081

>  <r_i_glide_evdw>  (4) 
-26.0089

>  <r_i_glide_ecoul>  (4) 
-3.42073

>  <r_i_glide_erotb>  (4) 
0.767945

>  <r_i_glide_esite>  (4) 
-0.0144596

>  <r_i_glide_emodel>  (4) 
-33.4434

>  <r_i_glide_energy>  (4) 
-29.4296

>  <r_i_glide_einternal>  (4) 
4.27645

>  <r_i_glide_intrahb_reward>  (4) 
-0

>  <i_i_glide_confnum>  (4) 
5

>  <i_i_glide_posenum>  (4) 
30

>  <r_i_glide_eff_state_penalty>  (4) 
0

>  <ligand_id>  (4) 
1

>  <original_smiles>  (4) 
Cc1cccc(NC(=O)CN=C2C3C4CCC(C(C)C)(C3(C)C)C24C)c1

>  <smiles>  (4) 
[H]c1c([H])c(N([H])C(=O)C([H])([H])N([H])C2=C3C4([H])C([H])([H])C([H])([H])C(C([H])(C([H])([H])[H])C([H])([H])[H])(C3(C([H])([H])[H])C([H])([H])[H])C24C([H])([H])[H])c([H])c(C([H])([H])[H])c1[H]

$$$$
1:0:1
     RDKit          3D

 58 61  0  0  1  0  0  0  0  0999 V2000
    2.6199   -3.3614   -3.6361 C   0  0  0  0  0  0  0  0  0  0  0  0
    3.7974   -2.9360   -2.7838 C   0  0  0  0  0  0  0  0  0  0  0  0
    5.0807   -3.4532   -3.0295 C   0  0  0  0  0  0  0  0  0  0  0  0
    6.1650   -3.0475   -2.2217 C   0  0  0  0  0  0  0  0  0  0  0  0
    5.9570   -2.1293   -1.1731 C   0  0  0  0  0  0  0  0  0  0  0  0
    4.6723   -1.6196   -0.9172 C   0  0  0  0  0  0  0  0  0  0  0  0
    4.4629   -0.6562    0.0975 N   0  0  0  0  0  0  0  0  0  0  0  0
    3.5810   -0.7635    1.1038 C   0  0  0  0  0  0  0  0  0  0  0  0
    3.0225   -1.8233    1.4112 O   0  0  0  0  0  0  0  0  0  0  0  0
    3.3168    0.5020    1.9275 C   0  0  0  0  0  0  0  0  0  0  0  0
    1.9165    0.6419    2.3244 N   0  0  0  0  0  0  0  0  0  0  0  0
    1.4198    1.6388    3.1283 C   0  0  0  0  0  0  0  0  0  0  0  0
    1.7816    2.1687    4.3312 C   0  0  0  0  0  0  0  0  0  0  0  0
    0.4875    3.0136    4.1071 C   0  0  2  0  0  0  0  0  0  0  0  0
   -0.2904    3.4609    5.3358 C   0  0  0  0  0  0  0  0  0  0  0  0
   -0.7672    2.1429    5.9711 C   0  0  0  0  0  0  0  0  0  0  0  0
    0.0054    1.0174    5.2001 C   0  0  2  0  0  0  0  0  0  0  0  0
   -0.6140   -0.4250    5.4665 C   0  0  0  0  0  0  0  0  0  0  0  0
   -0.1578   -1.5855    4.5474 C   0  0  0  0  0  0  0  0  0  0  0  0
   -2.1654   -0.4671    5.4830 C   0  0  0  0  0  0  0  0  0  0  0  0
    1.5463    1.2123    5.5018 C   0  0  0  0  0  0  0  0  0  0  0  0
    2.4510   -0.0439    5.3900 C   0  0  0  0  0  0  0  0  0  0  0  0
    1.9350    1.8313    6.8838 C   0  0  0  0  0  0  0  0  0  0  0  0
    0.0222    1.6072    3.7546 C   0  0  2  0  0  0  0  0  0  0  0  0
   -1.2078    1.4998    2.8500 C   0  0  0  0  0  0  0  0  0  0  0  0
    3.5980   -2.0222   -1.7377 C   0  0  0  0  0  0  0  0  0  0  0  0
    2.8848   -4.1754   -4.3118 H   0  0  0  0  0  0  0  0  0  0  0  0
    2.2358   -2.5275   -4.2239 H   0  0  0  0  0  0  0  0  0  0  0  0
    1.8259   -3.7297   -2.9924 H   0  0  0  0  0  0  0  0  0  0  0  0
    5.2433   -4.1732   -3.8221 H   0  0  0  0  0  0  0  0  0  0  0  0
    7.1496   -3.4353   -2.4140 H   0  0  0  0  0  0  0  0  0  0  0  0
    6.7852   -1.8162   -0.5546 H   0  0  0  0  0  0  0  0  0  0  0  0
    4.9163    0.2422   -0.0345 H   0  0  0  0  0  0  0  0  0  0  0  0
    3.9581    0.5126    2.8112 H   0  0  0  0  0  0  0  0  0  0  0  0
    3.5923    1.3530    1.3185 H   0  0  0  0  0  0  0  0  0  0  0  0
    0.4761    3.7535    3.2931 H   0  0  0  0  0  0  0  0  0  0  0  0
    0.2784    4.1080    6.0048 H   0  0  0  0  0  0  0  0  0  0  0  0
   -1.1583    4.0368    5.0168 H   0  0  0  0  0  0  0  0  0  0  0  0
   -0.6546    2.1244    7.0573 H   0  0  0  0  0  0  0  0  0  0  0  0
   -1.8400    2.1190    5.7805 H   0  0  0  0  0  0  0  0  0  0  0  0
   -0.3181   -0.6933    6.4791 H   0  0  0  0  0  0  0  0  0  0  0  0
   -0.1920   -1.2944    3.4990 H   0  0  0  0  0  0  0  0  0  0  0  0
   -0.8239   -2.4514    4.6598 H   0  0  0  0  0  0  0  0  0  0  0  0
    0.8371   -1.9446    4.7617 H   0  0  0  0  0  0  0  0  0  0  0  0
   -2.5734   -0.2387    4.5009 H   0  0  0  0  0  0  0  0  0  0  0  0
   -2.6029    0.2169    6.2076 H   0  0  0  0  0  0  0  0  0  0  0  0
   -2.5312   -1.4621    5.7414 H   0  0  0  0  0  0  0  0  0  0  0  0
    2.2928   -0.7240    6.2291 H   0  0  0  0  0  0  0  0  0  0  0  0
    3.5084    0.2483    5.4227 H   0  0  0  0  0  0  0  0  0  0  0  0
    2.2939   -0.6055    4.4790 H   0  0  0  0  0  0  0  0  0  0  0  0
    1.5493    1.2475    7.7190 H   0  0  0  0  0  0  0  0  0  0  0  0
    1.6180    2.8542    7.0342 H   0  0  0  0  0  0  0  0  0  0  0  0
    3.0154    1.8601    6.9979 H   0  0  0  0  0  0  0  0  0  0  0  0
   -2.1191    1.7314    3.4044 H   0  0  0  0  0  0  0  0  0  0  0  0
   -1.3311    0.5189    2.4020 H   0  0  0  0  0  0  0  0  0  0  0  0
   -1.1501    2.2387    2.0551 H   0  0  0  0  0  0  0  0  0  0  0  0
    2.6113   -1.6212   -1.5680 H   0  0  0  0  0  0  0  0  0  0  0  0
    1.2713    0.2550    1.6382 H   0  0  0  0  0  0  0  0  0  0  0  0
  1  2  1  0
  1 27  1  0
  1 28  1  0
  1 29  1  0
  2 26  2  0
  2  3  1  0
  3  4  2  0
  3 30  1  0
  4  5  1  0
  4 31  1  0
  5  6  2  0
  5 32  1  0
  6  7  1  0
  6 26  1  0
  7  8  1  0
  7 33  1  0
  8  9  2  0
  8 10  1  0
 10 34  1  0
 10 35  1  0
 10 11  1  0
 11 12  1  0
 11 58  1  0
 12 13  2  0
 12 24  1  0
 13 21  1  0
 13 14  1  0
 14 24  1  0
 14 15  1  0
 14 36  1  6
 15 16  1  0
 15 37  1  0
 15 38  1  0
 16 17  1  0
 16 39  1  0
 16 40  1  0
 17 18  1  6
 17 21  1  0
 17 24  1  0
 18 19  1  0
 18 20  1  0
 18 41  1  0
 19 42  1  0
 19 43  1  0
 19 44  1  0
 20 45  1  0
 20 46  1  0
 20 47  1  0
 21 22  1  0
 21 23  1  0
 22 48  1  0
 22 49  1  0
 22 50  1  0
 23 51  1  0
 23 52  1  0
 23 53  1  0
 24 25  1  6
 25 54  1  0
 25 55  1  0
 25 56  1  0
 26 57  1  0
M  END
>  <i_m_ct_stereo_status>  (5) 
1

>  <s_m_source_file>  (5) 
/var/tmp/pbs.5076255.sched01/tmp361wbqj1/0nt8_y6ui.sdf

>  <i_m_source_file_index>  (5) 
2

>  <i_lp_mmshare_version>  (5) 
48012

>  <i_f3d_flags>  (5) 
0

>  <s_epik_input>  (5) 
W0NIM11jMVtjSF1bY0hdW2NIXWMoW2NIXTEpW05IXUMoPU8pW0NIMl0vTj1DMi9bQ0BIXShDMyhbQ0gzXSlbQ0gzXSlbQ0BIXShbQ0gyXVtDSDJdNClbQ0BdMihbQ0gzXSlbQ0BAXTM0W0NIXShbQ0gzXSlbQ0gzXQ==

>  <s_epik_cmdline>  (5) 
J2VwaWtfcHl0aG9uJywgJy1waHQnLCAnMi4wJywgJy1waCcsICc3LjAnLCAnLXRuJywgJzgnLCAnLW1hJywgJzIwMCcsICctaW1hZScsICc8aW5maWxlLm1hZT4nLCAnLW9tYWUnLCAnPG91dGZpbGUubWFlPic=

>  <r_lp_tautomer_probability>  (5) 
1

>  <r_epik_Ionization_Penalty>  (5) 
0.000820514

>  <r_epik_Ionization_Penalty_Charging>  (5) 
0.000176806

>  <r_epik_Ionization_Penalty_Neutral>  (5) 
0.000643708

>  <r_epik_State_Penalty>  (5) 
-0

>  <r_epik_Charging_Adjusted_Penalty>  (5) 
0.000176806

>  <i_epik_Tot_Q>  (5) 
0

>  <i_epik_Tot_abs_Q>  (5) 
0

>  <s_epik_Chemistry_Notes>  (5) 
This compound has an imine and may undergo hydrolysis.

>  <s_lp_Force_Field>  (5) 
OPLS3e

>  <r_lp_Energy>  (5) 
102.468

>  <b_lp_Chiralities_Consistent>  (5) 
1

>  <s_lp_Variant>  (5) 
1:0-1

>  <s_i_glide_gridfile>  (5) 
pfpi4k_grid

>  <i_i_glide_lignum>  (5) 
2

>  <i_i_glide_rotatable_bonds>  (5) 
6

>  <r_i_docking_score>  (5) 
-2.95509

>  <r_i_glide_ligand_efficiency>  (5) 
-0.113657

>  <r_i_glide_ligand_efficiency_sa>  (5) 
-0.33671

>  <r_i_glide_ligand_efficiency_ln>  (5) 
-0.693994

>  <r_i_glide_gscore>  (5) 
-2.95509

>  <r_i_glide_lipo>  (5) 
-0.657195

>  <r_i_glide_hbond>  (5) 
-0.235482

>  <r_i_glide_metal>  (5) 
-0

>  <r_i_glide_rewards>  (5) 
-1.00559

>  <r_i_glide_evdw>  (5) 
-30.7126

>  <r_i_glide_ecoul>  (5) 
-1.64055

>  <r_i_glide_erotb>  (5) 
0.767945

>  <r_i_glide_esite>  (5) 
-0.043058

>  <r_i_glide_emodel>  (5) 
-32.7263

>  <r_i_glide_energy>  (5) 
-32.3531

>  <r_i_glide_einternal>  (5) 
8.88072

>  <r_i_glide_intrahb_reward>  (5) 
-0

>  <i_i_glide_confnum>  (5) 
5

>  <i_i_glide_posenum>  (5) 
11

>  <r_i_glide_eff_state_penalty>  (5) 
0

>  <ligand_id>  (5) 
1

>  <original_smiles>  (5) 
Cc1cccc(NC(=O)CN=C2C3C4CCC(C(C)C)(C3(C)C)C24C)c1

>  <smiles>  (5) 
[H]c1c([H])c(N([H])C(=O)C([H])([H])N([H])C2=C3C4([H])C([H])([H])C([H])([H])C(C([H])(C([H])([H])[H])C([H])([H])[H])(C3(C([H])([H])[H])C([H])([H])[H])C24C([H])([H])[H])c([H])c(C([H])([H])[H])c1[H]

$$$$
1:0:2
     RDKit          3D

 58 61  0  0  1  0  0  0  0  0999 V2000
   -1.5048   -8.4489    3.1065 C   0  0  0  0  0  0  0  0  0  0  0  0
   -0.0953   -8.9781    2.9552 C   0  0  0  0  0  0  0  0  0  0  0  0
    0.2146  -10.3086    3.3083 C   0  0  0  0  0  0  0  0  0  0  0  0
    1.5267  -10.8059    3.1691 C   0  0  0  0  0  0  0  0  0  0  0  0
    2.5430   -9.9676    2.6541 C   0  0  0  0  0  0  0  0  0  0  0  0
    2.2371   -8.6297    2.2887 C   0  0  0  0  0  0  0  0  0  0  0  0
    3.1963   -7.6934    1.8250 N   0  0  0  0  0  0  0  0  0  0  0  0
    4.4377   -7.8945    1.3492 C   0  0  0  0  0  0  0  0  0  0  0  0
    4.9312   -8.9973    1.1173 O   0  0  0  0  0  0  0  0  0  0  0  0
    5.2441   -6.6355    1.0494 C   0  0  0  0  0  0  0  0  0  0  0  0
    4.4490   -5.5676    0.4326 N   0  0  0  0  0  0  0  0  0  0  0  0
    4.9369   -4.6268   -0.4545 C   0  0  0  0  0  0  0  0  0  0  0  0
    6.0490   -3.8824   -0.4874 C   0  0  0  0  0  0  0  0  0  0  0  0
    5.3115   -3.2548   -1.7106 C   0  0  2  0  0  0  0  0  0  0  0  0
    5.5813   -1.8075   -2.0296 C   0  0  0  0  0  0  0  0  0  0  0  0
    5.0852   -1.0269   -0.8066 C   0  0  0  0  0  0  0  0  0  0  0  0
    4.8050   -2.1214    0.2487 C   0  0  2  0  0  0  0  0  0  0  0  0
    3.9910   -1.5950    1.4860 C   0  0  0  0  0  0  0  0  0  0  0  0
    2.6023   -1.0247    1.1815 C   0  0  0  0  0  0  0  0  0  0  0  0
    4.7373   -0.4928    2.2672 C   0  0  0  0  0  0  0  0  0  0  0  0
    6.1614   -2.8248    0.5990 C   0  0  0  0  0  0  0  0  0  0  0  0
    6.1939   -3.4940    1.9880 C   0  0  0  0  0  0  0  0  0  0  0  0
    7.4756   -1.9977    0.4947 C   0  0  0  0  0  0  0  0  0  0  0  0
    4.2316   -3.2784   -0.6403 C   0  0  2  0  0  0  0  0  0  0  0  0
    2.7914   -3.2723   -1.1376 C   0  0  0  0  0  0  0  0  0  0  0  0
    0.9239   -8.1450    2.4590 C   0  0  0  0  0  0  0  0  0  0  0  0
   -2.1559   -9.1728    3.5928 H   0  0  0  0  0  0  0  0  0  0  0  0
   -1.9246   -8.2312    2.1263 H   0  0  0  0  0  0  0  0  0  0  0  0
   -1.5079   -7.5396    3.7057 H   0  0  0  0  0  0  0  0  0  0  0  0
   -0.5572  -10.9554    3.6877 H   0  0  0  0  0  0  0  0  0  0  0  0
    1.7517  -11.8285    3.4459 H   0  0  0  0  0  0  0  0  0  0  0  0
    3.5417  -10.3677    2.5656 H   0  0  0  0  0  0  0  0  0  0  0  0
    2.9351   -6.7219    1.8910 H   0  0  0  0  0  0  0  0  0  0  0  0
    5.6163   -6.2787    2.0090 H   0  0  0  0  0  0  0  0  0  0  0  0
    6.1339   -6.8623    0.4798 H   0  0  0  0  0  0  0  0  0  0  0  0
    5.1354   -3.8810   -2.6017 H   0  0  0  0  0  0  0  0  0  0  0  0
    6.6354   -1.6558   -2.1978 H   0  0  0  0  0  0  0  0  0  0  0  0
    5.0384   -1.5024   -2.9245 H   0  0  0  0  0  0  0  0  0  0  0  0
    5.7892   -0.2683   -0.4810 H   0  0  0  0  0  0  0  0  0  0  0  0
    4.1804   -0.5037   -1.0971 H   0  0  0  0  0  0  0  0  0  0  0  0
    3.8099   -2.4289    2.1614 H   0  0  0  0  0  0  0  0  0  0  0  0
    2.6317   -0.2593    0.4089 H   0  0  0  0  0  0  0  0  0  0  0  0
    2.1599   -0.5453    2.0563 H   0  0  0  0  0  0  0  0  0  0  0  0
    1.9053   -1.8012    0.8812 H   0  0  0  0  0  0  0  0  0  0  0  0
    4.8441    0.4093    1.6658 H   0  0  0  0  0  0  0  0  0  0  0  0
    5.7358   -0.7666    2.5890 H   0  0  0  0  0  0  0  0  0  0  0  0
    4.1925   -0.2245    3.1740 H   0  0  0  0  0  0  0  0  0  0  0  0
    6.3074   -2.7473    2.7594 H   0  0  0  0  0  0  0  0  0  0  0  0
    7.0318   -4.1887    2.0484 H   0  0  0  0  0  0  0  0  0  0  0  0
    5.2863   -4.0301    2.2585 H   0  0  0  0  0  0  0  0  0  0  0  0
    7.4573   -1.0989    1.1089 H   0  0  0  0  0  0  0  0  0  0  0  0
    7.7393   -1.6908   -0.5021 H   0  0  0  0  0  0  0  0  0  0  0  0
    8.3314   -2.5883    0.8118 H   0  0  0  0  0  0  0  0  0  0  0  0
    2.5416   -2.2662   -1.4686 H   0  0  0  0  0  0  0  0  0  0  0  0
    2.0706   -3.5820   -0.3859 H   0  0  0  0  0  0  0  0  0  0  0  0
    2.6666   -3.8799   -2.0320 H   0  0  0  0  0  0  0  0  0  0  0  0
    0.6876   -7.1239    2.2042 H   0  0  0  0  0  0  0  0  0  0  0  0
    3.5058   -5.8426    0.2009 H   0  0  0  0  0  0  0  0  0  0  0  0
  1  2  1  0
  1 27  1  0
  1 28  1  0
  1 29  1  0
  2 26  2  0
  2  3  1  0
  3  4  2  0
  3 30  1  0
  4  5  1  0
  4 31  1  0
  5  6  2  0
  5 32  1  0
  6  7  1  0
  6 26  1  0
  7  8  1  0
  7 33  1  0
  8  9  2  0
  8 10  1  0
 10 34  1  0
 10 35  1  0
 10 11  1  0
 11 12  1  0
 11 58  1  0
 12 13  2  0
 12 24  1  0
 13 21  1  0
 13 14  1  0
 14 24  1  0
 14 15  1  0
 14 36  1  6
 15 16  1  0
 15 37  1  0
 15 38  1  0
 16 17  1  0
 16 39  1  0
 16 40  1  0
 17 18  1  1
 17 21  1  0
 17 24  1  0
 18 19  1  0
 18 20  1  0
 18 41  1  0
 19 42  1  0
 19 43  1  0
 19 44  1  0
 20 45  1  0
 20 46  1  0
 20 47  1  0
 21 22  1  0
 21 23  1  0
 22 48  1  0
 22 49  1  0
 22 50  1  0
 23 51  1  0
 23 52  1  0
 23 53  1  0
 24 25  1  6
 25 54  1  0
 25 55  1  0
 25 56  1  0
 26 57  1  0
M  END
>  <i_m_ct_stereo_status>  (6) 
1

>  <s_m_source_file>  (6) 
/var/tmp/pbs.5076255.sched01/tmp361wbqj1/0nt8_y6ui.sdf

>  <i_m_source_file_index>  (6) 
2

>  <i_lp_mmshare_version>  (6) 
48012

>  <i_f3d_flags>  (6) 
0

>  <s_epik_input>  (6) 
W0NIM11jMVtjSF1bY0hdW2NIXWMoW2NIXTEpW05IXUMoPU8pW0NIMl0vTj1DMi9bQ0BIXShDMyhbQ0gzXSlbQ0gzXSlbQ0BIXShbQ0gyXVtDSDJdNClbQ0BdMihbQ0gzXSlbQ0BAXTM0W0NIXShbQ0gzXSlbQ0gzXQ==

>  <s_epik_cmdline>  (6) 
J2VwaWtfcHl0aG9uJywgJy1waHQnLCAnMi4wJywgJy1waCcsICc3LjAnLCAnLXRuJywgJzgnLCAnLW1hJywgJzIwMCcsICctaW1hZScsICc8aW5maWxlLm1hZT4nLCAnLW9tYWUnLCAnPG91dGZpbGUubWFlPic=

>  <r_lp_tautomer_probability>  (6) 
1

>  <r_epik_Ionization_Penalty>  (6) 
0.000820514

>  <r_epik_Ionization_Penalty_Charging>  (6) 
0.000176806

>  <r_epik_Ionization_Penalty_Neutral>  (6) 
0.000643708

>  <r_epik_State_Penalty>  (6) 
-0

>  <r_epik_Charging_Adjusted_Penalty>  (6) 
0.000176806

>  <i_epik_Tot_Q>  (6) 
0

>  <i_epik_Tot_abs_Q>  (6) 
0

>  <s_epik_Chemistry_Notes>  (6) 
This compound has an imine and may undergo hydrolysis.

>  <s_lp_Force_Field>  (6) 
OPLS3e

>  <r_lp_Energy>  (6) 
102.468

>  <b_lp_Chiralities_Consistent>  (6) 
1

>  <s_lp_Variant>  (6) 
1:0-1

>  <s_i_glide_gridfile>  (6) 
pfpi4k_grid

>  <i_i_glide_lignum>  (6) 
2

>  <i_i_glide_rotatable_bonds>  (6) 
6

>  <r_i_docking_score>  (6) 
-2.40036

>  <r_i_glide_ligand_efficiency>  (6) 
-0.0923214

>  <r_i_glide_ligand_efficiency_sa>  (6) 
-0.273502

>  <r_i_glide_ligand_efficiency_ln>  (6) 
-0.563716

>  <r_i_glide_gscore>  (6) 
-2.40036

>  <r_i_glide_lipo>  (6) 
-0.736775

>  <r_i_glide_hbond>  (6) 
0

>  <r_i_glide_metal>  (6) 
-0

>  <r_i_glide_rewards>  (6) 
-1.0488

>  <r_i_glide_evdw>  (6) 
-28.3235

>  <r_i_glide_ecoul>  (6) 
0.223

>  <r_i_glide_erotb>  (6) 
0.767945

>  <r_i_glide_esite>  (6) 
0

>  <r_i_glide_emodel>  (6) 
-28.9423

>  <r_i_glide_energy>  (6) 
-28.1005

>  <r_i_glide_einternal>  (6) 
4.33311

>  <r_i_glide_intrahb_reward>  (6) 
-0

>  <i_i_glide_confnum>  (6) 
2

>  <i_i_glide_posenum>  (6) 
5

>  <r_i_glide_eff_state_penalty>  (6) 
0

>  <ligand_id>  (6) 
1

>  <original_smiles>  (6) 
Cc1cccc(NC(=O)CN=C2C3C4CCC(C(C)C)(C3(C)C)C24C)c1

>  <smiles>  (6) 
[H]c1c([H])c(N([H])C(=O)C([H])([H])N([H])C2=C3C4([H])C([H])([H])C([H])([H])C(C([H])(C([H])([H])[H])C([H])([H])[H])(C3(C([H])([H])[H])C([H])([H])[H])C24C([H])([H])[H])c([H])c(C([H])([H])[H])c1[H]

$$$$
2:0:0
     RDKit          3D

 28 30  0  0  1  0  0  0  0  0999 V2000
   -1.3829    3.1000   11.6735 N   0  0  0  0  0  0  0  0  0  0  0  0
   -0.9750    3.0390   10.4568 C   0  0  0  0  0  0  0  0  0  0  0  0
    0.1668    3.7602    9.9480 C   0  0  0  0  0  0  0  0  0  0  0  0
    0.6136    3.6470    8.6768 C   0  0  0  0  0  0  0  0  0  0  0  0
   -0.0659    2.7890    7.8495 N   0  0  0  0  0  0  0  0  0  0  0  0
   -1.2196    2.1213    8.3459 C   0  0  0  0  0  0  0  0  0  0  0  0
   -1.6483    2.2346    9.5700 N   0  0  0  0  0  0  0  0  0  0  0  0
   -1.7586    1.3537    7.3532 O   0  0  0  0  0  0  0  0  0  0  0  0
   -0.9675    1.5302    6.1699 C   0  0  1  0  0  0  0  0  0  0  0  0
   -1.6309    2.4562    5.1402 C   0  0  1  0  0  0  0  0  0  0  0  0
   -2.5817    3.3239    5.7276 O   0  0  0  0  0  0  0  0  0  0  0  0
   -0.4380    3.2554    4.5818 C   0  0  1  0  0  0  0  0  0  0  0  0
   -0.6853    4.7033    4.1192 C   0  0  0  0  0  0  0  0  0  0  0  0
   -1.5758    4.7827    3.0242 O   0  0  0  0  0  0  0  0  0  0  0  0
    0.4992    3.3154    5.6595 O   0  0  0  0  0  0  0  0  0  0  0  0
    0.3291    2.2631    6.5464 C   0  0  1  0  0  0  0  0  0  0  0  0
   -2.1589    2.5148   12.0449 H   0  0  0  0  0  0  0  0  0  0  0  0
    0.6946    4.3899   10.6408 H   0  0  0  0  0  0  0  0  0  0  0  0
    1.4717    4.2065    8.3271 H   0  0  0  0  0  0  0  0  0  0  0  0
   -0.7064    0.5807    5.7102 H   0  0  0  0  0  0  0  0  0  0  0  0
   -2.1454    1.8865    4.3617 H   0  0  0  0  0  0  0  0  0  0  0  0
   -3.0631    3.7269    5.0229 H   0  0  0  0  0  0  0  0  0  0  0  0
    0.0001    2.6748    3.7631 H   0  0  0  0  0  0  0  0  0  0  0  0
   -1.0474    5.2888    4.9600 H   0  0  0  0  0  0  0  0  0  0  0  0
    0.2595    5.1555    3.8238 H   0  0  0  0  0  0  0  0  0  0  0  0
   -1.0779    4.5506    2.2391 H   0  0  0  0  0  0  0  0  0  0  0  0
    1.1969    1.6389    6.7673 H   0  0  0  0  0  0  0  0  0  0  0  0
   -0.9211    3.6741   12.3695 H   0  0  0  0  0  0  0  0  0  0  0  0
  1  2  2  3
  1 17  1  0
  1 28  1  0
  2  7  1  0
  2  3  1  0
  3  4  2  0
  3 18  1  0
  4  5  1  0
  4 19  1  0
  5 16  1  0
  5  6  1  0
  6  7  2  0
  6  8  1  0
  8  9  1  0
  9 16  1  0
  9 10  1  0
  9 20  1  6
 10 11  1  0
 10 12  1  0
 10 21  1  6
 11 22  1  0
 12 13  1  0
 12 15  1  0
 12 23  1  6
 13 14  1  0
 13 24  1  0
 13 25  1  0
 14 26  1  0
 15 16  1  0
 16 27  1  1
M  CHG  1   1   1
M  END
>  <i_m_ct_stereo_status>  (7) 
1

>  <s_m_source_file>  (7) 
/var/tmp/pbs.5076255.sched01/tmp361wbqj1/0nt8_y6ui.sdf

>  <i_m_source_file_index>  (7) 
3

>  <i_lp_mmshare_version>  (7) 
48012

>  <i_f3d_flags>  (7) 
0

>  <s_epik_input>  (7) 
W2NIXTFbY0hdXGMoPU5cW0hdKW5jKG4xMilPW0NAQEhdM1tDQEhdMk9bQ0BASF0oW0NAQEhdM1tPSF0pW0NIMl1bT0hd

>  <s_epik_cmdline>  (7) 
J2VwaWtfcHl0aG9uJywgJy1waHQnLCAnMi4wJywgJy1waCcsICc3LjAnLCAnLXRuJywgJzgnLCAnLW1hJywgJzIwMCcsICctaW1hZScsICc8aW5maWxlLm1hZT4nLCAnLW9tYWUnLCAnPG91dGZpbGUubWFlPic=

>  <r_lp_tautomer_probability>  (7) 
1

>  <r_epik_Ionization_Penalty>  (7) 
2.60182e-05

>  <r_epik_Ionization_Penalty_Charging>  (7) 
2.16182e-05

>  <r_epik_Ionization_Penalty_Neutral>  (7) 
4.39998e-06

>  <r_epik_State_Penalty>  (7) 
-0

>  <r_epik_Charging_Adjusted_Penalty>  (7) 
2.16182e-05

>  <i_epik_Tot_Q>  (7) 
1

>  <i_epik_Tot_abs_Q>  (7) 
1

>  <s_epik_Chemistry_Notes>  (7) 
This compound has an imine and may undergo hydrolysis. This compound contains an acetal/aminal-like group ( X-CH(R)-Y where X, Y are N, S, or O) that may be acid/base labile, releasing an aldehyde.

>  <s_lp_Force_Field>  (7) 
OPLS3e

>  <r_lp_Energy>  (7) 
20.856

>  <b_lp_Chiralities_Consistent>  (7) 
1

>  <s_lp_Variant>  (7) 
2:0-1

>  <s_i_glide_gridfile>  (7) 
pfpi4k_grid

>  <i_i_glide_lignum>  (7) 
3

>  <i_i_glide_rotatable_bonds>  (7) 
3

>  <r_i_docking_score>  (7) 
-4.87656

>  <r_i_glide_ligand_efficiency>  (7) 
-0.304785

>  <r_i_glide_ligand_efficiency_sa>  (7) 
-0.768009

>  <r_i_glide_ligand_efficiency_ln>  (7) 
-1.29263

>  <r_i_glide_gscore>  (7) 
-4.87656

>  <r_i_glide_lipo>  (7) 
0

>  <r_i_glide_hbond>  (7) 
-0.301073

>  <r_i_glide_metal>  (7) 
-0

>  <r_i_glide_rewards>  (7) 
-1.86675

>  <r_i_glide_evdw>  (7) 
-9.11678

>  <r_i_glide_ecoul>  (7) 
-16.4255

>  <r_i_glide_erotb>  (7) 
0.332016

>  <r_i_glide_esite>  (7) 
-0.121075

>  <r_i_glide_emodel>  (7) 
-35.7305

>  <r_i_glide_energy>  (7) 
-25.5423

>  <r_i_glide_einternal>  (7) 
0.731232

>  <r_i_glide_intrahb_reward>  (7) 
-0

>  <i_i_glide_confnum>  (7) 
4

>  <i_i_glide_posenum>  (7) 
9

>  <r_i_glide_eff_state_penalty>  (7) 
0

>  <ligand_id>  (7) 
2

>  <original_smiles>  (7) 
N=c1ccn2c(n1)OC1C(O)C(CO)OC12

>  <smiles>  (7) 
[H]OC([H])([H])C1([H])OC2([H])n3c(nc(=[N+]([H])[H])c([H])c3[H])OC2([H])C1([H])O[H]

$$$$
2:0:1
     RDKit          3D

 28 30  0  0  1  0  0  0  0  0999 V2000
   -1.3838    2.8252   11.2897 N   0  0  0  0  0  0  0  0  0  0  0  0
   -0.9619    2.8351   10.0700 C   0  0  0  0  0  0  0  0  0  0  0  0
    0.2396    3.4938    9.6180 C   0  0  0  0  0  0  0  0  0  0  0  0
    0.6947    3.4367    8.3388 C   0  0  0  0  0  0  0  0  0  0  0  0
   -0.0432    2.6996    7.4530 N   0  0  0  0  0  0  0  0  0  0  0  0
   -1.2650    2.1080    7.8859 C   0  0  0  0  0  0  0  0  0  0  0  0
   -1.7013    2.1677    9.1177 N   0  0  0  0  0  0  0  0  0  0  0  0
   -1.8567    1.4765    6.8313 O   0  0  0  0  0  0  0  0  0  0  0  0
   -1.0265    1.6624    5.6666 C   0  0  1  0  0  0  0  0  0  0  0  0
   -1.5955    2.7210    4.7132 C   0  0  1  0  0  0  0  0  0  0  0  0
   -2.4579    3.6135    5.3968 O   0  0  0  0  0  0  0  0  0  0  0  0
   -0.3349    3.4639    4.2291 C   0  0  1  0  0  0  0  0  0  0  0  0
   -0.4464    4.9593    3.8947 C   0  0  0  0  0  0  0  0  0  0  0  0
   -1.3833    5.2137    2.8787 O   0  0  0  0  0  0  0  0  0  0  0  0
    0.5955    3.3647    5.3108 O   0  0  0  0  0  0  0  0  0  0  0  0
    0.3286    2.2522    6.1057 C   0  0  1  0  0  0  0  0  0  0  0  0
   -2.2082    2.3035   11.6057 H   0  0  0  0  0  0  0  0  0  0  0  0
    0.8100    4.0126   10.3576 H   0  0  0  0  0  0  0  0  0  0  0  0
    1.6063    3.9465    8.0511 H   0  0  0  0  0  0  0  0  0  0  0  0
   -0.8452    0.7340    5.1314 H   0  0  0  0  0  0  0  0  0  0  0  0
   -2.1541    2.2748    3.8820 H   0  0  0  0  0  0  0  0  0  0  0  0
   -3.2365    3.1393    5.6398 H   0  0  0  0  0  0  0  0  0  0  0  0
    0.0569    2.9191    3.3649 H   0  0  0  0  0  0  0  0  0  0  0  0
   -0.7057    5.5086    4.7933 H   0  0  0  0  0  0  0  0  0  0  0  0
    0.5169    5.3345    3.5610 H   0  0  0  0  0  0  0  0  0  0  0  0
   -0.9856    4.9314    2.0564 H   0  0  0  0  0  0  0  0  0  0  0  0
    1.1387    1.5364    6.2909 H   0  0  0  0  0  0  0  0  0  0  0  0
   -0.8949    3.2965   12.0346 H   0  0  0  0  0  0  0  0  0  0  0  0
  1  2  2  3
  1 17  1  0
  1 28  1  0
  2  7  1  0
  2  3  1  0
  3  4  2  0
  3 18  1  0
  4  5  1  0
  4 19  1  0
  5 16  1  0
  5  6  1  0
  6  7  2  0
  6  8  1  0
  8  9  1  0
  9 16  1  0
  9 10  1  0
  9 20  1  6
 10 11  1  0
 10 12  1  0
 10 21  1  6
 11 22  1  0
 12 13  1  0
 12 15  1  0
 12 23  1  6
 13 14  1  0
 13 24  1  0
 13 25  1  0
 14 26  1  0
 15 16  1  0
 16 27  1  1
M  CHG  1   1   1
M  END
>  <i_m_ct_stereo_status>  (8) 
1

>  <s_m_source_file>  (8) 
/var/tmp/pbs.5076255.sched01/tmp361wbqj1/0nt8_y6ui.sdf

>  <i_m_source_file_index>  (8) 
3

>  <i_lp_mmshare_version>  (8) 
48012

>  <i_f3d_flags>  (8) 
0

>  <s_epik_input>  (8) 
W2NIXTFbY0hdXGMoPU5cW0hdKW5jKG4xMilPW0NAQEhdM1tDQEhdMk9bQ0BASF0oW0NAQEhdM1tPSF0pW0NIMl1bT0hd

>  <s_epik_cmdline>  (8) 
J2VwaWtfcHl0aG9uJywgJy1waHQnLCAnMi4wJywgJy1waCcsICc3LjAnLCAnLXRuJywgJzgnLCAnLW1hJywgJzIwMCcsICctaW1hZScsICc8aW5maWxlLm1hZT4nLCAnLW9tYWUnLCAnPG91dGZpbGUubWFlPic=

>  <r_lp_tautomer_probability>  (8) 
1

>  <r_epik_Ionization_Penalty>  (8) 
2.60182e-05

>  <r_epik_Ionization_Penalty_Charging>  (8) 
2.16182e-05

>  <r_epik_Ionization_Penalty_Neutral>  (8) 
4.39998e-06

>  <r_epik_State_Penalty>  (8) 
-0

>  <r_epik_Charging_Adjusted_Penalty>  (8) 
2.16182e-05

>  <i_epik_Tot_Q>  (8) 
1

>  <i_epik_Tot_abs_Q>  (8) 
1

>  <s_epik_Chemistry_Notes>  (8) 
This compound has an imine and may undergo hydrolysis. This compound contains an acetal/aminal-like group ( X-CH(R)-Y where X, Y are N, S, or O) that may be acid/base labile, releasing an aldehyde.

>  <s_lp_Force_Field>  (8) 
OPLS3e

>  <r_lp_Energy>  (8) 
20.856

>  <b_lp_Chiralities_Consistent>  (8) 
1

>  <s_lp_Variant>  (8) 
2:0-1

>  <s_i_glide_gridfile>  (8) 
pfpi4k_grid

>  <i_i_glide_lignum>  (8) 
3

>  <i_i_glide_rotatable_bonds>  (8) 
3

>  <r_i_docking_score>  (8) 
-4.66115

>  <r_i_glide_ligand_efficiency>  (8) 
-0.291322

>  <r_i_glide_ligand_efficiency_sa>  (8) 
-0.734085

>  <r_i_glide_ligand_efficiency_ln>  (8) 
-1.23553

>  <r_i_glide_gscore>  (8) 
-4.66115

>  <r_i_glide_lipo>  (8) 
0

>  <r_i_glide_hbond>  (8) 
-0.162053

>  <r_i_glide_metal>  (8) 
-0

>  <r_i_glide_rewards>  (8) 
-1.86675

>  <r_i_glide_evdw>  (8) 
-8.60604

>  <r_i_glide_ecoul>  (8) 
-16.0904

>  <r_i_glide_erotb>  (8) 
0.332016

>  <r_i_glide_esite>  (8) 
-0.120494

>  <r_i_glide_emodel>  (8) 
-34.5251

>  <r_i_glide_energy>  (8) 
-24.6964

>  <r_i_glide_einternal>  (8) 
0.52746

>  <r_i_glide_intrahb_reward>  (8) 
-0

>  <i_i_glide_confnum>  (8) 
1

>  <i_i_glide_posenum>  (8) 
28

>  <r_i_glide_eff_state_penalty>  (8) 
0

>  <ligand_id>  (8) 
2

>  <original_smiles>  (8) 
N=c1ccn2c(n1)OC1C(O)C(CO)OC12

>  <smiles>  (8) 
[H]OC([H])([H])C1([H])OC2([H])n3c(nc(=[N+]([H])[H])c([H])c3[H])OC2([H])C1([H])O[H]

$$$$
2:0:2
     RDKit          3D

 28 30  0  0  1  0  0  0  0  0999 V2000
   -2.1344    2.5452   10.8791 N   0  0  0  0  0  0  0  0  0  0  0  0
   -1.7141    2.9296    9.7245 C   0  0  0  0  0  0  0  0  0  0  0  0
   -1.8054    4.2686    9.2040 C   0  0  0  0  0  0  0  0  0  0  0  0
   -1.2763    4.6489    8.0209 C   0  0  0  0  0  0  0  0  0  0  0  0
   -0.6209    3.6893    7.2794 N   0  0  0  0  0  0  0  0  0  0  0  0
   -0.6036    2.3480    7.7773 C   0  0  0  0  0  0  0  0  0  0  0  0
   -1.1120    1.9859    8.9177 N   0  0  0  0  0  0  0  0  0  0  0  0
    0.0295    1.5529    6.8528 O   0  0  0  0  0  0  0  0  0  0  0  0
    0.4176    2.3740    5.7374 C   0  0  1  0  0  0  0  0  0  0  0  0
   -0.4985    2.1763    4.5220 C   0  0  1  0  0  0  0  0  0  0  0  0
   -1.7849    1.6849    4.8809 O   0  0  0  0  0  0  0  0  0  0  0  0
   -0.6189    3.6074    3.9566 C   0  0  1  0  0  0  0  0  0  0  0  0
   -1.9323    3.9783    3.2393 C   0  0  0  0  0  0  0  0  0  0  0  0
   -1.7837    5.1847    2.5195 O   0  0  0  0  0  0  0  0  0  0  0  0
   -0.5347    4.4553    5.1042 O   0  0  0  0  0  0  0  0  0  0  0  0
    0.2189    3.8565    6.1124 C   0  0  1  0  0  0  0  0  0  0  0  0
   -2.0270    1.5918   11.2175 H   0  0  0  0  0  0  0  0  0  0  0  0
   -2.2794    4.9926    9.8281 H   0  0  0  0  0  0  0  0  0  0  0  0
   -1.3603    5.6785    7.6801 H   0  0  0  0  0  0  0  0  0  0  0  0
    1.4560    2.2226    5.4674 H   0  0  0  0  0  0  0  0  0  0  0  0
   -0.0560    1.4750    3.8039 H   0  0  0  0  0  0  0  0  0  0  0  0
   -2.2786    1.5151    4.0890 H   0  0  0  0  0  0  0  0  0  0  0  0
    0.2331    3.7532    3.2872 H   0  0  0  0  0  0  0  0  0  0  0  0
   -2.2267    3.1976    2.5377 H   0  0  0  0  0  0  0  0  0  0  0  0
   -2.7166    4.0817    3.9866 H   0  0  0  0  0  0  0  0  0  0  0  0
   -1.1059    5.0406    1.8706 H   0  0  0  0  0  0  0  0  0  0  0  0
    1.0952    4.3868    6.5118 H   0  0  0  0  0  0  0  0  0  0  0  0
   -2.5980    3.1428   11.5607 H   0  0  0  0  0  0  0  0  0  0  0  0
  1  2  2  3
  1 17  1  0
  1 28  1  0
  2  7  1  0
  2  3  1  0
  3  4  2  0
  3 18  1  0
  4  5  1  0
  4 19  1  0
  5 16  1  0
  5  6  1  0
  6  7  2  0
  6  8  1  0
  8  9  1  0
  9 16  1  0
  9 10  1  0
  9 20  1  6
 10 11  1  0
 10 12  1  0
 10 21  1  6
 11 22  1  0
 12 13  1  0
 12 15  1  0
 12 23  1  6
 13 14  1  0
 13 24  1  0
 13 25  1  0
 14 26  1  0
 15 16  1  0
 16 27  1  1
M  CHG  1   1   1
M  END
>  <i_m_ct_stereo_status>  (9) 
1

>  <s_m_source_file>  (9) 
/var/tmp/pbs.5076255.sched01/tmp361wbqj1/0nt8_y6ui.sdf

>  <i_m_source_file_index>  (9) 
3

>  <i_lp_mmshare_version>  (9) 
48012

>  <i_f3d_flags>  (9) 
0

>  <s_epik_input>  (9) 
W2NIXTFbY0hdXGMoPU5cW0hdKW5jKG4xMilPW0NAQEhdM1tDQEhdMk9bQ0BASF0oW0NAQEhdM1tPSF0pW0NIMl1bT0hd

>  <s_epik_cmdline>  (9) 
J2VwaWtfcHl0aG9uJywgJy1waHQnLCAnMi4wJywgJy1waCcsICc3LjAnLCAnLXRuJywgJzgnLCAnLW1hJywgJzIwMCcsICctaW1hZScsICc8aW5maWxlLm1hZT4nLCAnLW9tYWUnLCAnPG91dGZpbGUubWFlPic=

>  <r_lp_tautomer_probability>  (9) 
1

>  <r_epik_Ionization_Penalty>  (9) 
2.60182e-05

>  <r_epik_Ionization_Penalty_Charging>  (9) 
2.16182e-05

>  <r_epik_Ionization_Penalty_Neutral>  (9) 
4.39998e-06

>  <r_epik_State_Penalty>  (9) 
-0

>  <r_epik_Charging_Adjusted_Penalty>  (9) 
2.16182e-05

>  <i_epik_Tot_Q>  (9) 
1

>  <i_epik_Tot_abs_Q>  (9) 
1

>  <s_epik_Chemistry_Notes>  (9) 
This compound has an imine and may undergo hydrolysis. This compound contains an acetal/aminal-like group ( X-CH(R)-Y where X, Y are N, S, or O) that may be acid/base labile, releasing an aldehyde.

>  <s_lp_Force_Field>  (9) 
OPLS3e

>  <r_lp_Energy>  (9) 
20.856

>  <b_lp_Chiralities_Consistent>  (9) 
1

>  <s_lp_Variant>  (9) 
2:0-1

>  <s_i_glide_gridfile>  (9) 
pfpi4k_grid

>  <i_i_glide_lignum>  (9) 
3

>  <i_i_glide_rotatable_bonds>  (9) 
3

>  <r_i_docking_score>  (9) 
-4.55819

>  <r_i_glide_ligand_efficiency>  (9) 
-0.284887

>  <r_i_glide_ligand_efficiency_sa>  (9) 
-0.71787

>  <r_i_glide_ligand_efficiency_ln>  (9) 
-1.20824

>  <r_i_glide_gscore>  (9) 
-4.55819

>  <r_i_glide_lipo>  (9) 
0

>  <r_i_glide_hbond>  (9) 
-0.0131125

>  <r_i_glide_metal>  (9) 
-0

>  <r_i_glide_rewards>  (9) 
-1.86675

>  <r_i_glide_evdw>  (9) 
-8.87962

>  <r_i_glide_ecoul>  (9) 
-16.3921

>  <r_i_glide_erotb>  (9) 
0.332016

>  <r_i_glide_esite>  (9) 
-0.107536

>  <r_i_glide_emodel>  (9) 
-34.7132

>  <r_i_glide_energy>  (9) 
-25.2718

>  <r_i_glide_einternal>  (9) 
0.851628

>  <r_i_glide_intrahb_reward>  (9) 
-0

>  <i_i_glide_confnum>  (9) 
2

>  <i_i_glide_posenum>  (9) 
14

>  <r_i_glide_eff_state_penalty>  (9) 
0

>  <ligand_id>  (9) 
2

>  <original_smiles>  (9) 
N=c1ccn2c(n1)OC1C(O)C(CO)OC12

>  <smiles>  (9) 
[H]OC([H])([H])C1([H])OC2([H])n3c(nc(=[N+]([H])[H])c([H])c3[H])OC2([H])C1([H])O[H]

$$$$
3:0:0
     RDKit          3D

 31 33  0  0  1  0  0  0  0  0999 V2000
   -8.1937   -5.8197   -7.8796 O   0  0  0  0  0  0  0  0  0  0  0  0
   -7.7124   -6.3163   -6.8802 C   0  0  0  0  0  0  0  0  0  0  0  0
   -7.6840   -5.5200   -5.5818 C   0  0  0  0  0  0  0  0  0  0  0  0
   -6.0212   -5.0977   -5.0739 Cl  0  0  0  0  0  0  0  0  0  0  0  0
   -7.1429   -7.7631   -6.9127 C   0  0  1  0  0  0  0  0  0  0  0  0
   -6.5660   -8.1664   -5.5284 C   0  0  0  0  0  0  0  0  0  0  0  0
   -6.0147   -9.6169   -5.5815 C   0  0  2  0  0  0  0  0  0  0  0  0
   -4.8771   -9.6901   -6.5963 C   0  0  0  0  0  0  0  0  0  0  0  0
   -5.4225   -9.2854   -7.9744 C   0  0  1  0  0  0  0  0  0  0  0  0
   -6.5216  -10.2728   -8.4171 C   0  0  0  0  0  0  0  0  0  0  0  0
   -7.6771  -10.2066   -7.3983 C   0  0  1  0  0  0  0  0  0  0  0  0
   -7.1567  -10.5830   -5.9938 C   0  0  0  0  0  0  0  0  0  0  0  0
   -8.2455   -8.7631   -7.3727 C   0  0  0  0  0  0  0  0  0  0  0  0
   -5.9805   -7.8545   -7.9130 C   0  0  0  0  0  0  0  0  0  0  0  0
   -8.2622   -4.5888   -5.6927 H   0  0  0  0  0  0  0  0  0  0  0  0
   -8.1242   -6.0851   -4.7643 H   0  0  0  0  0  0  0  0  0  0  0  0
   -5.7823   -7.4965   -5.2016 H   0  0  0  0  0  0  0  0  0  0  0  0
   -7.3530   -8.1321   -4.7744 H   0  0  0  0  0  0  0  0  0  0  0  0
   -5.5896   -9.8535   -4.6253 H   0  0  0  0  0  0  0  0  0  0  0  0
   -4.0940   -9.0031   -6.2840 H   0  0  0  0  0  0  0  0  0  0  0  0
   -4.4353  -10.6866   -6.6246 H   0  0  0  0  0  0  0  0  0  0  0  0
   -4.5997   -9.2706   -8.6809 H   0  0  0  0  0  0  0  0  0  0  0  0
   -6.8868  -10.0051   -9.4100 H   0  0  0  0  0  0  0  0  0  0  0  0
   -6.1187  -11.2868   -8.4896 H   0  0  0  0  0  0  0  0  0  0  0  0
   -8.4624  -10.9042   -7.6961 H   0  0  0  0  0  0  0  0  0  0  0  0
   -6.8119  -11.6175   -5.9673 H   0  0  0  0  0  0  0  0  0  0  0  0
   -7.9794  -10.5098   -5.2833 H   0  0  0  0  0  0  0  0  0  0  0  0
   -9.1125   -8.7310   -6.7293 H   0  0  0  0  0  0  0  0  0  0  0  0
   -8.5912   -8.5046   -8.3844 H   0  0  0  0  0  0  0  0  0  0  0  0
   -6.3106   -7.5686   -8.9099 H   0  0  0  0  0  0  0  0  0  0  0  0
   -5.1663   -7.2013   -7.5937 H   0  0  0  0  0  0  0  0  0  0  0  0
  1  2  2  0
  2  3  1  0
  5  2  1  1
  3  4  1  0
  3 15  1  0
  3 16  1  0
  5 13  1  0
  5 14  1  0
  5  6  1  0
  6  7  1  0
  6 17  1  0
  6 18  1  0
  7 12  1  0
  7  8  1  0
  7 19  1  1
  8  9  1  0
  8 20  1  0
  8 21  1  0
  9 10  1  0
  9 14  1  0
  9 22  1  6
 10 11  1  0
 10 23  1  0
 10 24  1  0
 11 12  1  0
 11 13  1  0
 11 25  1  6
 12 26  1  0
 12 27  1  0
 13 28  1  0
 13 29  1  0
 14 30  1  0
 14 31  1  0
M  END
>  <i_m_ct_stereo_status>  (10) 
1

>  <s_m_source_file>  (10) 
/var/tmp/pbs.5076255.sched01/tmp361wbqj1/0nt8_y6ui.sdf

>  <i_m_source_file_index>  (10) 
4

>  <i_lp_mmshare_version>  (10) 
48012

>  <i_f3d_flags>  (10) 
0

>  <s_epik_input>  (10) 
Q2xbQ0gyXUMoPU8pQzEyW0NIMl1bQ0BIXTNbQ0gyXVtDQEBIXShbQ0gyXTIpW0NIMl1bQ0BIXShbQ0gyXTMpW0NIMl0x

>  <s_epik_cmdline>  (10) 
J2VwaWtfcHl0aG9uJywgJy1waHQnLCAnMi4wJywgJy1waCcsICc3LjAnLCAnLXRuJywgJzgnLCAnLW1hJywgJzIwMCcsICctaW1hZScsICc8aW5maWxlLm1hZT4nLCAnLW9tYWUnLCAnPG91dGZpbGUubWFlPic=

>  <r_lp_tautomer_probability>  (10) 
1

>  <r_epik_Ionization_Penalty>  (10) 
1.17721e-11

>  <r_epik_Ionization_Penalty_Charging>  (10) 
0

>  <r_epik_Ionization_Penalty_Neutral>  (10) 
1.17721e-11

>  <r_epik_State_Penalty>  (10) 
-0

>  <r_epik_Charging_Adjusted_Penalty>  (10) 
0

>  <i_epik_Tot_Q>  (10) 
0

>  <i_epik_Tot_abs_Q>  (10) 
0

>  <s_lp_Force_Field>  (10) 
OPLS3e

>  <r_lp_Energy>  (10) 
6.58772

>  <b_lp_Chiralities_Consistent>  (10) 
1

>  <s_lp_Variant>  (10) 
3:0-1

>  <s_i_glide_gridfile>  (10) 
pfpi4k_grid

>  <i_i_glide_lignum>  (10) 
4

>  <i_i_glide_rotatable_bonds>  (10) 
2

>  <r_i_docking_score>  (10) 
-5.12335

>  <r_i_glide_ligand_efficiency>  (10) 
-0.365954

>  <r_i_glide_ligand_efficiency_sa>  (10) 
-0.882

>  <r_i_glide_ligand_efficiency_ln>  (10) 
-1.40788

>  <r_i_glide_gscore>  (10) 
-5.12335

>  <r_i_glide_lipo>  (10) 
-1.97568

>  <r_i_glide_hbond>  (10) 
0

>  <r_i_glide_metal>  (10) 
-0

>  <r_i_glide_rewards>  (10) 
-2.63042

>  <r_i_glide_evdw>  (10) 
-9.43934

>  <r_i_glide_ecoul>  (10) 
-0.301891

>  <r_i_glide_erotb>  (10) 
0

>  <r_i_glide_esite>  (10) 
0

>  <r_i_glide_emodel>  (10) 
-12.2007

>  <r_i_glide_energy>  (10) 
-9.74124

>  <r_i_glide_einternal>  (10) 
5.08004

>  <r_i_glide_intrahb_reward>  (10) 
-0

>  <i_i_glide_confnum>  (10) 
1

>  <i_i_glide_posenum>  (10) 
17

>  <r_i_glide_eff_state_penalty>  (10) 
0

>  <ligand_id>  (10) 
3

>  <original_smiles>  (10) 
O=C(CCl)C12CC3CC(CC(C3)C1)C2

>  <smiles>  (10) 
[H]C([H])(Cl)C(=O)C12C([H])([H])C3([H])C([H])([H])C([H])(C([H])([H])C([H])(C3([H])[H])C1([H])[H])C2([H])[H]

$$$$
3:0:1
     RDKit          3D

 31 33  0  0  1  0  0  0  0  0999 V2000
    2.2180   -4.9132    0.0811 O   0  0  0  0  0  0  0  0  0  0  0  0
    3.0154   -4.2851    0.7762 C   0  0  0  0  0  0  0  0  0  0  0  0
    3.0028   -4.4449    2.2978 C   0  0  0  0  0  0  0  0  0  0  0  0
    1.6631   -5.4678    2.8902 Cl  0  0  0  0  0  0  0  0  0  0  0  0
    4.0511   -3.3265    0.1465 C   0  0  1  0  0  0  0  0  0  0  0  0
    3.8901   -1.8871    0.7121 C   0  0  0  0  0  0  0  0  0  0  0  0
    4.9416   -0.9480    0.0826 C   0  0  2  0  0  0  0  0  0  0  0  0
    4.7458   -0.9102   -1.4479 C   0  0  0  0  0  0  0  0  0  0  0  0
    4.9168   -2.3218   -2.0271 C   0  0  1  0  0  0  0  0  0  0  0  0
    6.3289   -2.8507   -1.7144 C   0  0  0  0  0  0  0  0  0  0  0  0
    6.5316   -2.8823   -0.1832 C   0  0  1  0  0  0  0  0  0  0  0  0
    6.3506   -1.4732    0.4251 C   0  0  0  0  0  0  0  0  0  0  0  0
    5.4901   -3.8323    0.4435 C   0  0  0  0  0  0  0  0  0  0  0  0
    3.8664   -3.2586   -1.3987 C   0  0  0  0  0  0  0  0  0  0  0  0
    3.9324   -4.9048    2.6246 H   0  0  0  0  0  0  0  0  0  0  0  0
    2.9042   -3.4765    2.7844 H   0  0  0  0  0  0  0  0  0  0  0  0
    2.8859   -1.5048    0.5117 H   0  0  0  0  0  0  0  0  0  0  0  0
    4.0139   -1.8680    1.7964 H   0  0  0  0  0  0  0  0  0  0  0  0
    4.8156    0.0564    0.4897 H   0  0  0  0  0  0  0  0  0  0  0  0
    3.7520   -0.5352   -1.6970 H   0  0  0  0  0  0  0  0  0  0  0  0
    5.4613   -0.2398   -1.9171 H   0  0  0  0  0  0  0  0  0  0  0  0
    4.7678   -2.2861   -3.1088 H   0  0  0  0  0  0  0  0  0  0  0  0
    6.4419   -3.8516   -2.1333 H   0  0  0  0  0  0  0  0  0  0  0  0
    7.0887   -2.2350   -2.1950 H   0  0  0  0  0  0  0  0  0  0  0  0
    7.5349   -3.2481    0.0379 H   0  0  0  0  0  0  0  0  0  0  0  0
    7.1186   -0.7857    0.0798 H   0  0  0  0  0  0  0  0  0  0  0  0
    6.4800   -1.5170    1.5096 H   0  0  0  0  0  0  0  0  0  0  0  0
    5.6712   -3.8935    1.5171 H   0  0  0  0  0  0  0  0  0  0  0  0
    5.6274   -4.8420    0.0512 H   0  0  0  0  0  0  0  0  0  0  0  0
    3.9602   -4.2522   -1.8424 H   0  0  0  0  0  0  0  0  0  0  0  0
    2.8632   -2.9039   -1.6497 H   0  0  0  0  0  0  0  0  0  0  0  0
  1  2  2  0
  2  3  1  0
  5  2  1  1
  3  4  1  0
  3 15  1  0
  3 16  1  0
  5 13  1  0
  5 14  1  0
  5  6  1  0
  6  7  1  0
  6 17  1  0
  6 18  1  0
  7 12  1  0
  7  8  1  0
  7 19  1  1
  8  9  1  0
  8 20  1  0
  8 21  1  0
  9 10  1  0
  9 14  1  0
  9 22  1  6
 10 11  1  0
 10 23  1  0
 10 24  1  0
 11 12  1  0
 11 13  1  0
 11 25  1  6
 12 26  1  0
 12 27  1  0
 13 28  1  0
 13 29  1  0
 14 30  1  0
 14 31  1  0
M  END
>  <i_m_ct_stereo_status>  (11) 
1

>  <s_m_source_file>  (11) 
/var/tmp/pbs.5076255.sched01/tmp361wbqj1/0nt8_y6ui.sdf

>  <i_m_source_file_index>  (11) 
4

>  <i_lp_mmshare_version>  (11) 
48012

>  <i_f3d_flags>  (11) 
0

>  <s_epik_input>  (11) 
Q2xbQ0gyXUMoPU8pQzEyW0NIMl1bQ0BIXTNbQ0gyXVtDQEBIXShbQ0gyXTIpW0NIMl1bQ0BIXShbQ0gyXTMpW0NIMl0x

>  <s_epik_cmdline>  (11) 
J2VwaWtfcHl0aG9uJywgJy1waHQnLCAnMi4wJywgJy1waCcsICc3LjAnLCAnLXRuJywgJzgnLCAnLW1hJywgJzIwMCcsICctaW1hZScsICc8aW5maWxlLm1hZT4nLCAnLW9tYWUnLCAnPG91dGZpbGUubWFlPic=

>  <r_lp_tautomer_probability>  (11) 
1

>  <r_epik_Ionization_Penalty>  (11) 
1.17721e-11

>  <r_epik_Ionization_Penalty_Charging>  (11) 
0

>  <r_epik_Ionization_Penalty_Neutral>  (11) 
1.17721e-11

>  <r_epik_State_Penalty>  (11) 
-0

>  <r_epik_Charging_Adjusted_Penalty>  (11) 
0

>  <i_epik_Tot_Q>  (11) 
0

>  <i_epik_Tot_abs_Q>  (11) 
0

>  <s_lp_Force_Field>  (11) 
OPLS3e

>  <r_lp_Energy>  (11) 
6.58772

>  <b_lp_Chiralities_Consistent>  (11) 
1

>  <s_lp_Variant>  (11) 
3:0-1

>  <s_i_glide_gridfile>  (11) 
pfpi4k_grid

>  <i_i_glide_lignum>  (11) 
4

>  <i_i_glide_rotatable_bonds>  (11) 
2

>  <r_i_docking_score>  (11) 
-3.0878

>  <r_i_glide_ligand_efficiency>  (11) 
-0.220557

>  <r_i_glide_ligand_efficiency_sa>  (11) 
-0.531574

>  <r_i_glide_ligand_efficiency_ln>  (11) 
-0.848516

>  <r_i_glide_gscore>  (11) 
-3.0878

>  <r_i_glide_lipo>  (11) 
-0.227942

>  <r_i_glide_hbond>  (11) 
-0.00846602

>  <r_i_glide_metal>  (11) 
-0

>  <r_i_glide_rewards>  (11) 
-1.95876

>  <r_i_glide_evdw>  (11) 
-14.8086

>  <r_i_glide_ecoul>  (11) 
-0.937355

>  <r_i_glide_erotb>  (11) 
0

>  <r_i_glide_esite>  (11) 
-0.0115974

>  <r_i_glide_emodel>  (11) 
-18.9764

>  <r_i_glide_energy>  (11) 
-15.746

>  <r_i_glide_einternal>  (11) 
0.0135929

>  <r_i_glide_intrahb_reward>  (11) 
-0

>  <i_i_glide_confnum>  (11) 
2

>  <i_i_glide_posenum>  (11) 
11

>  <r_i_glide_eff_state_penalty>  (11) 
0

>  <ligand_id>  (11) 
3

>  <original_smiles>  (11) 
O=C(CCl)C12CC3CC(CC(C3)C1)C2

>  <smiles>  (11) 
[H]C([H])(Cl)C(=O)C12C([H])([H])C3([H])C([H])([H])C([H])(C([H])([H])C([H])(C3([H])[H])C1([H])[H])C2([H])[H]

$$$$
4:0:0
     RDKit          3D

 32 35  0  0  1  0  0  0  0  0999 V2000
    4.4043   -3.8371   -3.6403 O   0  0  0  0  0  0  0  0  0  0  0  0
    4.2475   -2.7602   -3.0661 C   0  0  0  0  0  0  0  0  0  0  0  0
    4.0330   -1.6083   -3.6873 N   0  0  0  0  0  0  0  0  0  0  0  0
    3.8797   -0.4848   -2.8017 C   0  0  0  0  0  0  0  0  0  0  0  0
    4.2150   -1.0270   -1.4073 C   0  0  0  0  0  0  0  0  0  0  0  0
    4.2767   -2.5612   -1.5385 C   0  0  2  0  0  0  0  0  0  0  0  0
    5.5652   -3.1606   -0.8956 C   0  0  0  0  0  0  0  0  0  0  0  0
    5.0836   -4.3904   -0.1846 C   0  0  0  0  0  0  0  0  0  0  0  0
    5.8931   -5.3966    0.4659 C   0  0  0  0  0  0  0  0  0  0  0  0
    5.2435   -6.3855    1.0935 C   0  0  0  0  0  0  0  0  0  0  0  0
    3.8376   -6.4721    1.1224 N   0  0  0  0  0  0  0  0  0  0  0  0
    3.0276   -5.5673    0.4954 C   0  0  0  0  0  0  0  0  0  0  0  0
    1.7990   -5.6760    0.4871 O   0  0  0  0  0  0  0  0  0  0  0  0
    3.7459   -4.4664   -0.1561 C   0  0  0  0  0  0  0  0  0  0  0  0
    3.0896   -3.3068   -0.8533 C   0  0  0  0  0  0  0  0  0  0  0  0
    3.3121   -7.6311    1.8595 C   0  0  0  0  0  0  0  0  0  0  0  0
    4.4169   -8.1369    2.7977 C   0  0  0  0  0  0  0  0  0  0  0  0
    5.9681   -7.6939    2.0113 S   0  0  0  0  0  0  0  0  0  0  0  0
    3.9063   -1.5197   -4.6808 H   0  0  0  0  0  0  0  0  0  0  0  0
    4.5500    0.3257   -3.0863 H   0  0  0  0  0  0  0  0  0  0  0  0
    2.8544   -0.1236   -2.8476 H   0  0  0  0  0  0  0  0  0  0  0  0
    5.1814   -0.6199   -1.1005 H   0  0  0  0  0  0  0  0  0  0  0  0
    3.4942   -0.6861   -0.6604 H   0  0  0  0  0  0  0  0  0  0  0  0
    6.3394   -3.4027   -1.6264 H   0  0  0  0  0  0  0  0  0  0  0  0
    6.0089   -2.5054   -0.1387 H   0  0  0  0  0  0  0  0  0  0  0  0
    6.9725   -5.3437    0.4580 H   0  0  0  0  0  0  0  0  0  0  0  0
    2.5719   -2.6976   -0.1110 H   0  0  0  0  0  0  0  0  0  0  0  0
    2.3471   -3.6661   -1.5634 H   0  0  0  0  0  0  0  0  0  0  0  0
    2.4017   -7.3913    2.4194 H   0  0  0  0  0  0  0  0  0  0  0  0
    3.0573   -8.4060    1.1341 H   0  0  0  0  0  0  0  0  0  0  0  0
    4.3720   -7.5962    3.7418 H   0  0  0  0  0  0  0  0  0  0  0  0
    4.3372   -9.1991    3.0185 H   0  0  0  0  0  0  0  0  0  0  0  0
  1  2  2  0
  2  6  1  0
  2  3  1  0
  3  4  1  0
  3 19  1  0
  4  5  1  0
  4 20  1  0
  4 21  1  0
  6  5  1  6
  5 22  1  0
  5 23  1  0
  6 15  1  0
  6  7  1  0
  7  8  1  0
  7 24  1  0
  7 25  1  0
  8 14  2  0
  8  9  1  0
  9 10  2  0
  9 26  1  0
 10 18  1  0
 10 11  1  0
 11 12  1  0
 11 16  1  0
 12 13  2  0
 12 14  1  0
 14 15  1  0
 15 27  1  0
 15 28  1  0
 16 17  1  0
 16 29  1  0
 16 30  1  0
 17 18  1  0
 17 31  1  0
 17 32  1  0
M  END
>  <i_m_ct_stereo_status>  (12) 
1

>  <s_m_source_file>  (12) 
/var/tmp/pbs.5076255.sched01/tmp361wbqj1/0nt8_y6ui.sdf

>  <i_m_source_file_index>  (12) 
5

>  <i_lp_mmshare_version>  (12) 
48012

>  <i_f3d_flags>  (12) 
0

>  <s_epik_input>  (12) 
W0NIMl0xW0NIMl1bTkhdQyg9TylbQ0BAXTEyW0NIMl1jM2MoW0NIMl0yKWMoPU8pbjRjKFtjSF0zKVNbQ0gyXVtDSDJdNA==

>  <s_epik_cmdline>  (12) 
J2VwaWtfcHl0aG9uJywgJy1waHQnLCAnMi4wJywgJy1waCcsICc3LjAnLCAnLXRuJywgJzgnLCAnLW1hJywgJzIwMCcsICctaW1hZScsICc8aW5maWxlLm1hZT4nLCAnLW9tYWUnLCAnPG91dGZpbGUubWFlPic=

>  <r_lp_tautomer_probability>  (12) 
1

>  <r_epik_Ionization_Penalty>  (12) 
4.07085e-07

>  <r_epik_Ionization_Penalty_Charging>  (12) 
3.83581e-07

>  <r_epik_Ionization_Penalty_Neutral>  (12) 
2.3504e-08

>  <r_epik_State_Penalty>  (12) 
-0

>  <r_epik_Charging_Adjusted_Penalty>  (12) 
3.83581e-07

>  <i_epik_Tot_Q>  (12) 
0

>  <i_epik_Tot_abs_Q>  (12) 
0

>  <s_lp_Force_Field>  (12) 
OPLS3e

>  <r_lp_Energy>  (12) 
13.0729

>  <b_lp_Chiralities_Consistent>  (12) 
1

>  <s_lp_Variant>  (12) 
4:0-1

>  <s_i_glide_gridfile>  (12) 
pfpi4k_grid

>  <i_i_glide_lignum>  (12) 
5

>  <i_i_glide_rotatable_bonds>  (12) 
0

>  <r_i_docking_score>  (12) 
-4.10368

>  <r_i_glide_ligand_efficiency>  (12) 
-0.227982

>  <r_i_glide_ligand_efficiency_sa>  (12) 
-0.597483

>  <r_i_glide_ligand_efficiency_ln>  (12) 
-1.05483

>  <r_i_glide_gscore>  (12) 
-4.10368

>  <r_i_glide_lipo>  (12) 
-0.60404

>  <r_i_glide_hbond>  (12) 
-0.0903884

>  <r_i_glide_metal>  (12) 
-0

>  <r_i_glide_rewards>  (12) 
-1.86869

>  <r_i_glide_evdw>  (12) 
-27.6467

>  <r_i_glide_ecoul>  (12) 
-1.05483

>  <r_i_glide_erotb>  (12) 
0

>  <r_i_glide_esite>  (12) 
0

>  <r_i_glide_emodel>  (12) 
-35.9682

>  <r_i_glide_energy>  (12) 
-28.7015

>  <r_i_glide_einternal>  (12) 
0

>  <r_i_glide_intrahb_reward>  (12) 
-0

>  <i_i_glide_confnum>  (12) 
2

>  <i_i_glide_posenum>  (12) 
15

>  <r_i_glide_eff_state_penalty>  (12) 
0

>  <ligand_id>  (12) 
4

>  <original_smiles>  (12) 
O=C1NCCC12Cc1cc3n(c(=O)c1C2)CCS3

>  <smiles>  (12) 
[H]c1c2c(c(=O)n3c1SC([H])([H])C3([H])[H])C([H])([H])C1(C(=O)N([H])C([H])([H])C1([H])[H])C2([H])[H]

$$$$
4:0:1
     RDKit          3D

 32 35  0  0  1  0  0  0  0  0999 V2000
    4.6564   -3.8289   -3.8008 O   0  0  0  0  0  0  0  0  0  0  0  0
    4.3894   -2.7460   -3.2826 C   0  0  0  0  0  0  0  0  0  0  0  0
    3.9543   -1.6786   -3.9459 N   0  0  0  0  0  0  0  0  0  0  0  0
    3.6868   -0.5350   -3.1182 C   0  0  0  0  0  0  0  0  0  0  0  0
    4.1955   -0.9329   -1.7321 C   0  0  0  0  0  0  0  0  0  0  0  0
    4.4929   -2.4426   -1.7805 C   0  0  2  0  0  0  0  0  0  0  0  0
    5.8996   -2.7856   -1.1974 C   0  0  0  0  0  0  0  0  0  0  0  0
    5.6623   -4.0202   -0.3838 C   0  0  0  0  0  0  0  0  0  0  0  0
    6.6629   -4.8266    0.2719 C   0  0  0  0  0  0  0  0  0  0  0  0
    6.2269   -5.8734    0.9875 C   0  0  0  0  0  0  0  0  0  0  0  0
    4.8580   -6.1947    1.1038 N   0  0  0  0  0  0  0  0  0  0  0  0
    3.8732   -5.4770    0.4852 C   0  0  0  0  0  0  0  0  0  0  0  0
    2.6831   -5.7842    0.5571 O   0  0  0  0  0  0  0  0  0  0  0  0
    4.3638   -4.3187   -0.2704 C   0  0  0  0  0  0  0  0  0  0  0  0
    3.4858   -3.3256   -0.9828 C   0  0  0  0  0  0  0  0  0  0  0  0
    4.5777   -7.3779    1.9271 C   0  0  0  0  0  0  0  0  0  0  0  0
    5.8060   -7.6399    2.8143 C   0  0  0  0  0  0  0  0  0  0  0  0
    7.2127   -6.9929    1.9064 S   0  0  0  0  0  0  0  0  0  0  0  0
    3.7144   -1.6727   -4.9232 H   0  0  0  0  0  0  0  0  0  0  0  0
    4.2004    0.3438   -3.4987 H   0  0  0  0  0  0  0  0  0  0  0  0
    2.6187   -0.3339   -3.1056 H   0  0  0  0  0  0  0  0  0  0  0  0
    5.0930   -0.3534   -1.5127 H   0  0  0  0  0  0  0  0  0  0  0  0
    3.4701   -0.6728   -0.9561 H   0  0  0  0  0  0  0  0  0  0  0  0
    6.6567   -2.9565   -1.9654 H   0  0  0  0  0  0  0  0  0  0  0  0
    6.2747   -2.0201   -0.5117 H   0  0  0  0  0  0  0  0  0  0  0  0
    7.7149   -4.6012    0.1799 H   0  0  0  0  0  0  0  0  0  0  0  0
    2.9199   -2.7647   -0.2382 H   0  0  0  0  0  0  0  0  0  0  0  0
    2.7698   -3.8475   -1.6175 H   0  0  0  0  0  0  0  0  0  0  0  0
    3.6769   -7.2553    2.5375 H   0  0  0  0  0  0  0  0  0  0  0  0
    4.4096   -8.2293    1.2600 H   0  0  0  0  0  0  0  0  0  0  0  0
    5.7252   -7.0574    3.7294 H   0  0  0  0  0  0  0  0  0  0  0  0
    5.9169   -8.6846    3.0947 H   0  0  0  0  0  0  0  0  0  0  0  0
  1  2  2  0
  2  6  1  0
  2  3  1  0
  3  4  1  0
  3 19  1  0
  4  5  1  0
  4 20  1  0
  4 21  1  0
  6  5  1  6
  5 22  1  0
  5 23  1  0
  6 15  1  0
  6  7  1  0
  7  8  1  0
  7 24  1  0
  7 25  1  0
  8 14  2  0
  8  9  1  0
  9 10  2  0
  9 26  1  0
 10 18  1  0
 10 11  1  0
 11 12  1  0
 11 16  1  0
 12 13  2  0
 12 14  1  0
 14 15  1  0
 15 27  1  0
 15 28  1  0
 16 17  1  0
 16 29  1  0
 16 30  1  0
 17 18  1  0
 17 31  1  0
 17 32  1  0
M  END
>  <i_m_ct_stereo_status>  (13) 
1

>  <s_m_source_file>  (13) 
/var/tmp/pbs.5076255.sched01/tmp361wbqj1/0nt8_y6ui.sdf

>  <i_m_source_file_index>  (13) 
5

>  <i_lp_mmshare_version>  (13) 
48012

>  <i_f3d_flags>  (13) 
0

>  <s_epik_input>  (13) 
W0NIMl0xW0NIMl1bTkhdQyg9TylbQ0BAXTEyW0NIMl1jM2MoW0NIMl0yKWMoPU8pbjRjKFtjSF0zKVNbQ0gyXVtDSDJdNA==

>  <s_epik_cmdline>  (13) 
J2VwaWtfcHl0aG9uJywgJy1waHQnLCAnMi4wJywgJy1waCcsICc3LjAnLCAnLXRuJywgJzgnLCAnLW1hJywgJzIwMCcsICctaW1hZScsICc8aW5maWxlLm1hZT4nLCAnLW9tYWUnLCAnPG91dGZpbGUubWFlPic=

>  <r_lp_tautomer_probability>  (13) 
1

>  <r_epik_Ionization_Penalty>  (13) 
4.07085e-07

>  <r_epik_Ionization_Penalty_Charging>  (13) 
3.83581e-07

>  <r_epik_Ionization_Penalty_Neutral>  (13) 
2.3504e-08

>  <r_epik_State_Penalty>  (13) 
-0

>  <r_epik_Charging_Adjusted_Penalty>  (13) 
3.83581e-07

>  <i_epik_Tot_Q>  (13) 
0

>  <i_epik_Tot_abs_Q>  (13) 
0

>  <s_lp_Force_Field>  (13) 
OPLS3e

>  <r_lp_Energy>  (13) 
13.0729

>  <b_lp_Chiralities_Consistent>  (13) 
1

>  <s_lp_Variant>  (13) 
4:0-1

>  <s_i_glide_gridfile>  (13) 
pfpi4k_grid

>  <i_i_glide_lignum>  (13) 
5

>  <i_i_glide_rotatable_bonds>  (13) 
0

>  <r_i_docking_score>  (13) 
-3.77661

>  <r_i_glide_ligand_efficiency>  (13) 
-0.209811

>  <r_i_glide_ligand_efficiency_sa>  (13) 
-0.549862

>  <r_i_glide_ligand_efficiency_ln>  (13) 
-0.970757

>  <r_i_glide_gscore>  (13) 
-3.77661

>  <r_i_glide_lipo>  (13) 
-0.536978

>  <r_i_glide_hbond>  (13) 
0

>  <r_i_glide_metal>  (13) 
-0

>  <r_i_glide_rewards>  (13) 
-1.93426

>  <r_i_glide_evdw>  (13) 
-28.4858

>  <r_i_glide_ecoul>  (13) 
0.792807

>  <r_i_glide_erotb>  (13) 
0

>  <r_i_glide_esite>  (13) 
0

>  <r_i_glide_emodel>  (13) 
-34.3462

>  <r_i_glide_energy>  (13) 
-27.693

>  <r_i_glide_einternal>  (13) 
0

>  <r_i_glide_intrahb_reward>  (13) 
-0

>  <i_i_glide_confnum>  (13) 
1

>  <i_i_glide_posenum>  (13) 
1

>  <r_i_glide_eff_state_penalty>  (13) 
0

>  <ligand_id>  (13) 
4

>  <original_smiles>  (13) 
O=C1NCCC12Cc1cc3n(c(=O)c1C2)CCS3

>  <smiles>  (13) 
[H]c1c2c(c(=O)n3c1SC([H])([H])C3([H])[H])C([H])([H])C1(C(=O)N([H])C([H])([H])C1([H])[H])C2([H])[H]

$$$$
4:0:2
     RDKit          3D

 32 35  0  0  1  0  0  0  0  0999 V2000
    4.4569   -0.6905    3.8763 O   0  0  0  0  0  0  0  0  0  0  0  0
    4.1992   -1.3624    2.8790 C   0  0  0  0  0  0  0  0  0  0  0  0
    4.9963   -2.2922    2.3621 N   0  0  0  0  0  0  0  0  0  0  0  0
    4.4429   -2.9651    1.2071 C   0  0  0  0  0  0  0  0  0  0  0  0
    3.1588   -2.1945    0.8829 C   0  0  0  0  0  0  0  0  0  0  0  0
    2.8976   -1.2509    2.0793 C   0  0  2  0  0  0  0  0  0  0  0  0
    2.6190    0.2179    1.6426 C   0  0  0  0  0  0  0  0  0  0  0  0
    1.5124    0.6705    2.5489 C   0  0  0  0  0  0  0  0  0  0  0  0
    0.9539    2.0005    2.6478 C   0  0  0  0  0  0  0  0  0  0  0  0
   -0.1017    2.1582    3.4612 C   0  0  0  0  0  0  0  0  0  0  0  0
   -0.6392    1.0957    4.2134 N   0  0  0  0  0  0  0  0  0  0  0  0
   -0.1159   -0.1632    4.1980 C   0  0  0  0  0  0  0  0  0  0  0  0
   -0.5589   -1.0687    4.9079 O   0  0  0  0  0  0  0  0  0  0  0  0
    1.0051   -0.3384    3.2663 C   0  0  0  0  0  0  0  0  0  0  0  0
    1.6888   -1.6499    2.9800 C   0  0  0  0  0  0  0  0  0  0  0  0
   -1.7794    1.4644    5.0585 C   0  0  0  0  0  0  0  0  0  0  0  0
   -2.3795    2.7677    4.5107 C   0  0  0  0  0  0  0  0  0  0  0  0
   -1.0234    3.6309    3.7190 S   0  0  0  0  0  0  0  0  0  0  0  0
    5.8904   -2.5365    2.7644 H   0  0  0  0  0  0  0  0  0  0  0  0
    5.1457   -2.9422    0.3758 H   0  0  0  0  0  0  0  0  0  0  0  0
    4.2252   -4.0037    1.4469 H   0  0  0  0  0  0  0  0  0  0  0  0
    3.3167   -1.6210   -0.0324 H   0  0  0  0  0  0  0  0  0  0  0  0
    2.3217   -2.8618    0.6773 H   0  0  0  0  0  0  0  0  0  0  0  0
    3.4864    0.8750    1.7240 H   0  0  0  0  0  0  0  0  0  0  0  0
    2.2450    0.2711    0.6179 H   0  0  0  0  0  0  0  0  0  0  0  0
    1.3395    2.8263    2.0650 H   0  0  0  0  0  0  0  0  0  0  0  0
    0.9906   -2.3139    2.4748 H   0  0  0  0  0  0  0  0  0  0  0  0
    1.9882   -2.1281    3.9120 H   0  0  0  0  0  0  0  0  0  0  0  0
   -2.5265    0.6665    5.1001 H   0  0  0  0  0  0  0  0  0  0  0  0
   -1.4061    1.6229    6.0716 H   0  0  0  0  0  0  0  0  0  0  0  0
   -3.1073    2.5414    3.7325 H   0  0  0  0  0  0  0  0  0  0  0  0
   -2.8789    3.3619    5.2734 H   0  0  0  0  0  0  0  0  0  0  0  0
  1  2  2  0
  2  6  1  0
  2  3  1  0
  3  4  1  0
  3 19  1  0
  4  5  1  0
  4 20  1  0
  4 21  1  0
  6  5  1  6
  5 22  1  0
  5 23  1  0
  6 15  1  0
  6  7  1  0
  7  8  1  0
  7 24  1  0
  7 25  1  0
  8 14  2  0
  8  9  1  0
  9 10  2  0
  9 26  1  0
 10 18  1  0
 10 11  1  0
 11 12  1  0
 11 16  1  0
 12 13  2  0
 12 14  1  0
 14 15  1  0
 15 27  1  0
 15 28  1  0
 16 17  1  0
 16 29  1  0
 16 30  1  0
 17 18  1  0
 17 31  1  0
 17 32  1  0
M  END
>  <i_m_ct_stereo_status>  (14) 
1

>  <s_m_source_file>  (14) 
/var/tmp/pbs.5076255.sched01/tmp361wbqj1/0nt8_y6ui.sdf

>  <i_m_source_file_index>  (14) 
5

>  <i_lp_mmshare_version>  (14) 
48012

>  <i_f3d_flags>  (14) 
0

>  <s_epik_input>  (14) 
W0NIMl0xW0NIMl1bTkhdQyg9TylbQ0BAXTEyW0NIMl1jM2MoW0NIMl0yKWMoPU8pbjRjKFtjSF0zKVNbQ0gyXVtDSDJdNA==

>  <s_epik_cmdline>  (14) 
J2VwaWtfcHl0aG9uJywgJy1waHQnLCAnMi4wJywgJy1waCcsICc3LjAnLCAnLXRuJywgJzgnLCAnLW1hJywgJzIwMCcsICctaW1hZScsICc8aW5maWxlLm1hZT4nLCAnLW9tYWUnLCAnPG91dGZpbGUubWFlPic=

>  <r_lp_tautomer_probability>  (14) 
1

>  <r_epik_Ionization_Penalty>  (14) 
4.07085e-07

>  <r_epik_Ionization_Penalty_Charging>  (14) 
3.83581e-07

>  <r_epik_Ionization_Penalty_Neutral>  (14) 
2.3504e-08

>  <r_epik_State_Penalty>  (14) 
-0

>  <r_epik_Charging_Adjusted_Penalty>  (14) 
3.83581e-07

>  <i_epik_Tot_Q>  (14) 
0

>  <i_epik_Tot_abs_Q>  (14) 
0

>  <s_lp_Force_Field>  (14) 
OPLS3e

>  <r_lp_Energy>  (14) 
13.0729

>  <b_lp_Chiralities_Consistent>  (14) 
1

>  <s_lp_Variant>  (14) 
4:0-1

>  <s_i_glide_gridfile>  (14) 
pfpi4k_grid

>  <i_i_glide_lignum>  (14) 
5

>  <i_i_glide_rotatable_bonds>  (14) 
0

>  <r_i_docking_score>  (14) 
-2.93836

>  <r_i_glide_ligand_efficiency>  (14) 
-0.163242

>  <r_i_glide_ligand_efficiency_sa>  (14) 
-0.427816

>  <r_i_glide_ligand_efficiency_ln>  (14) 
-0.755291

>  <r_i_glide_gscore>  (14) 
-2.93836

>  <r_i_glide_lipo>  (14) 
-0.014947

>  <r_i_glide_hbond>  (14) 
0

>  <r_i_glide_metal>  (14) 
-0

>  <r_i_glide_rewards>  (14) 
-1.63383

>  <r_i_glide_evdw>  (14) 
-21.6808

>  <r_i_glide_ecoul>  (14) 
-1.24056

>  <r_i_glide_erotb>  (14) 
0

>  <r_i_glide_esite>  (14) 
-0.0194589

>  <r_i_glide_emodel>  (14) 
-28.114

>  <r_i_glide_energy>  (14) 
-22.9213

>  <r_i_glide_einternal>  (14) 
0

>  <r_i_glide_intrahb_reward>  (14) 
-0

>  <i_i_glide_confnum>  (14) 
2

>  <i_i_glide_posenum>  (14) 
27

>  <r_i_glide_eff_state_penalty>  (14) 
0

>  <ligand_id>  (14) 
4

>  <original_smiles>  (14) 
O=C1NCCC12Cc1cc3n(c(=O)c1C2)CCS3

>  <smiles>  (14) 
[H]c1c2c(c(=O)n3c1SC([H])([H])C3([H])[H])C([H])([H])C1(C(=O)N([H])C([H])([H])C1([H])[H])C2([H])[H]

$$$$
5:0:0
     RDKit          3D

 41 44  0  0  1  0  0  0  0  0999 V2000
   -1.7522   -9.1801    2.5231 C   0  0  0  0  0  0  0  0  0  0  0  0
   -0.4639   -8.3924    2.4825 C   0  0  0  0  0  0  0  0  0  0  0  0
    0.7821   -9.0400    2.4830 C   0  0  0  0  0  0  0  0  0  0  0  0
    1.9321   -8.2323    2.4350 C   0  0  0  0  0  0  0  0  0  0  0  0
    1.7599   -6.8267    2.3959 C   0  0  0  0  0  0  0  0  0  0  0  0
    2.8610   -5.9449    2.3582 N   0  0  0  0  0  0  0  0  0  0  0  0
    4.1410   -6.3571    1.7766 C   0  0  0  0  0  0  0  0  0  0  0  0
    4.5650   -5.3694    0.6861 C   0  0  0  0  0  0  0  0  0  0  0  0
    4.5225   -3.9012    1.1738 C   0  0  0  0  0  0  0  0  0  0  0  0
    4.7973   -3.0067    0.0642 N   0  0  0  0  0  0  0  0  0  0  0  0
    5.8407   -2.1699   -0.0862 C   0  0  0  0  0  0  0  0  0  0  0  0
    5.8782   -1.4567   -1.2136 N   0  0  0  0  0  0  0  0  0  0  0  0
    4.7275   -1.8736   -1.8629 C   0  0  0  0  0  0  0  0  0  0  0  0
    4.1819   -1.4887   -3.1130 C   0  0  0  0  0  0  0  0  0  0  0  0
    2.9863   -2.0686   -3.5746 C   0  0  0  0  0  0  0  0  0  0  0  0
    2.3302   -3.0387   -2.8001 C   0  0  0  0  0  0  0  0  0  0  0  0
    2.8421   -3.4251   -1.5518 C   0  0  0  0  0  0  0  0  0  0  0  0
    4.0329   -2.8447   -1.0893 C   0  0  0  0  0  0  0  0  0  0  0  0
    3.1626   -3.5620    1.8335 C   0  0  0  0  0  0  0  0  0  0  0  0
    2.7814   -4.5859    2.9040 C   0  0  0  0  0  0  0  0  0  0  0  0
    0.5135   -6.2793    2.3980 N   0  0  0  0  0  0  0  0  0  0  0  0
   -0.5829   -7.0475    2.4432 N   0  0  0  0  0  0  0  0  0  0  0  0
   -1.5455  -10.2467    2.5753 H   0  0  0  0  0  0  0  0  0  0  0  0
   -2.3454   -8.9979    1.6309 H   0  0  0  0  0  0  0  0  0  0  0  0
   -2.3477   -8.9020    3.3922 H   0  0  0  0  0  0  0  0  0  0  0  0
    0.8598  -10.1145    2.5077 H   0  0  0  0  0  0  0  0  0  0  0  0
    2.9096   -8.6880    2.4528 H   0  0  0  0  0  0  0  0  0  0  0  0
    4.8882   -6.3972    2.5673 H   0  0  0  0  0  0  0  0  0  0  0  0
    4.0977   -7.3429    1.3117 H   0  0  0  0  0  0  0  0  0  0  0  0
    5.5612   -5.6243    0.3149 H   0  0  0  0  0  0  0  0  0  0  0  0
    3.8958   -5.5204   -0.1622 H   0  0  0  0  0  0  0  0  0  0  0  0
    5.3066   -3.7739    1.9208 H   0  0  0  0  0  0  0  0  0  0  0  0
    6.6088   -2.0788    0.6670 H   0  0  0  0  0  0  0  0  0  0  0  0
    4.6728   -0.7359   -3.7083 H   0  0  0  0  0  0  0  0  0  0  0  0
    2.5595   -1.7771   -4.5182 H   0  0  0  0  0  0  0  0  0  0  0  0
    1.4189   -3.4691   -3.1489 H   0  0  0  0  0  0  0  0  0  0  0  0
    2.3172   -4.1797   -0.9876 H   0  0  0  0  0  0  0  0  0  0  0  0
    3.1909   -2.5537    2.2475 H   0  0  0  0  0  0  0  0  0  0  0  0
    2.3596   -3.5529    1.0998 H   0  0  0  0  0  0  0  0  0  0  0  0
    1.7891   -4.3427    3.2824 H   0  0  0  0  0  0  0  0  0  0  0  0
    3.4631   -4.4972    3.7480 H   0  0  0  0  0  0  0  0  0  0  0  0
  1  2  1  0
  1 23  1  0
  1 24  1  0
  1 25  1  0
  2 22  2  0
  2  3  1  0
  3  4  2  0
  3 26  1  0
  4  5  1  0
  4 27  1  0
  5  6  1  0
  5 21  2  0
  6 20  1  0
  6  7  1  0
  7  8  1  0
  7 28  1  0
  7 29  1  0
  8  9  1  0
  8 30  1  0
  8 31  1  0
  9 10  1  0
  9 19  1  0
  9 32  1  0
 10 18  1  0
 10 11  1  0
 11 12  2  0
 11 33  1  0
 12 13  1  0
 13 18  2  0
 13 14  1  0
 14 15  2  0
 14 34  1  0
 15 16  1  0
 15 35  1  0
 16 17  2  0
 16 36  1  0
 17 18  1  0
 17 37  1  0
 19 20  1  0
 19 38  1  0
 19 39  1  0
 20 40  1  0
 20 41  1  0
 21 22  1  0
M  END
>  <i_m_ct_stereo_status>  (15) 
1

>  <s_m_source_file>  (15) 
/var/tmp/pbs.5076255.sched01/tmp361wbqj1/0nt8_y6ui.sdf

>  <i_m_source_file_index>  (15) 
6

>  <i_lp_mmshare_version>  (15) 
48012

>  <i_f3d_flags>  (15) 
0

>  <s_epik_input>  (15) 
W0NIM11jMVtjSF1bY0hdYyhubjEpTjJbQ0gyXVtDSDJdW0NIXShbQ0gyXVtDSDJdMiluKFtjSF1uMyljKGMzNClbY0hdW2NIXVtjSF1bY0hdNA==

>  <s_epik_cmdline>  (15) 
J2VwaWtfcHl0aG9uJywgJy1waHQnLCAnMi4wJywgJy1waCcsICc3LjAnLCAnLXRuJywgJzgnLCAnLW1hJywgJzIwMCcsICctaW1hZScsICc8aW5maWxlLm1hZT4nLCAnLW9tYWUnLCAnPG91dGZpbGUubWFlPic=

>  <r_lp_tautomer_probability>  (15) 
1

>  <r_epik_Ionization_Penalty>  (15) 
0.0894766

>  <r_epik_Ionization_Penalty_Charging>  (15) 
0

>  <r_epik_Ionization_Penalty_Neutral>  (15) 
0.0894766

>  <r_epik_State_Penalty>  (15) 
0.0798495

>  <r_epik_Charging_Adjusted_Penalty>  (15) 
0.0798495

>  <i_epik_Tot_Q>  (15) 
0

>  <i_epik_Tot_abs_Q>  (15) 
0

>  <s_lp_Force_Field>  (15) 
OPLS3e

>  <r_lp_Energy>  (15) 
26.1428

>  <b_lp_Chiralities_Consistent>  (15) 
1

>  <s_lp_Variant>  (15) 
5:0-1

>  <s_i_glide_gridfile>  (15) 
pfpi4k_grid

>  <i_i_glide_lignum>  (15) 
6

>  <i_i_glide_rotatable_bonds>  (15) 
2

>  <r_i_docking_score>  (15) 
-4.34981

>  <r_i_glide_ligand_efficiency>  (15) 
-0.197718

>  <r_i_glide_ligand_efficiency_sa>  (15) 
-0.554015

>  <r_i_glide_ligand_efficiency_ln>  (15) 
-1.06325

>  <r_i_glide_gscore>  (15) 
-4.34981

>  <r_i_glide_lipo>  (15) 
-0.848033

>  <r_i_glide_hbond>  (15) 
-0.0838077

>  <r_i_glide_metal>  (15) 
-0

>  <r_i_glide_rewards>  (15) 
-1.43592

>  <r_i_glide_evdw>  (15) 
-27.4756

>  <r_i_glide_ecoul>  (15) 
-5.58698

>  <r_i_glide_erotb>  (15) 
0.424609

>  <r_i_glide_esite>  (15) 
-0.194832

>  <r_i_glide_emodel>  (15) 
-42.7343

>  <r_i_glide_energy>  (15) 
-33.0625

>  <r_i_glide_einternal>  (15) 
0.928927

>  <r_i_glide_intrahb_reward>  (15) 
-0

>  <i_i_glide_confnum>  (15) 
5

>  <i_i_glide_posenum>  (15) 
33

>  <r_i_glide_eff_state_penalty>  (15) 
0

>  <ligand_id>  (15) 
5

>  <original_smiles>  (15) 
Cc1ccc(N2CCC(n3cnc4ccccc43)CC2)nn1

>  <smiles>  (15) 
[H]c1c(N2C([H])([H])C([H])([H])C([H])(n3c([H])nc4c([H])c([H])c([H])c([H])c43)C([H])([H])C2([H])[H])nnc(C([H])([H])[H])c1[H]

$$$$
5:0:1
     RDKit          3D

 41 44  0  0  1  0  0  0  0  0999 V2000
    3.6328    0.3500   -4.8040 C   0  0  0  0  0  0  0  0  0  0  0  0
    3.7990   -0.6755   -3.7096 C   0  0  0  0  0  0  0  0  0  0  0  0
    3.2825   -1.9772   -3.8461 C   0  0  0  0  0  0  0  0  0  0  0  0
    3.4829   -2.8605   -2.7703 C   0  0  0  0  0  0  0  0  0  0  0  0
    4.1824   -2.3777   -1.6364 C   0  0  0  0  0  0  0  0  0  0  0  0
    4.4398   -3.2115   -0.5395 N   0  0  0  0  0  0  0  0  0  0  0  0
    4.4503   -2.7079    0.8318 C   0  0  0  0  0  0  0  0  0  0  0  0
    3.4977   -3.5353    1.7066 C   0  0  0  0  0  0  0  0  0  0  0  0
    3.7347   -5.0618    1.5840 C   0  0  0  0  0  0  0  0  0  0  0  0
    2.7362   -5.8349    2.3307 N   0  0  0  0  0  0  0  0  0  0  0  0
    1.7175   -5.3751    3.0952 C   0  0  0  0  0  0  0  0  0  0  0  0
    0.9044   -6.2841    3.6290 N   0  0  0  0  0  0  0  0  0  0  0  0
    1.4872   -7.4679    3.2079 C   0  0  0  0  0  0  0  0  0  0  0  0
    1.1104   -8.8058    3.4586 C   0  0  0  0  0  0  0  0  0  0  0  0
    1.8529   -9.8705    2.9061 C   0  0  0  0  0  0  0  0  0  0  0  0
    2.9893   -9.6148    2.1172 C   0  0  0  0  0  0  0  0  0  0  0  0
    3.3931   -8.2926    1.8748 C   0  0  0  0  0  0  0  0  0  0  0  0
    2.6420   -7.2279    2.4069 C   0  0  0  0  0  0  0  0  0  0  0  0
    3.7268   -5.4678    0.0890 C   0  0  0  0  0  0  0  0  0  0  0  0
    4.7058   -4.6302   -0.7324 C   0  0  0  0  0  0  0  0  0  0  0  0
    4.6541   -1.1087   -1.5834 N   0  0  0  0  0  0  0  0  0  0  0  0
    4.4683   -0.2722   -2.6077 N   0  0  0  0  0  0  0  0  0  0  0  0
    3.0698   -0.0522   -5.6438 H   0  0  0  0  0  0  0  0  0  0  0  0
    4.6116    0.6718   -5.1591 H   0  0  0  0  0  0  0  0  0  0  0  0
    3.1171    1.2355   -4.4392 H   0  0  0  0  0  0  0  0  0  0  0  0
    2.7330   -2.2895   -4.7166 H   0  0  0  0  0  0  0  0  0  0  0  0
    3.0748   -3.8589   -2.8142 H   0  0  0  0  0  0  0  0  0  0  0  0
    5.4680   -2.7752    1.2146 H   0  0  0  0  0  0  0  0  0  0  0  0
    4.1450   -1.6608    0.8811 H   0  0  0  0  0  0  0  0  0  0  0  0
    3.5956   -3.2142    2.7446 H   0  0  0  0  0  0  0  0  0  0  0  0
    2.4806   -3.3003    1.3913 H   0  0  0  0  0  0  0  0  0  0  0  0
    4.7117   -5.2908    2.0134 H   0  0  0  0  0  0  0  0  0  0  0  0
    1.5397   -4.3159    3.2547 H   0  0  0  0  0  0  0  0  0  0  0  0
    0.2500   -9.0051    4.0800 H   0  0  0  0  0  0  0  0  0  0  0  0
    1.5586  -10.8913    3.0953 H   0  0  0  0  0  0  0  0  0  0  0  0
    3.5605  -10.4318    1.6970 H   0  0  0  0  0  0  0  0  0  0  0  0
    4.2766   -8.1175    1.2896 H   0  0  0  0  0  0  0  0  0  0  0  0
    4.0201   -6.5041   -0.0685 H   0  0  0  0  0  0  0  0  0  0  0  0
    2.7142   -5.3679   -0.3107 H   0  0  0  0  0  0  0  0  0  0  0  0
    4.6481   -4.9307   -1.7779 H   0  0  0  0  0  0  0  0  0  0  0  0
    5.7285   -4.8451   -0.4188 H   0  0  0  0  0  0  0  0  0  0  0  0
  1  2  1  0
  1 23  1  0
  1 24  1  0
  1 25  1  0
  2 22  2  0
  2  3  1  0
  3  4  2  0
  3 26  1  0
  4  5  1  0
  4 27  1  0
  5  6  1  0
  5 21  2  0
  6 20  1  0
  6  7  1  0
  7  8  1  0
  7 28  1  0
  7 29  1  0
  8  9  1  0
  8 30  1  0
  8 31  1  0
  9 10  1  0
  9 19  1  0
  9 32  1  0
 10 18  1  0
 10 11  1  0
 11 12  2  0
 11 33  1  0
 12 13  1  0
 13 18  2  0
 13 14  1  0
 14 15  2  0
 14 34  1  0
 15 16  1  0
 15 35  1  0
 16 17  2  0
 16 36  1  0
 17 18  1  0
 17 37  1  0
 19 20  1  0
 19 38  1  0
 19 39  1  0
 20 40  1  0
 20 41  1  0
 21 22  1  0
M  END
>  <i_m_ct_stereo_status>  (16) 
1

>  <s_m_source_file>  (16) 
/var/tmp/pbs.5076255.sched01/tmp361wbqj1/0nt8_y6ui.sdf

>  <i_m_source_file_index>  (16) 
6

>  <i_lp_mmshare_version>  (16) 
48012

>  <i_f3d_flags>  (16) 
0

>  <s_epik_input>  (16) 
W0NIM11jMVtjSF1bY0hdYyhubjEpTjJbQ0gyXVtDSDJdW0NIXShbQ0gyXVtDSDJdMiluKFtjSF1uMyljKGMzNClbY0hdW2NIXVtjSF1bY0hdNA==

>  <s_epik_cmdline>  (16) 
J2VwaWtfcHl0aG9uJywgJy1waHQnLCAnMi4wJywgJy1waCcsICc3LjAnLCAnLXRuJywgJzgnLCAnLW1hJywgJzIwMCcsICctaW1hZScsICc8aW5maWxlLm1hZT4nLCAnLW9tYWUnLCAnPG91dGZpbGUubWFlPic=

>  <r_lp_tautomer_probability>  (16) 
1

>  <r_epik_Ionization_Penalty>  (16) 
0.0894766

>  <r_epik_Ionization_Penalty_Charging>  (16) 
0

>  <r_epik_Ionization_Penalty_Neutral>  (16) 
0.0894766

>  <r_epik_State_Penalty>  (16) 
0.0798495

>  <r_epik_Charging_Adjusted_Penalty>  (16) 
0.0798495

>  <i_epik_Tot_Q>  (16) 
0

>  <i_epik_Tot_abs_Q>  (16) 
0

>  <s_lp_Force_Field>  (16) 
OPLS3e

>  <r_lp_Energy>  (16) 
26.1428

>  <b_lp_Chiralities_Consistent>  (16) 
1

>  <s_lp_Variant>  (16) 
5:0-1

>  <s_i_glide_gridfile>  (16) 
pfpi4k_grid

>  <i_i_glide_lignum>  (16) 
6

>  <i_i_glide_rotatable_bonds>  (16) 
2

>  <r_i_docking_score>  (16) 
-3.47028

>  <r_i_glide_ligand_efficiency>  (16) 
-0.15774

>  <r_i_glide_ligand_efficiency_sa>  (16) 
-0.441993

>  <r_i_glide_ligand_efficiency_ln>  (16) 
-0.848263

>  <r_i_glide_gscore>  (16) 
-3.47028

>  <r_i_glide_lipo>  (16) 
-0.58036

>  <r_i_glide_hbond>  (16) 
0

>  <r_i_glide_metal>  (16) 
-0

>  <r_i_glide_rewards>  (16) 
-1.45413

>  <r_i_glide_evdw>  (16) 
-27.6401

>  <r_i_glide_ecoul>  (16) 
-2.72139

>  <r_i_glide_erotb>  (16) 
0.424609

>  <r_i_glide_esite>  (16) 
-0.0701802

>  <r_i_glide_emodel>  (16) 
-37.2349

>  <r_i_glide_energy>  (16) 
-30.3615

>  <r_i_glide_einternal>  (16) 
2.47162

>  <r_i_glide_intrahb_reward>  (16) 
-0

>  <i_i_glide_confnum>  (16) 
5

>  <i_i_glide_posenum>  (16) 
30

>  <r_i_glide_eff_state_penalty>  (16) 
0

>  <ligand_id>  (16) 
5

>  <original_smiles>  (16) 
Cc1ccc(N2CCC(n3cnc4ccccc43)CC2)nn1

>  <smiles>  (16) 
[H]c1c(N2C([H])([H])C([H])([H])C([H])(n3c([H])nc4c([H])c([H])c([H])c([H])c43)C([H])([H])C2([H])[H])nnc(C([H])([H])[H])c1[H]

$$$$
5:0:2
     RDKit          3D

 41 44  0  0  1  0  0  0  0  0999 V2000
    3.1792    0.2198   -4.8809 C   0  0  0  0  0  0  0  0  0  0  0  0
    3.5433   -0.7581   -3.7792 C   0  0  0  0  0  0  0  0  0  0  0  0
    3.1937   -2.1193   -3.8761 C   0  0  0  0  0  0  0  0  0  0  0  0
    3.5932   -2.9549   -2.8237 C   0  0  0  0  0  0  0  0  0  0  0  0
    4.2912   -2.3850   -1.7355 C   0  0  0  0  0  0  0  0  0  0  0  0
    4.7193   -3.1842   -0.6527 N   0  0  0  0  0  0  0  0  0  0  0  0
    4.7064   -2.6715    0.7122 C   0  0  0  0  0  0  0  0  0  0  0  0
    3.9576   -3.6533    1.6303 C   0  0  0  0  0  0  0  0  0  0  0  0
    4.4680   -5.1081    1.4866 C   0  0  0  0  0  0  0  0  0  0  0  0
    3.6164   -6.0076    2.2567 N   0  0  0  0  0  0  0  0  0  0  0  0
    3.9115   -6.6161    3.4195 C   0  0  0  0  0  0  0  0  0  0  0  0
    2.9611   -7.3852    3.9588 N   0  0  0  0  0  0  0  0  0  0  0  0
    1.9312   -7.2530    3.0422 C   0  0  0  0  0  0  0  0  0  0  0  0
    0.6277   -7.8151    3.0236 C   0  0  0  0  0  0  0  0  0  0  0  0
   -0.2674   -7.5297    1.9682 C   0  0  0  0  0  0  0  0  0  0  0  0
    0.1168   -6.6647    0.9272 C   0  0  0  0  0  0  0  0  0  0  0  0
    1.3878   -6.0722    0.9402 C   0  0  0  0  0  0  0  0  0  0  0  0
    2.2964   -6.3802    1.9738 C   0  0  0  0  0  0  0  0  0  0  0  0
    4.5335   -5.5450   -0.0034 C   0  0  0  0  0  0  0  0  0  0  0  0
    5.2647   -4.5223   -0.8759 C   0  0  0  0  0  0  0  0  0  0  0  0
    4.5811   -1.0589   -1.7075 N   0  0  0  0  0  0  0  0  0  0  0  0
    4.2241   -0.2576   -2.7264 N   0  0  0  0  0  0  0  0  0  0  0  0
    2.6079   -0.2571   -5.6739 H   0  0  0  0  0  0  0  0  0  0  0  0
    4.0762    0.6559   -5.3181 H   0  0  0  0  0  0  0  0  0  0  0  0
    2.5659    1.0196   -4.4788 H   0  0  0  0  0  0  0  0  0  0  0  0
    2.6255   -2.5179   -4.7037 H   0  0  0  0  0  0  0  0  0  0  0  0
    3.3264   -3.9975   -2.8429 H   0  0  0  0  0  0  0  0  0  0  0  0
    5.7379   -2.5631    1.0477 H   0  0  0  0  0  0  0  0  0  0  0  0
    4.2386   -1.6850    0.7818 H   0  0  0  0  0  0  0  0  0  0  0  0
    4.0344   -3.3249    2.6706 H   0  0  0  0  0  0  0  0  0  0  0  0
    2.8951   -3.6042    1.3864 H   0  0  0  0  0  0  0  0  0  0  0  0
    5.4769   -5.1531    1.8976 H   0  0  0  0  0  0  0  0  0  0  0  0
    4.8726   -6.4870    3.9096 H   0  0  0  0  0  0  0  0  0  0  0  0
    0.3358   -8.4790    3.8251 H   0  0  0  0  0  0  0  0  0  0  0  0
   -1.2437   -7.9936    1.9462 H   0  0  0  0  0  0  0  0  0  0  0  0
   -0.5542   -6.4810    0.0985 H   0  0  0  0  0  0  0  0  0  0  0  0
    1.6436   -5.3857    0.1498 H   0  0  0  0  0  0  0  0  0  0  0  0
    4.9821   -6.5424   -0.0923 H   0  0  0  0  0  0  0  0  0  0  0  0
    3.5482   -5.6178   -0.4455 H   0  0  0  0  0  0  0  0  0  0  0  0
    5.1504   -4.8240   -1.9162 H   0  0  0  0  0  0  0  0  0  0  0  0
    6.3264   -4.5230   -0.6401 H   0  0  0  0  0  0  0  0  0  0  0  0
  1  2  1  0
  1 23  1  0
  1 24  1  0
  1 25  1  0
  2 22  2  0
  2  3  1  0
  3  4  2  0
  3 26  1  0
  4  5  1  0
  4 27  1  0
  5  6  1  0
  5 21  2  0
  6 20  1  0
  6  7  1  0
  7  8  1  0
  7 28  1  0
  7 29  1  0
  8  9  1  0
  8 30  1  0
  8 31  1  0
  9 10  1  0
  9 19  1  0
  9 32  1  0
 10 18  1  0
 10 11  1  0
 11 12  2  0
 11 33  1  0
 12 13  1  0
 13 18  2  0
 13 14  1  0
 14 15  2  0
 14 34  1  0
 15 16  1  0
 15 35  1  0
 16 17  2  0
 16 36  1  0
 17 18  1  0
 17 37  1  0
 19 20  1  0
 19 38  1  0
 19 39  1  0
 20 40  1  0
 20 41  1  0
 21 22  1  0
M  END
>  <i_m_ct_stereo_status>  (17) 
1

>  <s_m_source_file>  (17) 
/var/tmp/pbs.5076255.sched01/tmp361wbqj1/0nt8_y6ui.sdf

>  <i_m_source_file_index>  (17) 
6

>  <i_lp_mmshare_version>  (17) 
48012

>  <i_f3d_flags>  (17) 
0

>  <s_epik_input>  (17) 
W0NIM11jMVtjSF1bY0hdYyhubjEpTjJbQ0gyXVtDSDJdW0NIXShbQ0gyXVtDSDJdMiluKFtjSF1uMyljKGMzNClbY0hdW2NIXVtjSF1bY0hdNA==

>  <s_epik_cmdline>  (17) 
J2VwaWtfcHl0aG9uJywgJy1waHQnLCAnMi4wJywgJy1waCcsICc3LjAnLCAnLXRuJywgJzgnLCAnLW1hJywgJzIwMCcsICctaW1hZScsICc8aW5maWxlLm1hZT4nLCAnLW9tYWUnLCAnPG91dGZpbGUubWFlPic=

>  <r_lp_tautomer_probability>  (17) 
1

>  <r_epik_Ionization_Penalty>  (17) 
0.0894766

>  <r_epik_Ionization_Penalty_Charging>  (17) 
0

>  <r_epik_Ionization_Penalty_Neutral>  (17) 
0.0894766

>  <r_epik_State_Penalty>  (17) 
0.0798495

>  <r_epik_Charging_Adjusted_Penalty>  (17) 
0.0798495

>  <i_epik_Tot_Q>  (17) 
0

>  <i_epik_Tot_abs_Q>  (17) 
0

>  <s_lp_Force_Field>  (17) 
OPLS3e

>  <r_lp_Energy>  (17) 
26.1428

>  <b_lp_Chiralities_Consistent>  (17) 
1

>  <s_lp_Variant>  (17) 
5:0-1

>  <s_i_glide_gridfile>  (17) 
pfpi4k_grid

>  <i_i_glide_lignum>  (17) 
6

>  <i_i_glide_rotatable_bonds>  (17) 
2

>  <r_i_docking_score>  (17) 
-3.19916

>  <r_i_glide_ligand_efficiency>  (17) 
-0.145416

>  <r_i_glide_ligand_efficiency_sa>  (17) 
-0.407462

>  <r_i_glide_ligand_efficiency_ln>  (17) 
-0.781991

>  <r_i_glide_gscore>  (17) 
-3.19916

>  <r_i_glide_lipo>  (17) 
-0.492287

>  <r_i_glide_hbond>  (17) 
0

>  <r_i_glide_metal>  (17) 
-0

>  <r_i_glide_rewards>  (17) 
-1.46024

>  <r_i_glide_evdw>  (17) 
-26.8256

>  <r_i_glide_ecoul>  (17) 
-1.8992

>  <r_i_glide_erotb>  (17) 
0.424609

>  <r_i_glide_esite>  (17) 
-0.0450798

>  <r_i_glide_emodel>  (17) 
-34.6387

>  <r_i_glide_energy>  (17) 
-28.7248

>  <r_i_glide_einternal>  (17) 
2.7261

>  <r_i_glide_intrahb_reward>  (17) 
-0

>  <i_i_glide_confnum>  (17) 
5

>  <i_i_glide_posenum>  (17) 
22

>  <r_i_glide_eff_state_penalty>  (17) 
0

>  <ligand_id>  (17) 
5

>  <original_smiles>  (17) 
Cc1ccc(N2CCC(n3cnc4ccccc43)CC2)nn1

>  <smiles>  (17) 
[H]c1c(N2C([H])([H])C([H])([H])C([H])(n3c([H])nc4c([H])c([H])c([H])c([H])c43)C([H])([H])C2([H])[H])nnc(C([H])([H])[H])c1[H]

$$$$
5:1:0
     RDKit          3D

 42 45  0  0  1  0  0  0  0  0999 V2000
   -2.0278   -8.7902    2.6513 C   0  0  0  0  0  0  0  0  0  0  0  0
   -0.6412   -8.2023    2.5203 C   0  0  0  0  0  0  0  0  0  0  0  0
    0.5071   -9.0058    2.6574 C   0  0  0  0  0  0  0  0  0  0  0  0
    1.7576   -8.3775    2.5049 C   0  0  0  0  0  0  0  0  0  0  0  0
    1.7746   -6.9829    2.2474 C   0  0  0  0  0  0  0  0  0  0  0  0
    2.9904   -6.2798    2.1090 N   0  0  0  0  0  0  0  0  0  0  0  0
    4.1320   -6.9129    1.4542 C   0  0  0  0  0  0  0  0  0  0  0  0
    4.6016   -6.0433    0.2782 C   0  0  0  0  0  0  0  0  0  0  0  0
    4.8111   -4.5695    0.6787 C   0  0  0  0  0  0  0  0  0  0  0  0
    5.2056   -3.7518   -0.4943 N   0  0  0  0  0  0  0  0  0  0  0  0
    6.4686   -3.3602   -0.8438 C   0  0  0  0  0  0  0  0  0  0  0  0
    6.3721   -2.6649   -2.0116 N   0  0  0  0  0  0  0  0  0  0  0  0
    5.0336   -2.5972   -2.4107 C   0  0  0  0  0  0  0  0  0  0  0  0
    4.4437   -1.9909   -3.5268 C   0  0  0  0  0  0  0  0  0  0  0  0
    3.0475   -2.1115   -3.6861 C   0  0  0  0  0  0  0  0  0  0  0  0
    2.2853   -2.8431   -2.7579 C   0  0  0  0  0  0  0  0  0  0  0  0
    2.8815   -3.4550   -1.6476 C   0  0  0  0  0  0  0  0  0  0  0  0
    4.2716   -3.3162   -1.4649 C   0  0  0  0  0  0  0  0  0  0  0  0
    3.6024   -3.9802    1.4775 C   0  0  0  0  0  0  0  0  0  0  0  0
    3.1666   -4.9147    2.6183 C   0  0  0  0  0  0  0  0  0  0  0  0
    0.6173   -6.2750    2.1364 N   0  0  0  0  0  0  0  0  0  0  0  0
   -0.5682   -6.8741    2.2631 N   0  0  0  0  0  0  0  0  0  0  0  0
   -1.9762   -9.8552    2.8792 H   0  0  0  0  0  0  0  0  0  0  0  0
   -2.5834   -8.6737    1.7200 H   0  0  0  0  0  0  0  0  0  0  0  0
   -2.5819   -8.2995    3.4533 H   0  0  0  0  0  0  0  0  0  0  0  0
    0.4306  -10.0607    2.8684 H   0  0  0  0  0  0  0  0  0  0  0  0
    2.6687   -8.9394    2.6243 H   0  0  0  0  0  0  0  0  0  0  0  0
    4.9243   -7.0210    2.1955 H   0  0  0  0  0  0  0  0  0  0  0  0
    3.9084   -7.9126    1.0779 H   0  0  0  0  0  0  0  0  0  0  0  0
    5.5310   -6.4518   -0.1185 H   0  0  0  0  0  0  0  0  0  0  0  0
    3.8712   -6.1119   -0.5263 H   0  0  0  0  0  0  0  0  0  0  0  0
    5.6696   -4.5551    1.3485 H   0  0  0  0  0  0  0  0  0  0  0  0
    7.3903   -3.5917   -0.3119 H   0  0  0  0  0  0  0  0  0  0  0  0
    5.0071   -1.4378   -4.2493 H   0  0  0  0  0  0  0  0  0  0  0  0
    2.5369   -1.6516   -4.5207 H   0  0  0  0  0  0  0  0  0  0  0  0
    1.2195   -2.9520   -2.8777 H   0  0  0  0  0  0  0  0  0  0  0  0
    2.2357   -4.1033   -1.0723 H   0  0  0  0  0  0  0  0  0  0  0  0
    3.8528   -2.9666    1.8328 H   0  0  0  0  0  0  0  0  0  0  0  0
    2.6935   -3.9063    0.9023 H   0  0  0  0  0  0  0  0  0  0  0  0
    2.2253   -4.5156    2.9958 H   0  0  0  0  0  0  0  0  0  0  0  0
    3.8924   -4.9000    3.4276 H   0  0  0  0  0  0  0  0  0  0  0  0
    7.1724   -2.3340   -2.5518 H   0  0  0  0  0  0  0  0  0  0  0  0
  1  2  1  0
  1 23  1  0
  1 24  1  0
  1 25  1  0
  2 22  2  0
  2  3  1  0
  3  4  2  0
  3 26  1  0
  4  5  1  0
  4 27  1  0
  5  6  1  0
  5 21  2  0
  6 20  1  0
  6  7  1  0
  7  8  1  0
  7 28  1  0
  7 29  1  0
  8  9  1  0
  8 30  1  0
  8 31  1  0
  9 10  1  0
  9 19  1  0
  9 32  1  0
 10 18  1  0
 10 11  1  0
 11 12  2  0
 11 33  1  0
 12 13  1  0
 12 42  1  0
 13 18  2  0
 13 14  1  0
 14 15  2  0
 14 34  1  0
 15 16  1  0
 15 35  1  0
 16 17  2  0
 16 36  1  0
 17 18  1  0
 17 37  1  0
 19 20  1  0
 19 38  1  0
 19 39  1  0
 20 40  1  0
 20 41  1  0
 21 22  1  0
M  CHG  1  12   1
M  END
>  <i_m_ct_stereo_status>  (18) 
1

>  <s_m_source_file>  (18) 
/var/tmp/pbs.5076255.sched01/tmp361wbqj1/0nt8_y6ui.sdf

>  <i_m_source_file_index>  (18) 
7

>  <i_lp_mmshare_version>  (18) 
48012

>  <i_f3d_flags>  (18) 
0

>  <s_epik_input>  (18) 
W0NIM11jMVtjSF1bY0hdYyhubjEpTjJbQ0gyXVtDSDJdW0NIXShbQ0gyXVtDSDJdMiluKFtjSF1uMyljKGMzNClbY0hdW2NIXVtjSF1bY0hdNA==

>  <s_epik_cmdline>  (18) 
J2VwaWtfcHl0aG9uJywgJy1waHQnLCAnMi4wJywgJy1waCcsICc3LjAnLCAnLXRuJywgJzgnLCAnLW1hJywgJzIwMCcsICctaW1hZScsICc8aW5maWxlLm1hZT4nLCAnLW9tYWUnLCAnPG91dGZpbGUubWFlPic=

>  <r_lp_tautomer_probability>  (18) 
1

>  <r_epik_Ionization_Penalty>  (18) 
1.16444

>  <r_epik_Ionization_Penalty_Charging>  (18) 
1.16441

>  <r_epik_Ionization_Penalty_Neutral>  (18) 
3.35263e-05

>  <r_epik_State_Penalty>  (18) 
1.22693

>  <r_epik_Charging_Adjusted_Penalty>  (18) 
2.39133

>  <i_epik_Tot_Q>  (18) 
1

>  <i_epik_Tot_abs_Q>  (18) 
1

>  <s_lp_Force_Field>  (18) 
OPLS3e

>  <r_lp_Energy>  (18) 
32.2355

>  <b_lp_Chiralities_Consistent>  (18) 
1

>  <s_lp_Variant>  (18) 
5:0-2

>  <s_i_glide_gridfile>  (18) 
pfpi4k_grid

>  <i_i_glide_lignum>  (18) 
7

>  <i_i_glide_rotatable_bonds>  (18) 
2

>  <r_i_docking_score>  (18) 
-4.6164

>  <r_i_glide_ligand_efficiency>  (18) 
-0.209836

>  <r_i_glide_ligand_efficiency_sa>  (18) 
-0.58797

>  <r_i_glide_ligand_efficiency_ln>  (18) 
-1.12842

>  <r_i_glide_gscore>  (18) 
-4.6164

>  <r_i_glide_lipo>  (18) 
-0.948577

>  <r_i_glide_hbond>  (18) 
0

>  <r_i_glide_metal>  (18) 
-0

>  <r_i_glide_rewards>  (18) 
-1.66512

>  <r_i_glide_evdw>  (18) 
-26.3512

>  <r_i_glide_ecoul>  (18) 
-5.99644

>  <r_i_glide_erotb>  (18) 
0.422073

>  <r_i_glide_esite>  (18) 
-0.207746

>  <r_i_glide_emodel>  (18) 
-40.2842

>  <r_i_glide_energy>  (18) 
-32.3477

>  <r_i_glide_einternal>  (18) 
3.25604

>  <r_i_glide_intrahb_reward>  (18) 
-0

>  <i_i_glide_confnum>  (18) 
6

>  <i_i_glide_posenum>  (18) 
20

>  <r_i_glide_eff_state_penalty>  (18) 
0

>  <ligand_id>  (18) 
5

>  <original_smiles>  (18) 
Cc1ccc(N2CCC(n3cnc4ccccc43)CC2)nn1

>  <smiles>  (18) 
[H]c1c(N2C([H])([H])C([H])([H])C([H])(n3c([H])[n+]([H])c4c([H])c([H])c([H])c([H])c43)C([H])([H])C2([H])[H])nnc(C([H])([H])[H])c1[H]

$$$$
5:1:1
     RDKit          3D

 42 45  0  0  1  0  0  0  0  0999 V2000
   -1.9397   -8.8965    2.8049 C   0  0  0  0  0  0  0  0  0  0  0  0
   -0.4315   -8.9372    2.9353 C   0  0  0  0  0  0  0  0  0  0  0  0
    0.2988  -10.0923    2.6045 C   0  0  0  0  0  0  0  0  0  0  0  0
    1.6950  -10.0386    2.7432 C   0  0  0  0  0  0  0  0  0  0  0  0
    2.2706   -8.8359    3.2072 C   0  0  0  0  0  0  0  0  0  0  0  0
    3.6626   -8.7097    3.3568 N   0  0  0  0  0  0  0  0  0  0  0  0
    4.5912   -9.4030    2.4621 C   0  0  0  0  0  0  0  0  0  0  0  0
    5.5549   -8.3964    1.8194 C   0  0  0  0  0  0  0  0  0  0  0  0
    6.2032   -7.4616    2.8714 C   0  0  0  0  0  0  0  0  0  0  0  0
    7.0800   -6.4482    2.2531 N   0  0  0  0  0  0  0  0  0  0  0  0
    8.4160   -6.2503    2.4438 C   0  0  0  0  0  0  0  0  0  0  0  0
    8.7947   -5.1893    1.6789 N   0  0  0  0  0  0  0  0  0  0  0  0
    7.6932   -4.7132    0.9647 C   0  0  0  0  0  0  0  0  0  0  0  0
    7.5892   -3.6674    0.0529 C   0  0  0  0  0  0  0  0  0  0  0  0
    6.3131   -3.4333   -0.5109 C   0  0  0  0  0  0  0  0  0  0  0  0
    5.1982   -4.2133   -0.1474 C   0  0  0  0  0  0  0  0  0  0  0  0
    5.3132   -5.2513    0.8003 C   0  0  0  0  0  0  0  0  0  0  0  0
    6.5807   -5.5021    1.3350 C   0  0  0  0  0  0  0  0  0  0  0  0
    5.1679   -6.8239    3.8270 C   0  0  0  0  0  0  0  0  0  0  0  0
    4.2317   -7.8849    4.4198 C   0  0  0  0  0  0  0  0  0  0  0  0
    1.4963   -7.7588    3.5052 N   0  0  0  0  0  0  0  0  0  0  0  0
    0.1643   -7.8048    3.3710 N   0  0  0  0  0  0  0  0  0  0  0  0
   -2.3250   -9.8544    2.4634 H   0  0  0  0  0  0  0  0  0  0  0  0
   -2.2436   -8.1353    2.0870 H   0  0  0  0  0  0  0  0  0  0  0  0
   -2.4000   -8.6696    3.7665 H   0  0  0  0  0  0  0  0  0  0  0  0
   -0.1844  -10.9885    2.2487 H   0  0  0  0  0  0  0  0  0  0  0  0
    2.2942  -10.9040    2.5085 H   0  0  0  0  0  0  0  0  0  0  0  0
    5.1371  -10.1595    3.0248 H   0  0  0  0  0  0  0  0  0  0  0  0
    4.0701   -9.9127    1.6531 H   0  0  0  0  0  0  0  0  0  0  0  0
    6.3324   -8.9143    1.2514 H   0  0  0  0  0  0  0  0  0  0  0  0
    4.9725   -7.8400    1.0862 H   0  0  0  0  0  0  0  0  0  0  0  0
    6.8603   -8.0823    3.4873 H   0  0  0  0  0  0  0  0  0  0  0  0
    9.0683   -6.8202    3.0988 H   0  0  0  0  0  0  0  0  0  0  0  0
    8.4402   -3.0629   -0.2303 H   0  0  0  0  0  0  0  0  0  0  0  0
    6.1764   -2.6448   -1.2383 H   0  0  0  0  0  0  0  0  0  0  0  0
    4.2363   -4.0224   -0.5995 H   0  0  0  0  0  0  0  0  0  0  0  0
    4.4294   -5.8093    1.0695 H   0  0  0  0  0  0  0  0  0  0  0  0
    5.6790   -6.2813    4.6270 H   0  0  0  0  0  0  0  0  0  0  0  0
    4.5629   -6.0851    3.3028 H   0  0  0  0  0  0  0  0  0  0  0  0
    3.4663   -7.4000    5.0230 H   0  0  0  0  0  0  0  0  0  0  0  0
    4.7859   -8.5289    5.1032 H   0  0  0  0  0  0  0  0  0  0  0  0
    9.7280   -4.8050    1.6970 H   0  0  0  0  0  0  0  0  0  0  0  0
  1  2  1  0
  1 23  1  0
  1 24  1  0
  1 25  1  0
  2 22  2  0
  2  3  1  0
  3  4  2  0
  3 26  1  0
  4  5  1  0
  4 27  1  0
  5  6  1  0
  5 21  2  0
  6 20  1  0
  6  7  1  0
  7  8  1  0
  7 28  1  0
  7 29  1  0
  8  9  1  0
  8 30  1  0
  8 31  1  0
  9 10  1  0
  9 19  1  0
  9 32  1  0
 10 18  1  0
 10 11  1  0
 11 12  2  0
 11 33  1  0
 12 13  1  0
 12 42  1  0
 13 18  2  0
 13 14  1  0
 14 15  2  0
 14 34  1  0
 15 16  1  0
 15 35  1  0
 16 17  2  0
 16 36  1  0
 17 18  1  0
 17 37  1  0
 19 20  1  0
 19 38  1  0
 19 39  1  0
 20 40  1  0
 20 41  1  0
 21 22  1  0
M  CHG  1  12   1
M  END
>  <i_m_ct_stereo_status>  (19) 
1

>  <s_m_source_file>  (19) 
/var/tmp/pbs.5076255.sched01/tmp361wbqj1/0nt8_y6ui.sdf

>  <i_m_source_file_index>  (19) 
7

>  <i_lp_mmshare_version>  (19) 
48012

>  <i_f3d_flags>  (19) 
0

>  <s_epik_input>  (19) 
W0NIM11jMVtjSF1bY0hdYyhubjEpTjJbQ0gyXVtDSDJdW0NIXShbQ0gyXVtDSDJdMiluKFtjSF1uMyljKGMzNClbY0hdW2NIXVtjSF1bY0hdNA==

>  <s_epik_cmdline>  (19) 
J2VwaWtfcHl0aG9uJywgJy1waHQnLCAnMi4wJywgJy1waCcsICc3LjAnLCAnLXRuJywgJzgnLCAnLW1hJywgJzIwMCcsICctaW1hZScsICc8aW5maWxlLm1hZT4nLCAnLW9tYWUnLCAnPG91dGZpbGUubWFlPic=

>  <r_lp_tautomer_probability>  (19) 
1

>  <r_epik_Ionization_Penalty>  (19) 
1.16444

>  <r_epik_Ionization_Penalty_Charging>  (19) 
1.16441

>  <r_epik_Ionization_Penalty_Neutral>  (19) 
3.35263e-05

>  <r_epik_State_Penalty>  (19) 
1.22693

>  <r_epik_Charging_Adjusted_Penalty>  (19) 
2.39133

>  <i_epik_Tot_Q>  (19) 
1

>  <i_epik_Tot_abs_Q>  (19) 
1

>  <s_lp_Force_Field>  (19) 
OPLS3e

>  <r_lp_Energy>  (19) 
32.2355

>  <b_lp_Chiralities_Consistent>  (19) 
1

>  <s_lp_Variant>  (19) 
5:0-2

>  <s_i_glide_gridfile>  (19) 
pfpi4k_grid

>  <i_i_glide_lignum>  (19) 
7

>  <i_i_glide_rotatable_bonds>  (19) 
2

>  <r_i_docking_score>  (19) 
-3.62003

>  <r_i_glide_ligand_efficiency>  (19) 
-0.164547

>  <r_i_glide_ligand_efficiency_sa>  (19) 
-0.461066

>  <r_i_glide_ligand_efficiency_ln>  (19) 
-0.884866

>  <r_i_glide_gscore>  (19) 
-3.62003

>  <r_i_glide_lipo>  (19) 
-0.91984

>  <r_i_glide_hbond>  (19) 
0

>  <r_i_glide_metal>  (19) 
-0

>  <r_i_glide_rewards>  (19) 
-1.44343

>  <r_i_glide_evdw>  (19) 
-23.2108

>  <r_i_glide_ecoul>  (19) 
-2.73146

>  <r_i_glide_erotb>  (19) 
0.422073

>  <r_i_glide_esite>  (19) 
-0.108563

>  <r_i_glide_emodel>  (19) 
-33.2491

>  <r_i_glide_energy>  (19) 
-25.9423

>  <r_i_glide_einternal>  (19) 
1.27806

>  <r_i_glide_intrahb_reward>  (19) 
-0

>  <i_i_glide_confnum>  (19) 
6

>  <i_i_glide_posenum>  (19) 
24

>  <r_i_glide_eff_state_penalty>  (19) 
0

>  <ligand_id>  (19) 
5

>  <original_smiles>  (19) 
Cc1ccc(N2CCC(n3cnc4ccccc43)CC2)nn1

>  <smiles>  (19) 
[H]c1c(N2C([H])([H])C([H])([H])C([H])(n3c([H])[n+]([H])c4c([H])c([H])c([H])c([H])c43)C([H])([H])C2([H])[H])nnc(C([H])([H])[H])c1[H]

$$$$
5:1:2
     RDKit          3D

 42 45  0  0  1  0  0  0  0  0999 V2000
    5.8981   -3.4101   -2.7059 C   0  0  0  0  0  0  0  0  0  0  0  0
    5.1905   -2.7943   -1.5222 C   0  0  0  0  0  0  0  0  0  0  0  0
    4.0147   -3.3683   -1.0142 C   0  0  0  0  0  0  0  0  0  0  0  0
    3.4143   -2.7360    0.0833 C   0  0  0  0  0  0  0  0  0  0  0  0
    4.0304   -1.5783    0.6138 C   0  0  0  0  0  0  0  0  0  0  0  0
    3.4902   -0.9142    1.7361 N   0  0  0  0  0  0  0  0  0  0  0  0
    3.7577    0.4964    1.9886 C   0  0  0  0  0  0  0  0  0  0  0  0
    2.4483    1.2746    2.1998 C   0  0  0  0  0  0  0  0  0  0  0  0
    1.5268    0.6102    3.2493 C   0  0  0  0  0  0  0  0  0  0  0  0
    0.2160    1.2844    3.2664 N   0  0  0  0  0  0  0  0  0  0  0  0
   -0.6180    1.5153    2.2140 C   0  0  0  0  0  0  0  0  0  0  0  0
   -1.7211    2.1487    2.6878 N   0  0  0  0  0  0  0  0  0  0  0  0
   -1.5959    2.3375    4.0622 C   0  0  0  0  0  0  0  0  0  0  0  0
   -2.4607    2.9413    4.9664 C   0  0  0  0  0  0  0  0  0  0  0  0
   -2.0631    2.9487    6.3221 C   0  0  0  0  0  0  0  0  0  0  0  0
   -0.8311    2.3896    6.7256 C   0  0  0  0  0  0  0  0  0  0  0  0
    0.0471    1.7903    5.7895 C   0  0  0  0  0  0  0  0  0  0  0  0
   -0.3589    1.7745    4.4532 C   0  0  0  0  0  0  0  0  0  0  0  0
    1.3350   -0.8854    2.9171 C   0  0  0  0  0  0  0  0  0  0  0  0
    2.6782   -1.6049    2.7353 C   0  0  0  0  0  0  0  0  0  0  0  0
    5.1677   -1.0813    0.0546 N   0  0  0  0  0  0  0  0  0  0  0  0
    5.7391   -1.6746   -1.0017 N   0  0  0  0  0  0  0  0  0  0  0  0
    5.3549   -4.2813   -3.0727 H   0  0  0  0  0  0  0  0  0  0  0  0
    6.9090   -3.7143   -2.4311 H   0  0  0  0  0  0  0  0  0  0  0  0
    5.9635   -2.6866   -3.5140 H   0  0  0  0  0  0  0  0  0  0  0  0
    3.5769   -4.2498   -1.4578 H   0  0  0  0  0  0  0  0  0  0  0  0
    2.4877   -3.1243    0.4672 H   0  0  0  0  0  0  0  0  0  0  0  0
    4.3917    0.5824    2.8708 H   0  0  0  0  0  0  0  0  0  0  0  0
    4.2839    0.9411    1.1454 H   0  0  0  0  0  0  0  0  0  0  0  0
    2.6556    2.3122    2.4758 H   0  0  0  0  0  0  0  0  0  0  0  0
    1.9376    1.3155    1.2409 H   0  0  0  0  0  0  0  0  0  0  0  0
    1.9955    0.7031    4.2285 H   0  0  0  0  0  0  0  0  0  0  0  0
   -0.4291    1.2524    1.1779 H   0  0  0  0  0  0  0  0  0  0  0  0
   -3.4103    3.3458    4.6494 H   0  0  0  0  0  0  0  0  0  0  0  0
   -2.7188    3.3874    7.0636 H   0  0  0  0  0  0  0  0  0  0  0  0
   -0.5550    2.4258    7.7693 H   0  0  0  0  0  0  0  0  0  0  0  0
    0.9907    1.3734    6.1099 H   0  0  0  0  0  0  0  0  0  0  0  0
    0.7524   -1.3759    3.6999 H   0  0  0  0  0  0  0  0  0  0  0  0
    0.7606   -0.9832    1.9956 H   0  0  0  0  0  0  0  0  0  0  0  0
    2.4916   -2.6456    2.4907 H   0  0  0  0  0  0  0  0  0  0  0  0
    3.2233   -1.6214    3.6798 H   0  0  0  0  0  0  0  0  0  0  0  0
   -2.4962    2.4310    2.1003 H   0  0  0  0  0  0  0  0  0  0  0  0
  1  2  1  0
  1 23  1  0
  1 24  1  0
  1 25  1  0
  2 22  2  0
  2  3  1  0
  3  4  2  0
  3 26  1  0
  4  5  1  0
  4 27  1  0
  5  6  1  0
  5 21  2  0
  6 20  1  0
  6  7  1  0
  7  8  1  0
  7 28  1  0
  7 29  1  0
  8  9  1  0
  8 30  1  0
  8 31  1  0
  9 10  1  0
  9 19  1  0
  9 32  1  0
 10 18  1  0
 10 11  1  0
 11 12  2  0
 11 33  1  0
 12 13  1  0
 12 42  1  0
 13 18  2  0
 13 14  1  0
 14 15  2  0
 14 34  1  0
 15 16  1  0
 15 35  1  0
 16 17  2  0
 16 36  1  0
 17 18  1  0
 17 37  1  0
 19 20  1  0
 19 38  1  0
 19 39  1  0
 20 40  1  0
 20 41  1  0
 21 22  1  0
M  CHG  1  12   1
M  END
>  <i_m_ct_stereo_status>  (20) 
1

>  <s_m_source_file>  (20) 
/var/tmp/pbs.5076255.sched01/tmp361wbqj1/0nt8_y6ui.sdf

>  <i_m_source_file_index>  (20) 
7

>  <i_lp_mmshare_version>  (20) 
48012

>  <i_f3d_flags>  (20) 
0

>  <s_epik_input>  (20) 
W0NIM11jMVtjSF1bY0hdYyhubjEpTjJbQ0gyXVtDSDJdW0NIXShbQ0gyXVtDSDJdMiluKFtjSF1uMyljKGMzNClbY0hdW2NIXVtjSF1bY0hdNA==

>  <s_epik_cmdline>  (20) 
J2VwaWtfcHl0aG9uJywgJy1waHQnLCAnMi4wJywgJy1waCcsICc3LjAnLCAnLXRuJywgJzgnLCAnLW1hJywgJzIwMCcsICctaW1hZScsICc8aW5maWxlLm1hZT4nLCAnLW9tYWUnLCAnPG91dGZpbGUubWFlPic=

>  <r_lp_tautomer_probability>  (20) 
1

>  <r_epik_Ionization_Penalty>  (20) 
1.16444

>  <r_epik_Ionization_Penalty_Charging>  (20) 
1.16441

>  <r_epik_Ionization_Penalty_Neutral>  (20) 
3.35263e-05

>  <r_epik_State_Penalty>  (20) 
1.22693

>  <r_epik_Charging_Adjusted_Penalty>  (20) 
2.39133

>  <i_epik_Tot_Q>  (20) 
1

>  <i_epik_Tot_abs_Q>  (20) 
1

>  <s_lp_Force_Field>  (20) 
OPLS3e

>  <r_lp_Energy>  (20) 
32.2355

>  <b_lp_Chiralities_Consistent>  (20) 
1

>  <s_lp_Variant>  (20) 
5:0-2

>  <s_i_glide_gridfile>  (20) 
pfpi4k_grid

>  <i_i_glide_lignum>  (20) 
7

>  <i_i_glide_rotatable_bonds>  (20) 
2

>  <r_i_docking_score>  (20) 
-3.27004

>  <r_i_glide_ligand_efficiency>  (20) 
-0.148638

>  <r_i_glide_ligand_efficiency_sa>  (20) 
-0.41649

>  <r_i_glide_ligand_efficiency_ln>  (20) 
-0.799318

>  <r_i_glide_gscore>  (20) 
-3.27004

>  <r_i_glide_lipo>  (20) 
-0.408931

>  <r_i_glide_hbond>  (20) 
0

>  <r_i_glide_metal>  (20) 
-0

>  <r_i_glide_rewards>  (20) 
-1.40199

>  <r_i_glide_evdw>  (20) 
-25.0919

>  <r_i_glide_ecoul>  (20) 
-2.87929

>  <r_i_glide_erotb>  (20) 
0.422073

>  <r_i_glide_esite>  (20) 
-0.194704

>  <r_i_glide_emodel>  (20) 
-35.0521

>  <r_i_glide_energy>  (20) 
-27.9712

>  <r_i_glide_einternal>  (20) 
0.238173

>  <r_i_glide_intrahb_reward>  (20) 
-0

>  <i_i_glide_confnum>  (20) 
1

>  <i_i_glide_posenum>  (20) 
15

>  <r_i_glide_eff_state_penalty>  (20) 
0

>  <ligand_id>  (20) 
5

>  <original_smiles>  (20) 
Cc1ccc(N2CCC(n3cnc4ccccc43)CC2)nn1

>  <smiles>  (20) 
[H]c1c(N2C([H])([H])C([H])([H])C([H])(n3c([H])[n+]([H])c4c([H])c([H])c([H])c([H])c43)C([H])([H])C2([H])[H])nnc(C([H])([H])[H])c1[H]

$$$$
6:0:0
     RDKit          3D

 52 55  0  0  1  0  0  0  0  0999 V2000
    0.5882   -7.0774    2.7568 C   0  0  0  0  0  0  0  0  0  0  0  0
    2.0713   -7.0422    3.1888 C   0  0  0  0  0  0  0  0  0  0  0  0
    2.5472   -8.5135    3.2857 C   0  0  0  0  0  0  0  0  0  0  0  0
    2.8912   -6.2479    2.1596 C   0  0  0  0  0  0  0  0  0  0  0  0
    3.8813   -6.7837    1.4091 C   0  0  0  0  0  0  0  0  0  0  0  0
    4.7607   -6.0013    0.4568 C   0  0  0  0  0  0  0  0  0  0  0  0
    4.7540   -4.4809    0.7427 C   0  0  2  0  0  0  0  0  0  0  0  0
    5.5960   -4.2455    2.0176 C   0  0  0  0  0  0  0  0  0  0  0  0
    3.2895   -3.9865    0.9570 C   0  0  1  0  0  0  0  0  0  0  0  0
    2.5062   -4.0287   -0.3816 C   0  0  0  0  0  0  0  0  0  0  0  0
    3.1768   -3.1620   -1.4445 C   0  0  0  0  0  0  0  0  0  0  0  0
    4.6191   -3.6209   -1.7107 C   0  0  1  0  0  0  0  0  0  0  0  0
    5.4175   -2.5423   -2.4526 C   0  0  1  0  0  0  0  0  0  0  0  0
    4.6109   -1.8589   -3.3982 O   0  0  0  0  0  0  0  0  0  0  0  0
    5.9639   -1.6842   -1.4875 O   0  0  0  0  0  0  0  0  0  0  0  0
    5.8473   -2.2788   -0.1936 C   0  0  0  0  0  0  0  0  0  0  0  0
    5.4443   -3.7397   -0.4396 C   0  0  1  0  0  0  0  0  0  0  0  0
    2.5417   -4.7541    2.0853 C   0  0  2  0  0  0  0  0  0  0  0  0
    2.6736   -4.0876    3.4783 C   0  0  0  0  0  0  0  0  0  0  0  0
    1.8779   -4.8431    4.5512 C   0  0  0  0  0  0  0  0  0  0  0  0
    2.2385   -6.3454    4.5707 C   0  0  1  0  0  0  0  0  0  0  0  0
    1.4534   -6.9811    5.5638 O   0  0  0  0  0  0  0  0  0  0  0  0
   -0.0080   -7.7290    3.3986 H   0  0  0  0  0  0  0  0  0  0  0  0
    0.4800   -7.4453    1.7364 H   0  0  0  0  0  0  0  0  0  0  0  0
    0.1150   -6.1004    2.7947 H   0  0  0  0  0  0  0  0  0  0  0  0
    1.9787   -9.0965    4.0116 H   0  0  0  0  0  0  0  0  0  0  0  0
    3.5954   -8.5873    3.5781 H   0  0  0  0  0  0  0  0  0  0  0  0
    2.4342   -9.0331    2.3315 H   0  0  0  0  0  0  0  0  0  0  0  0
    4.1479   -7.8315    1.4581 H   0  0  0  0  0  0  0  0  0  0  0  0
    5.7806   -6.3861    0.5410 H   0  0  0  0  0  0  0  0  0  0  0  0
    4.4415   -6.2316   -0.5611 H   0  0  0  0  0  0  0  0  0  0  0  0
    5.4414   -3.2411    2.4126 H   0  0  0  0  0  0  0  0  0  0  0  0
    6.6658   -4.3604    1.8347 H   0  0  0  0  0  0  0  0  0  0  0  0
    5.3357   -4.9383    2.8210 H   0  0  0  0  0  0  0  0  0  0  0  0
    3.3042   -2.9317    1.2354 H   0  0  0  0  0  0  0  0  0  0  0  0
    2.3947   -5.0579   -0.7260 H   0  0  0  0  0  0  0  0  0  0  0  0
    1.4917   -3.6373   -0.2964 H   0  0  0  0  0  0  0  0  0  0  0  0
    2.5873   -3.2072   -2.3620 H   0  0  0  0  0  0  0  0  0  0  0  0
    3.1346   -2.1211   -1.1143 H   0  0  0  0  0  0  0  0  0  0  0  0
    4.6156   -4.5461   -2.2894 H   0  0  0  0  0  0  0  0  0  0  0  0
    6.2562   -3.0003   -2.9837 H   0  0  0  0  0  0  0  0  0  0  0  0
    3.8308   -1.5741   -2.9422 H   0  0  0  0  0  0  0  0  0  0  0  0
    6.7976   -2.2231    0.3414 H   0  0  0  0  0  0  0  0  0  0  0  0
    5.0830   -1.7382    0.3720 H   0  0  0  0  0  0  0  0  0  0  0  0
    6.3589   -4.2802   -0.6893 H   0  0  0  0  0  0  0  0  0  0  0  0
    1.4868   -4.6926    1.8248 H   0  0  0  0  0  0  0  0  0  0  0  0
    3.7092   -4.0521    3.8143 H   0  0  0  0  0  0  0  0  0  0  0  0
    2.3239   -3.0538    3.4266 H   0  0  0  0  0  0  0  0  0  0  0  0
    2.0937   -4.4017    5.5264 H   0  0  0  0  0  0  0  0  0  0  0  0
    0.8059   -4.7052    4.3927 H   0  0  0  0  0  0  0  0  0  0  0  0
    3.2787   -6.4470    4.8890 H   0  0  0  0  0  0  0  0  0  0  0  0
    1.6399   -7.9049    5.5493 H   0  0  0  0  0  0  0  0  0  0  0  0
  1  2  1  0
  1 23  1  0
  1 24  1  0
  1 25  1  0
  2 21  1  0
  2  3  1  0
  2  4  1  0
  3 26  1  0
  3 27  1  0
  3 28  1  0
  4 18  1  0
  4  5  2  0
  5  6  1  0
  5 29  1  0
  6  7  1  0
  6 30  1  0
  6 31  1  0
  7 17  1  0
  7  8  1  1
  7  9  1  0
  8 32  1  0
  8 33  1  0
  8 34  1  0
  9 10  1  0
  9 18  1  0
  9 35  1  1
 10 11  1  0
 10 36  1  0
 10 37  1  0
 11 12  1  0
 11 38  1  0
 11 39  1  0
 12 17  1  0
 12 13  1  0
 12 40  1  6
 13 14  1  0
 13 15  1  0
 13 41  1  6
 14 42  1  0
 15 16  1  0
 16 17  1  0
 16 43  1  0
 16 44  1  0
 17 45  1  6
 18 19  1  0
 18 46  1  6
 19 20  1  0
 19 47  1  0
 19 48  1  0
 20 21  1  0
 20 49  1  0
 20 50  1  0
 21 22  1  0
 21 51  1  1
 22 52  1  0
M  END
>  <i_m_ct_stereo_status>  (21) 
1

>  <s_m_source_file>  (21) 
/var/tmp/pbs.5076255.sched01/tmp361wbqj1/0nt8_y6ui.sdf

>  <i_m_source_file_index>  (21) 
8

>  <i_lp_mmshare_version>  (21) 
48012

>  <i_f3d_flags>  (21) 
0

>  <s_epik_input>  (21) 
W0NIMl0xW0NIMl1bQ0BASF0oW09IXSlDKFtDSDNdKShbQ0gzXSlDKD1bQ0hdW0NIMl0yKVtDQEBIXTFbQ0BASF0oW0NAQF0yM1tDSDNdKVtDSDJdW0NIMl1bQ0BASF00W0NASF0zW0NIMl1PW0NAQEhdNFtPSF0=

>  <s_epik_cmdline>  (21) 
J2VwaWtfcHl0aG9uJywgJy1waHQnLCAnMi4wJywgJy1waCcsICc3LjAnLCAnLXRuJywgJzgnLCAnLW1hJywgJzIwMCcsICctaW1hZScsICc8aW5maWxlLm1hZT4nLCAnLW9tYWUnLCAnPG91dGZpbGUubWFlPic=

>  <r_lp_tautomer_probability>  (21) 
1

>  <r_epik_Ionization_Penalty>  (21) 
8.72359e-07

>  <r_epik_Ionization_Penalty_Charging>  (21) 
0

>  <r_epik_Ionization_Penalty_Neutral>  (21) 
8.72359e-07

>  <r_epik_State_Penalty>  (21) 
-0

>  <r_epik_Charging_Adjusted_Penalty>  (21) 
0

>  <i_epik_Tot_Q>  (21) 
0

>  <i_epik_Tot_abs_Q>  (21) 
0

>  <s_epik_Chemistry_Notes>  (21) 
This compound contains an acetal/aminal-like group ( X-CH(R)-Y where X, Y are N, S, or O) that may be acid/base labile, releasing an aldehyde.

>  <s_lp_Force_Field>  (21) 
OPLS3e

>  <r_lp_Energy>  (21) 
26.2367

>  <b_lp_Chiralities_Consistent>  (21) 
1

>  <s_lp_Variant>  (21) 
6:0-1

>  <s_i_glide_gridfile>  (21) 
pfpi4k_grid

>  <i_i_glide_lignum>  (21) 
8

>  <i_i_glide_rotatable_bonds>  (21) 
2

>  <r_i_docking_score>  (21) 
-3.57775

>  <r_i_glide_ligand_efficiency>  (21) 
-0.162625

>  <r_i_glide_ligand_efficiency_sa>  (21) 
-0.455682

>  <r_i_glide_ligand_efficiency_ln>  (21) 
-0.874533

>  <r_i_glide_gscore>  (21) 
-3.57775

>  <r_i_glide_lipo>  (21) 
-0.378986

>  <r_i_glide_hbond>  (21) 
-0.101621

>  <r_i_glide_metal>  (21) 
-0

>  <r_i_glide_rewards>  (21) 
-1.45287

>  <r_i_glide_evdw>  (21) 
-22.1995

>  <r_i_glide_ecoul>  (21) 
-3.56199

>  <r_i_glide_erotb>  (21) 
0

>  <r_i_glide_esite>  (21) 
0

>  <r_i_glide_emodel>  (21) 
-31.6986

>  <r_i_glide_energy>  (21) 
-25.7615

>  <r_i_glide_einternal>  (21) 
0.355822

>  <r_i_glide_intrahb_reward>  (21) 
-0

>  <i_i_glide_confnum>  (21) 
1

>  <i_i_glide_posenum>  (21) 
5

>  <r_i_glide_eff_state_penalty>  (21) 
0

>  <ligand_id>  (21) 
6

>  <original_smiles>  (21) 
CC1(C)C2=CCC3(C)C(CCC4C(O)OCC43)C2CCC1O

>  <smiles>  (21) 
[H]OC1([H])OC([H])([H])C2([H])C1([H])C([H])([H])C([H])([H])C1([H])C3([H])C(=C([H])C([H])([H])C12C([H])([H])[H])C(C([H])([H])[H])(C([H])([H])[H])C([H])(O[H])C([H])([H])C3([H])[H]

$$$$
6:0:1
     RDKit          3D

 52 55  0  0  1  0  0  0  0  0999 V2000
    0.8436   -7.5417    2.6848 C   0  0  0  0  0  0  0  0  0  0  0  0
    2.3259   -7.4690    3.1177 C   0  0  0  0  0  0  0  0  0  0  0  0
    2.8613   -8.9235    3.1337 C   0  0  0  0  0  0  0  0  0  0  0  0
    3.1089   -6.5899    2.1323 C   0  0  0  0  0  0  0  0  0  0  0  0
    4.1189   -7.0451    1.3544 C   0  0  0  0  0  0  0  0  0  0  0  0
    4.9630   -6.1767    0.4453 C   0  0  0  0  0  0  0  0  0  0  0  0
    4.8993   -4.6767    0.8093 C   0  0  2  0  0  0  0  0  0  0  0  0
    5.7334   -4.4779    2.0957 C   0  0  0  0  0  0  0  0  0  0  0  0
    3.4159   -4.2588    1.0467 C   0  0  1  0  0  0  0  0  0  0  0  0
    2.6304   -4.2546   -0.2916 C   0  0  0  0  0  0  0  0  0  0  0  0
    3.2639   -3.2982   -1.3016 C   0  0  0  0  0  0  0  0  0  0  0  0
    4.7248   -3.6866   -1.5937 C   0  0  1  0  0  0  0  0  0  0  0  0
    5.4783   -2.5375   -2.2754 C   0  0  1  0  0  0  0  0  0  0  0  0
    4.6443   -1.8338   -3.1783 O   0  0  0  0  0  0  0  0  0  0  0  0
    6.0010   -1.7166   -1.2626 O   0  0  0  0  0  0  0  0  0  0  0  0
    5.9042   -2.3847   -0.0020 C   0  0  0  0  0  0  0  0  0  0  0  0
    5.5560   -3.8429   -0.3292 C   0  0  1  0  0  0  0  0  0  0  0  0
    2.6992   -5.1113    2.1345 C   0  0  2  0  0  0  0  0  0  0  0  0
    2.8146   -4.5151    3.5605 C   0  0  0  0  0  0  0  0  0  0  0  0
    2.0515   -5.3543    4.5928 C   0  0  0  0  0  0  0  0  0  0  0  0
    2.4675   -6.8396    4.5343 C   0  0  1  0  0  0  0  0  0  0  0  0
    1.6903   -7.5433    5.4819 O   0  0  0  0  0  0  0  0  0  0  0  0
    0.2759   -8.2571    3.2828 H   0  0  0  0  0  0  0  0  0  0  0  0
    0.7510   -7.8565    1.6449 H   0  0  0  0  0  0  0  0  0  0  0  0
    0.3265   -6.5891    2.7737 H   0  0  0  0  0  0  0  0  0  0  0  0
    2.3207   -9.5621    3.8340 H   0  0  0  0  0  0  0  0  0  0  0  0
    3.9128   -8.9723    3.4200 H   0  0  0  0  0  0  0  0  0  0  0  0
    2.7651   -9.3994    2.1546 H   0  0  0  0  0  0  0  0  0  0  0  0
    4.4261   -8.0832    1.3485 H   0  0  0  0  0  0  0  0  0  0  0  0
    5.9978   -6.5249    0.5056 H   0  0  0  0  0  0  0  0  0  0  0  0
    4.6430   -6.3625   -0.5822 H   0  0  0  0  0  0  0  0  0  0  0  0
    5.5436   -3.5029    2.5448 H   0  0  0  0  0  0  0  0  0  0  0  0
    6.8063   -4.5411    1.9061 H   0  0  0  0  0  0  0  0  0  0  0  0
    5.5025   -5.2211    2.8624 H   0  0  0  0  0  0  0  0  0  0  0  0
    3.3917   -3.2231    1.3851 H   0  0  0  0  0  0  0  0  0  0  0  0
    2.5603   -5.2556   -0.7143 H   0  0  0  0  0  0  0  0  0  0  0  0
    1.6022   -3.9280   -0.1514 H   0  0  0  0  0  0  0  0  0  0  0  0
    2.6734   -3.3184   -2.2195 H   0  0  0  0  0  0  0  0  0  0  0  0
    3.1813   -2.2821   -0.9098 H   0  0  0  0  0  0  0  0  0  0  0  0
    4.7532   -4.5796   -2.2179 H   0  0  0  0  0  0  0  0  0  0  0  0
    6.3318   -2.9356   -2.8352 H   0  0  0  0  0  0  0  0  0  0  0  0
    3.8525   -1.6102   -2.7075 H   0  0  0  0  0  0  0  0  0  0  0  0
    6.8517   -2.3213    0.5357 H   0  0  0  0  0  0  0  0  0  0  0  0
    5.1195   -1.9063    0.5905 H   0  0  0  0  0  0  0  0  0  0  0  0
    6.4903   -4.3320   -0.6062 H   0  0  0  0  0  0  0  0  0  0  0  0
    1.6416   -5.0748    1.8776 H   0  0  0  0  0  0  0  0  0  0  0  0
    3.8493   -4.4604    3.8941 H   0  0  0  0  0  0  0  0  0  0  0  0
    2.4254   -3.4951    3.5705 H   0  0  0  0  0  0  0  0  0  0  0  0
    2.2542   -4.9611    5.5915 H   0  0  0  0  0  0  0  0  0  0  0  0
    0.9749   -5.2499    4.4438 H   0  0  0  0  0  0  0  0  0  0  0  0
    3.5066   -6.9234    4.8584 H   0  0  0  0  0  0  0  0  0  0  0  0
    0.8446   -7.7067    5.1033 H   0  0  0  0  0  0  0  0  0  0  0  0
  1  2  1  0
  1 23  1  0
  1 24  1  0
  1 25  1  0
  2 21  1  0
  2  3  1  0
  2  4  1  0
  3 26  1  0
  3 27  1  0
  3 28  1  0
  4 18  1  0
  4  5  2  0
  5  6  1  0
  5 29  1  0
  6  7  1  0
  6 30  1  0
  6 31  1  0
  7 17  1  0
  7  8  1  1
  7  9  1  0
  8 32  1  0
  8 33  1  0
  8 34  1  0
  9 10  1  0
  9 18  1  0
  9 35  1  1
 10 11  1  0
 10 36  1  0
 10 37  1  0
 11 12  1  0
 11 38  1  0
 11 39  1  0
 12 17  1  0
 12 13  1  0
 12 40  1  6
 13 14  1  0
 13 15  1  0
 13 41  1  6
 14 42  1  0
 15 16  1  0
 16 17  1  0
 16 43  1  0
 16 44  1  0
 17 45  1  6
 18 19  1  0
 18 46  1  6
 19 20  1  0
 19 47  1  0
 19 48  1  0
 20 21  1  0
 20 49  1  0
 20 50  1  0
 21 22  1  0
 21 51  1  1
 22 52  1  0
M  END
>  <i_m_ct_stereo_status>  (22) 
1

>  <s_m_source_file>  (22) 
/var/tmp/pbs.5076255.sched01/tmp361wbqj1/0nt8_y6ui.sdf

>  <i_m_source_file_index>  (22) 
8

>  <i_lp_mmshare_version>  (22) 
48012

>  <i_f3d_flags>  (22) 
0

>  <s_epik_input>  (22) 
W0NIMl0xW0NIMl1bQ0BASF0oW09IXSlDKFtDSDNdKShbQ0gzXSlDKD1bQ0hdW0NIMl0yKVtDQEBIXTFbQ0BASF0oW0NAQF0yM1tDSDNdKVtDSDJdW0NIMl1bQ0BASF00W0NASF0zW0NIMl1PW0NAQEhdNFtPSF0=

>  <s_epik_cmdline>  (22) 
J2VwaWtfcHl0aG9uJywgJy1waHQnLCAnMi4wJywgJy1waCcsICc3LjAnLCAnLXRuJywgJzgnLCAnLW1hJywgJzIwMCcsICctaW1hZScsICc8aW5maWxlLm1hZT4nLCAnLW9tYWUnLCAnPG91dGZpbGUubWFlPic=

>  <r_lp_tautomer_probability>  (22) 
1

>  <r_epik_Ionization_Penalty>  (22) 
8.72359e-07

>  <r_epik_Ionization_Penalty_Charging>  (22) 
0

>  <r_epik_Ionization_Penalty_Neutral>  (22) 
8.72359e-07

>  <r_epik_State_Penalty>  (22) 
-0

>  <r_epik_Charging_Adjusted_Penalty>  (22) 
0

>  <i_epik_Tot_Q>  (22) 
0

>  <i_epik_Tot_abs_Q>  (22) 
0

>  <s_epik_Chemistry_Notes>  (22) 
This compound contains an acetal/aminal-like group ( X-CH(R)-Y where X, Y are N, S, or O) that may be acid/base labile, releasing an aldehyde.

>  <s_lp_Force_Field>  (22) 
OPLS3e

>  <r_lp_Energy>  (22) 
26.2367

>  <b_lp_Chiralities_Consistent>  (22) 
1

>  <s_lp_Variant>  (22) 
6:0-1

>  <s_i_glide_gridfile>  (22) 
pfpi4k_grid

>  <i_i_glide_lignum>  (22) 
8

>  <i_i_glide_rotatable_bonds>  (22) 
2

>  <r_i_docking_score>  (22) 
-3.49747

>  <r_i_glide_ligand_efficiency>  (22) 
-0.158976

>  <r_i_glide_ligand_efficiency_sa>  (22) 
-0.445457

>  <r_i_glide_ligand_efficiency_ln>  (22) 
-0.85491

>  <r_i_glide_gscore>  (22) 
-3.49747

>  <r_i_glide_lipo>  (22) 
-0.465297

>  <r_i_glide_hbond>  (22) 
-0.100801

>  <r_i_glide_metal>  (22) 
-0

>  <r_i_glide_rewards>  (22) 
-1.39492

>  <r_i_glide_evdw>  (22) 
-21.7582

>  <r_i_glide_ecoul>  (22) 
-2.9903

>  <r_i_glide_erotb>  (22) 
0

>  <r_i_glide_esite>  (22) 
0

>  <r_i_glide_emodel>  (22) 
-30.5878

>  <r_i_glide_energy>  (22) 
-24.7485

>  <r_i_glide_einternal>  (22) 
0.178783

>  <r_i_glide_intrahb_reward>  (22) 
-0

>  <i_i_glide_confnum>  (22) 
1

>  <i_i_glide_posenum>  (22) 
1

>  <r_i_glide_eff_state_penalty>  (22) 
0

>  <ligand_id>  (22) 
6

>  <original_smiles>  (22) 
CC1(C)C2=CCC3(C)C(CCC4C(O)OCC43)C2CCC1O

>  <smiles>  (22) 
[H]OC1([H])OC([H])([H])C2([H])C1([H])C([H])([H])C([H])([H])C1([H])C3([H])C(=C([H])C([H])([H])C12C([H])([H])[H])C(C([H])([H])[H])(C([H])([H])[H])C([H])(O[H])C([H])([H])C3([H])[H]

$$$$
6:0:2
     RDKit          3D

 52 55  0  0  1  0  0  0  0  0999 V2000
    0.0866   -7.5813    2.2518 C   0  0  0  0  0  0  0  0  0  0  0  0
    1.5037   -7.9043    2.7922 C   0  0  0  0  0  0  0  0  0  0  0  0
    1.7511   -9.4236    2.5728 C   0  0  0  0  0  0  0  0  0  0  0  0
    2.5531   -7.0411    2.0604 C   0  0  0  0  0  0  0  0  0  0  0  0
    3.5416   -7.5481    1.2798 C   0  0  0  0  0  0  0  0  0  0  0  0
    4.6165   -6.7306    0.5997 C   0  0  0  0  0  0  0  0  0  0  0  0
    4.8164   -5.3397    1.2457 C   0  0  2  0  0  0  0  0  0  0  0  0
    5.5599   -5.5543    2.5909 C   0  0  0  0  0  0  0  0  0  0  0  0
    3.4172   -4.6727    1.4559 C   0  0  1  0  0  0  0  0  0  0  0  0
    2.7797   -4.2659    0.0939 C   0  0  0  0  0  0  0  0  0  0  0  0
    3.6932   -3.3066   -0.6706 C   0  0  0  0  0  0  0  0  0  0  0  0
    5.0814   -3.9366   -0.9342 C   0  0  1  0  0  0  0  0  0  0  0  0
    6.1075   -2.8973   -1.3223 C   0  0  1  0  0  0  0  0  0  0  0  0
    5.5659   -1.8616   -2.0871 O   0  0  0  0  0  0  0  0  0  0  0  0
    6.6426   -2.3957   -0.1583 O   0  0  0  0  0  0  0  0  0  0  0  0
    6.3053   -3.2150    0.9354 C   0  0  0  0  0  0  0  0  0  0  0  0
    5.7283   -4.4778    0.3234 C   0  0  1  0  0  0  0  0  0  0  0  0
    2.4410   -5.5289    2.3152 C   0  0  2  0  0  0  0  0  0  0  0  0
    2.4874   -5.2164    3.8356 C   0  0  0  0  0  0  0  0  0  0  0  0
    1.4955   -6.0610    4.6338 C   0  0  0  0  0  0  0  0  0  0  0  0
    1.6284   -7.5693    4.3142 C   0  0  1  0  0  0  0  0  0  0  0  0
    0.6534   -8.2542    5.0798 O   0  0  0  0  0  0  0  0  0  0  0  0
   -0.6624   -8.2520    2.6742 H   0  0  0  0  0  0  0  0  0  0  0  0
    0.0505   -7.6834    1.1676 H   0  0  0  0  0  0  0  0  0  0  0  0
   -0.2359   -6.5728    2.4906 H   0  0  0  0  0  0  0  0  0  0  0  0
    1.0200  -10.0488    3.0928 H   0  0  0  0  0  0  0  0  0  0  0  0
    2.7388   -9.7350    2.9200 H   0  0  0  0  0  0  0  0  0  0  0  0
    1.6779   -9.6827    1.5162 H   0  0  0  0  0  0  0  0  0  0  0  0
    3.6591   -8.6026    1.0776 H   0  0  0  0  0  0  0  0  0  0  0  0
    5.5468   -7.2986    0.6634 H   0  0  0  0  0  0  0  0  0  0  0  0
    4.3768   -6.6694   -0.4660 H   0  0  0  0  0  0  0  0  0  0  0  0
    5.4928   -4.6663    3.2180 H   0  0  0  0  0  0  0  0  0  0  0  0
    6.6158   -5.7957    2.4570 H   0  0  0  0  0  0  0  0  0  0  0  0
    5.1563   -6.3981    3.1498 H   0  0  0  0  0  0  0  0  0  0  0  0
    3.5549   -3.7285    1.9784 H   0  0  0  0  0  0  0  0  0  0  0  0
    2.5586   -5.1402   -0.5192 H   0  0  0  0  0  0  0  0  0  0  0  0
    1.8213   -3.7615    0.2501 H   0  0  0  0  0  0  0  0  0  0  0  0
    3.2069   -3.0409   -1.6145 H   0  0  0  0  0  0  0  0  0  0  0  0
    3.7722   -2.3819   -0.0966 H   0  0  0  0  0  0  0  0  0  0  0  0
    5.0015   -4.6855   -1.7236 H   0  0  0  0  0  0  0  0  0  0  0  0
    6.9459   -3.3179   -1.8568 H   0  0  0  0  0  0  0  0  0  0  0  0
    4.7333   -1.6136   -1.7028 H   0  0  0  0  0  0  0  0  0  0  0  0
    7.1961   -3.4198    1.5121 H   0  0  0  0  0  0  0  0  0  0  0  0
    5.5938   -2.6748    1.5465 H   0  0  0  0  0  0  0  0  0  0  0  0
    6.5698   -5.1077    0.0257 H   0  0  0  0  0  0  0  0  0  0  0  0
    1.4483   -5.2179    1.9920 H   0  0  0  0  0  0  0  0  0  0  0  0
    3.4471   -5.4173    4.3027 H   0  0  0  0  0  0  0  0  0  0  0  0
    2.3166   -4.1553    4.0058 H   0  0  0  0  0  0  0  0  0  0  0  0
    1.6737   -5.8968    5.6991 H   0  0  0  0  0  0  0  0  0  0  0  0
    0.4830   -5.7060    4.4449 H   0  0  0  0  0  0  0  0  0  0  0  0
    2.6088   -7.9107    4.6694 H   0  0  0  0  0  0  0  0  0  0  0  0
    0.7156   -9.1757    4.8899 H   0  0  0  0  0  0  0  0  0  0  0  0
  1  2  1  0
  1 23  1  0
  1 24  1  0
  1 25  1  0
  2 21  1  0
  2  3  1  0
  2  4  1  0
  3 26  1  0
  3 27  1  0
  3 28  1  0
  4 18  1  0
  4  5  2  0
  5  6  1  0
  5 29  1  0
  6  7  1  0
  6 30  1  0
  6 31  1  0
  7 17  1  0
  7  8  1  1
  7  9  1  0
  8 32  1  0
  8 33  1  0
  8 34  1  0
  9 10  1  0
  9 18  1  0
  9 35  1  1
 10 11  1  0
 10 36  1  0
 10 37  1  0
 11 12  1  0
 11 38  1  0
 11 39  1  0
 12 17  1  0
 12 13  1  0
 12 40  1  6
 13 14  1  0
 13 15  1  0
 13 41  1  6
 14 42  1  0
 15 16  1  0
 16 17  1  0
 16 43  1  0
 16 44  1  0
 17 45  1  6
 18 19  1  0
 18 46  1  6
 19 20  1  0
 19 47  1  0
 19 48  1  0
 20 21  1  0
 20 49  1  0
 20 50  1  0
 21 22  1  0
 21 51  1  1
 22 52  1  0
M  END
>  <i_m_ct_stereo_status>  (23) 
1

>  <s_m_source_file>  (23) 
/var/tmp/pbs.5076255.sched01/tmp361wbqj1/0nt8_y6ui.sdf

>  <i_m_source_file_index>  (23) 
8

>  <i_lp_mmshare_version>  (23) 
48012

>  <i_f3d_flags>  (23) 
0

>  <s_epik_input>  (23) 
W0NIMl0xW0NIMl1bQ0BASF0oW09IXSlDKFtDSDNdKShbQ0gzXSlDKD1bQ0hdW0NIMl0yKVtDQEBIXTFbQ0BASF0oW0NAQF0yM1tDSDNdKVtDSDJdW0NIMl1bQ0BASF00W0NASF0zW0NIMl1PW0NAQEhdNFtPSF0=

>  <s_epik_cmdline>  (23) 
J2VwaWtfcHl0aG9uJywgJy1waHQnLCAnMi4wJywgJy1waCcsICc3LjAnLCAnLXRuJywgJzgnLCAnLW1hJywgJzIwMCcsICctaW1hZScsICc8aW5maWxlLm1hZT4nLCAnLW9tYWUnLCAnPG91dGZpbGUubWFlPic=

>  <r_lp_tautomer_probability>  (23) 
1

>  <r_epik_Ionization_Penalty>  (23) 
8.72359e-07

>  <r_epik_Ionization_Penalty_Charging>  (23) 
0

>  <r_epik_Ionization_Penalty_Neutral>  (23) 
8.72359e-07

>  <r_epik_State_Penalty>  (23) 
-0

>  <r_epik_Charging_Adjusted_Penalty>  (23) 
0

>  <i_epik_Tot_Q>  (23) 
0

>  <i_epik_Tot_abs_Q>  (23) 
0

>  <s_epik_Chemistry_Notes>  (23) 
This compound contains an acetal/aminal-like group ( X-CH(R)-Y where X, Y are N, S, or O) that may be acid/base labile, releasing an aldehyde.

>  <s_lp_Force_Field>  (23) 
OPLS3e

>  <r_lp_Energy>  (23) 
26.2367

>  <b_lp_Chiralities_Consistent>  (23) 
1

>  <s_lp_Variant>  (23) 
6:0-1

>  <s_i_glide_gridfile>  (23) 
pfpi4k_grid

>  <i_i_glide_lignum>  (23) 
8

>  <i_i_glide_rotatable_bonds>  (23) 
2

>  <r_i_docking_score>  (23) 
-3.4881

>  <r_i_glide_ligand_efficiency>  (23) 
-0.15855

>  <r_i_glide_ligand_efficiency_sa>  (23) 
-0.444264

>  <r_i_glide_ligand_efficiency_ln>  (23) 
-0.85262

>  <r_i_glide_gscore>  (23) 
-3.4881

>  <r_i_glide_lipo>  (23) 
-0.546577

>  <r_i_glide_hbond>  (23) 
0

>  <r_i_glide_metal>  (23) 
-0

>  <r_i_glide_rewards>  (23) 
-1.34978

>  <r_i_glide_evdw>  (23) 
-24.2926

>  <r_i_glide_ecoul>  (23) 
-2.51411

>  <r_i_glide_erotb>  (23) 
0

>  <r_i_glide_esite>  (23) 
0

>  <r_i_glide_emodel>  (23) 
-32.494

>  <r_i_glide_energy>  (23) 
-26.8067

>  <r_i_glide_einternal>  (23) 
0.398275

>  <r_i_glide_intrahb_reward>  (23) 
-0

>  <i_i_glide_confnum>  (23) 
1

>  <i_i_glide_posenum>  (23) 
37

>  <r_i_glide_eff_state_penalty>  (23) 
0

>  <ligand_id>  (23) 
6

>  <original_smiles>  (23) 
CC1(C)C2=CCC3(C)C(CCC4C(O)OCC43)C2CCC1O

>  <smiles>  (23) 
[H]OC1([H])OC([H])([H])C2([H])C1([H])C([H])([H])C([H])([H])C1([H])C3([H])C(=C([H])C([H])([H])C12C([H])([H])[H])C(C([H])([H])[H])(C([H])([H])[H])C([H])(O[H])C([H])([H])C3([H])[H]

$$$$
7:0:0
     RDKit          3D

 40 43  0  0  1  0  0  0  0  0999 V2000
    7.2114   -4.9604    1.0660 C   0  0  0  0  0  0  0  0  0  0  0  0
    5.6823   -4.8136    0.9780 C   0  0  2  0  0  0  0  0  0  0  0  0
    5.2300   -3.5882    0.1901 C   0  0  1  0  0  0  0  0  0  0  0  0
    5.1405   -3.8212   -1.3391 C   0  0  0  0  0  0  0  0  0  0  0  0
    4.7340   -2.6328   -2.0663 N   0  0  0  0  0  0  0  0  0  0  0  0
    4.6309   -1.3303   -1.6314 C   0  0  0  0  0  0  0  0  0  0  0  0
    4.2062   -0.6568   -2.7368 C   0  0  0  0  0  0  0  0  0  0  0  0
    4.1099   -1.5522   -3.7972 N   0  0  0  0  0  0  0  0  0  0  0  0
    4.4155   -2.7436   -3.3791 N   0  0  0  0  0  0  0  0  0  0  0  0
    3.9652   -3.1997    0.7413 O   0  0  0  0  0  0  0  0  0  0  0  0
    3.6954   -3.8930    1.9250 C   0  0  1  0  0  0  0  0  0  0  0  0
    2.6042   -4.8867    1.6345 N   0  0  0  0  0  0  0  0  0  0  0  0
    2.2072   -5.3809    0.4423 C   0  0  0  0  0  0  0  0  0  0  0  0
    1.1939   -6.2519    0.4424 N   0  0  0  0  0  0  0  0  0  0  0  0
    0.9371   -6.3756    1.7922 C   0  0  0  0  0  0  0  0  0  0  0  0
    0.0023   -7.1661    2.4900 C   0  0  0  0  0  0  0  0  0  0  0  0
   -0.0501   -7.0530    3.8919 C   0  0  0  0  0  0  0  0  0  0  0  0
    0.8265   -6.1575    4.5452 C   0  0  0  0  0  0  0  0  0  0  0  0
    1.7195   -5.3574    3.9173 N   0  0  0  0  0  0  0  0  0  0  0  0
    1.7657   -5.5094    2.5588 C   0  0  0  0  0  0  0  0  0  0  0  0
    5.0273   -4.5706    2.3251 C   0  0  1  0  0  0  0  0  0  0  0  0
    4.8664   -5.8672    3.1363 C   0  0  0  0  0  0  0  0  0  0  0  0
    7.6702   -4.0992    1.5551 H   0  0  0  0  0  0  0  0  0  0  0  0
    7.6700   -5.0574    0.0810 H   0  0  0  0  0  0  0  0  0  0  0  0
    7.4770   -5.8468    1.6397 H   0  0  0  0  0  0  0  0  0  0  0  0
    5.2515   -5.6977    0.5065 H   0  0  0  0  0  0  0  0  0  0  0  0
    5.9338   -2.7834    0.4025 H   0  0  0  0  0  0  0  0  0  0  0  0
    6.0993   -4.1452   -1.7483 H   0  0  0  0  0  0  0  0  0  0  0  0
    4.4316   -4.6191   -1.5671 H   0  0  0  0  0  0  0  0  0  0  0  0
    4.8229   -0.9963   -0.6215 H   0  0  0  0  0  0  0  0  0  0  0  0
    3.9740    0.3879   -2.8384 H   0  0  0  0  0  0  0  0  0  0  0  0
    3.2704   -3.2282    2.6818 H   0  0  0  0  0  0  0  0  0  0  0  0
    2.6408   -5.0584   -0.4937 H   0  0  0  0  0  0  0  0  0  0  0  0
   -0.6422   -7.8414    1.9469 H   0  0  0  0  0  0  0  0  0  0  0  0
   -0.7436   -7.6524    4.4583 H   0  0  0  0  0  0  0  0  0  0  0  0
    0.8223   -6.0892    5.6235 H   0  0  0  0  0  0  0  0  0  0  0  0
    5.6026   -3.8300    2.8859 H   0  0  0  0  0  0  0  0  0  0  0  0
    4.3309   -6.6394    2.5805 H   0  0  0  0  0  0  0  0  0  0  0  0
    4.3313   -5.6707    4.0610 H   0  0  0  0  0  0  0  0  0  0  0  0
    5.8274   -6.2992    3.4123 H   0  0  0  0  0  0  0  0  0  0  0  0
  1  2  1  0
  1 23  1  0
  1 24  1  0
  1 25  1  0
  2 21  1  0
  2  3  1  0
  2 26  1  6
  3  4  1  0
  3 10  1  0
  3 27  1  6
  4  5  1  0
  4 28  1  0
  4 29  1  0
  5  9  1  0
  5  6  1  0
  6  7  2  0
  6 30  1  0
  7  8  1  0
  7 31  1  0
  8  9  2  0
 10 11  1  0
 11 12  1  0
 11 21  1  0
 11 32  1  1
 12 20  1  0
 12 13  1  0
 13 14  2  0
 13 33  1  0
 14 15  1  0
 15 20  2  0
 15 16  1  0
 16 17  2  0
 16 34  1  0
 17 18  1  0
 17 35  1  0
 18 19  2  0
 18 36  1  0
 19 20  1  0
 21 22  1  0
 21 37  1  1
 22 38  1  0
 22 39  1  0
 22 40  1  0
M  END
>  <i_m_ct_stereo_status>  (24) 
1

>  <s_m_source_file>  (24) 
/var/tmp/pbs.5076255.sched01/tmp361wbqj1/0nt8_y6ui.sdf

>  <i_m_source_file_index>  (24) 
9

>  <i_lp_mmshare_version>  (24) 
48012

>  <i_f3d_flags>  (24) 
0

>  <s_epik_input>  (24) 
bjFuW2NIXVtjSF1uMVtDSDJdW0NASF0oW0NASF0yW0NIM10pT1tDQEhdKFtDQEhdMltDSDNdKW4oW2NIXW4zKWMoYzM0KW5bY0hdW2NIXVtjSF00

>  <s_epik_cmdline>  (24) 
J2VwaWtfcHl0aG9uJywgJy1waHQnLCAnMi4wJywgJy1waCcsICc3LjAnLCAnLXRuJywgJzgnLCAnLW1hJywgJzIwMCcsICctaW1hZScsICc8aW5maWxlLm1hZT4nLCAnLW9tYWUnLCAnPG91dGZpbGUubWFlPic=

>  <r_lp_tautomer_probability>  (24) 
1

>  <r_epik_Ionization_Penalty>  (24) 
0.00112996

>  <r_epik_Ionization_Penalty_Charging>  (24) 
0.0011019

>  <r_epik_Ionization_Penalty_Neutral>  (24) 
2.80587e-05

>  <r_epik_State_Penalty>  (24) 
0.000723008

>  <r_epik_Charging_Adjusted_Penalty>  (24) 
0.00182491

>  <i_epik_Tot_Q>  (24) 
0

>  <i_epik_Tot_abs_Q>  (24) 
0

>  <s_epik_Chemistry_Notes>  (24) 
This compound contains an acetal/aminal-like group ( X-CH(R)-Y where X, Y are N, S, or O) that may be acid/base labile, releasing an aldehyde.

>  <s_lp_Force_Field>  (24) 
OPLS3e

>  <r_lp_Energy>  (24) 
11.7914

>  <b_lp_Chiralities_Consistent>  (24) 
1

>  <s_lp_Variant>  (24) 
7:0-1

>  <s_i_glide_gridfile>  (24) 
pfpi4k_grid

>  <i_i_glide_lignum>  (24) 
9

>  <i_i_glide_rotatable_bonds>  (24) 
3

>  <r_i_docking_score>  (24) 
-3.59326

>  <r_i_glide_ligand_efficiency>  (24) 
-0.16333

>  <r_i_glide_ligand_efficiency_sa>  (24) 
-0.457658

>  <r_i_glide_ligand_efficiency_ln>  (24) 
-0.878325

>  <r_i_glide_gscore>  (24) 
-3.59326

>  <r_i_glide_lipo>  (24) 
-0.376732

>  <r_i_glide_hbond>  (24) 
-0.175226

>  <r_i_glide_metal>  (24) 
-0

>  <r_i_glide_rewards>  (24) 
-1.42806

>  <r_i_glide_evdw>  (24) 
-25.8536

>  <r_i_glide_ecoul>  (24) 
-5.552

>  <r_i_glide_erotb>  (24) 
0.618464

>  <r_i_glide_esite>  (24) 
-0.106234

>  <r_i_glide_emodel>  (24) 
-36.9053

>  <r_i_glide_energy>  (24) 
-31.4056

>  <r_i_glide_einternal>  (24) 
2.82582

>  <r_i_glide_intrahb_reward>  (24) 
-0

>  <i_i_glide_confnum>  (24) 
4

>  <i_i_glide_posenum>  (24) 
30

>  <r_i_glide_eff_state_penalty>  (24) 
0

>  <ligand_id>  (24) 
7

>  <original_smiles>  (24) 
CC1C(Cn2ccnn2)OC(n2cnc3cccnc32)C1C

>  <smiles>  (24) 
[H]c1nc2c(nc([H])n2C2([H])OC([H])(C([H])([H])n3nnc([H])c3[H])C([H])(C([H])([H])[H])C2([H])C([H])([H])[H])c([H])c1[H]

$$$$
7:0:1
     RDKit          3D

 40 43  0  0  1  0  0  0  0  0999 V2000
    7.2050   -5.7312    1.0829 C   0  0  0  0  0  0  0  0  0  0  0  0
    5.7057   -5.3870    1.0578 C   0  0  2  0  0  0  0  0  0  0  0  0
    5.3824   -4.0196    0.4473 C   0  0  1  0  0  0  0  0  0  0  0  0
    5.2517   -4.0735   -1.0938 C   0  0  0  0  0  0  0  0  0  0  0  0
    4.6685   -2.8758   -1.6515 N   0  0  0  0  0  0  0  0  0  0  0  0
    3.4093   -2.7026   -2.1800 C   0  0  0  0  0  0  0  0  0  0  0  0
    3.4111   -1.3958   -2.5654 C   0  0  0  0  0  0  0  0  0  0  0  0
    4.6510   -0.8396   -2.2721 N   0  0  0  0  0  0  0  0  0  0  0  0
    5.3992   -1.7405   -1.7150 N   0  0  0  0  0  0  0  0  0  0  0  0
    4.1677   -3.5867    1.0748 O   0  0  0  0  0  0  0  0  0  0  0  0
    3.8382   -4.4039    2.1613 C   0  0  1  0  0  0  0  0  0  0  0  0
    2.6416   -5.2236    1.7683 N   0  0  0  0  0  0  0  0  0  0  0  0
    2.1837   -5.4989    0.5282 C   0  0  0  0  0  0  0  0  0  0  0  0
    1.0842   -6.2528    0.4326 N   0  0  0  0  0  0  0  0  0  0  0  0
    0.8216   -6.5354    1.7591 C   0  0  0  0  0  0  0  0  0  0  0  0
   -0.1857   -7.3082    2.3706 C   0  0  0  0  0  0  0  0  0  0  0  0
   -0.2064   -7.3918    3.7759 C   0  0  0  0  0  0  0  0  0  0  0  0
    0.7732   -6.7002    4.5227 C   0  0  0  0  0  0  0  0  0  0  0  0
    1.7340   -5.9135    3.9839 N   0  0  0  0  0  0  0  0  0  0  0  0
    1.7475   -5.8754    2.6175 C   0  0  0  0  0  0  0  0  0  0  0  0
    5.0878   -5.2714    2.4380 C   0  0  1  0  0  0  0  0  0  0  0  0
    4.7891   -6.6432    3.0725 C   0  0  0  0  0  0  0  0  0  0  0  0
    7.7666   -5.0069    1.6744 H   0  0  0  0  0  0  0  0  0  0  0  0
    7.6366   -5.7520    0.0808 H   0  0  0  0  0  0  0  0  0  0  0  0
    7.3658   -6.7127    1.5296 H   0  0  0  0  0  0  0  0  0  0  0  0
    5.1763   -6.1566    0.4924 H   0  0  0  0  0  0  0  0  0  0  0  0
    6.1547   -3.3008    0.7295 H   0  0  0  0  0  0  0  0  0  0  0  0
    6.2171   -4.2360   -1.5700 H   0  0  0  0  0  0  0  0  0  0  0  0
    4.6140   -4.9047   -1.3970 H   0  0  0  0  0  0  0  0  0  0  0  0
    2.6524   -3.4741   -2.2112 H   0  0  0  0  0  0  0  0  0  0  0  0
    2.6230   -0.8085   -3.0098 H   0  0  0  0  0  0  0  0  0  0  0  0
    3.5004   -3.8092    3.0115 H   0  0  0  0  0  0  0  0  0  0  0  0
    2.6619   -5.1059   -0.3614 H   0  0  0  0  0  0  0  0  0  0  0  0
   -0.9121   -7.8295    1.7650 H   0  0  0  0  0  0  0  0  0  0  0  0
   -0.9502   -7.9911    4.2781 H   0  0  0  0  0  0  0  0  0  0  0  0
    0.7971   -6.7922    5.5988 H   0  0  0  0  0  0  0  0  0  0  0  0
    5.7489   -4.6876    3.0823 H   0  0  0  0  0  0  0  0  0  0  0  0
    4.1619   -7.2698    2.4356 H   0  0  0  0  0  0  0  0  0  0  0  0
    4.2899   -6.5144    4.0287 H   0  0  0  0  0  0  0  0  0  0  0  0
    5.6955   -7.2150    3.2682 H   0  0  0  0  0  0  0  0  0  0  0  0
  1  2  1  0
  1 23  1  0
  1 24  1  0
  1 25  1  0
  2 21  1  0
  2  3  1  0
  2 26  1  6
  3  4  1  0
  3 10  1  0
  3 27  1  6
  4  5  1  0
  4 28  1  0
  4 29  1  0
  5  9  1  0
  5  6  1  0
  6  7  2  0
  6 30  1  0
  7  8  1  0
  7 31  1  0
  8  9  2  0
 10 11  1  0
 11 12  1  0
 11 21  1  0
 11 32  1  1
 12 20  1  0
 12 13  1  0
 13 14  2  0
 13 33  1  0
 14 15  1  0
 15 20  2  0
 15 16  1  0
 16 17  2  0
 16 34  1  0
 17 18  1  0
 17 35  1  0
 18 19  2  0
 18 36  1  0
 19 20  1  0
 21 22  1  0
 21 37  1  1
 22 38  1  0
 22 39  1  0
 22 40  1  0
M  END
>  <i_m_ct_stereo_status>  (25) 
1

>  <s_m_source_file>  (25) 
/var/tmp/pbs.5076255.sched01/tmp361wbqj1/0nt8_y6ui.sdf

>  <i_m_source_file_index>  (25) 
9

>  <i_lp_mmshare_version>  (25) 
48012

>  <i_f3d_flags>  (25) 
0

>  <s_epik_input>  (25) 
bjFuW2NIXVtjSF1uMVtDSDJdW0NASF0oW0NASF0yW0NIM10pT1tDQEhdKFtDQEhdMltDSDNdKW4oW2NIXW4zKWMoYzM0KW5bY0hdW2NIXVtjSF00

>  <s_epik_cmdline>  (25) 
J2VwaWtfcHl0aG9uJywgJy1waHQnLCAnMi4wJywgJy1waCcsICc3LjAnLCAnLXRuJywgJzgnLCAnLW1hJywgJzIwMCcsICctaW1hZScsICc8aW5maWxlLm1hZT4nLCAnLW9tYWUnLCAnPG91dGZpbGUubWFlPic=

>  <r_lp_tautomer_probability>  (25) 
1

>  <r_epik_Ionization_Penalty>  (25) 
0.00112996

>  <r_epik_Ionization_Penalty_Charging>  (25) 
0.0011019

>  <r_epik_Ionization_Penalty_Neutral>  (25) 
2.80587e-05

>  <r_epik_State_Penalty>  (25) 
0.000723008

>  <r_epik_Charging_Adjusted_Penalty>  (25) 
0.00182491

>  <i_epik_Tot_Q>  (25) 
0

>  <i_epik_Tot_abs_Q>  (25) 
0

>  <s_epik_Chemistry_Notes>  (25) 
This compound contains an acetal/aminal-like group ( X-CH(R)-Y where X, Y are N, S, or O) that may be acid/base labile, releasing an aldehyde.

>  <s_lp_Force_Field>  (25) 
OPLS3e

>  <r_lp_Energy>  (25) 
11.7914

>  <b_lp_Chiralities_Consistent>  (25) 
1

>  <s_lp_Variant>  (25) 
7:0-1

>  <s_i_glide_gridfile>  (25) 
pfpi4k_grid

>  <i_i_glide_lignum>  (25) 
9

>  <i_i_glide_rotatable_bonds>  (25) 
3

>  <r_i_docking_score>  (25) 
-3.43944

>  <r_i_glide_ligand_efficiency>  (25) 
-0.156338

>  <r_i_glide_ligand_efficiency_sa>  (25) 
-0.438066

>  <r_i_glide_ligand_efficiency_ln>  (25) 
-0.840725

>  <r_i_glide_gscore>  (25) 
-3.43944

>  <r_i_glide_lipo>  (25) 
-0.234539

>  <r_i_glide_hbond>  (25) 
-0.212813

>  <r_i_glide_metal>  (25) 
-0

>  <r_i_glide_rewards>  (25) 
-1.37872

>  <r_i_glide_evdw>  (25) 
-24.7713

>  <r_i_glide_ecoul>  (25) 
-5.43664

>  <r_i_glide_erotb>  (25) 
0.618464

>  <r_i_glide_esite>  (25) 
-0.177778

>  <r_i_glide_emodel>  (25) 
-36.2856

>  <r_i_glide_energy>  (25) 
-30.2079

>  <r_i_glide_einternal>  (25) 
1.22288

>  <r_i_glide_intrahb_reward>  (25) 
-0

>  <i_i_glide_confnum>  (25) 
1

>  <i_i_glide_posenum>  (25) 
13

>  <r_i_glide_eff_state_penalty>  (25) 
0

>  <ligand_id>  (25) 
7

>  <original_smiles>  (25) 
CC1C(Cn2ccnn2)OC(n2cnc3cccnc32)C1C

>  <smiles>  (25) 
[H]c1nc2c(nc([H])n2C2([H])OC([H])(C([H])([H])n3nnc([H])c3[H])C([H])(C([H])([H])[H])C2([H])C([H])([H])[H])c([H])c1[H]

$$$$
7:0:2
     RDKit          3D

 40 43  0  0  1  0  0  0  0  0999 V2000
    6.6387   -7.0202    1.6729 C   0  0  0  0  0  0  0  0  0  0  0  0
    5.1922   -6.4951    1.6680 C   0  0  2  0  0  0  0  0  0  0  0  0
    5.0661   -5.0171    1.2903 C   0  0  1  0  0  0  0  0  0  0  0  0
    4.9957   -4.8091   -0.2380 C   0  0  0  0  0  0  0  0  0  0  0  0
    4.9792   -3.4111   -0.6221 N   0  0  0  0  0  0  0  0  0  0  0  0
    3.9094   -2.6480   -1.0349 C   0  0  0  0  0  0  0  0  0  0  0  0
    4.4734   -1.4328   -1.2897 C   0  0  0  0  0  0  0  0  0  0  0  0
    5.8374   -1.5036   -1.0200 N   0  0  0  0  0  0  0  0  0  0  0  0
    6.1303   -2.6998   -0.6251 N   0  0  0  0  0  0  0  0  0  0  0  0
    3.8842   -4.5438    1.9494 O   0  0  0  0  0  0  0  0  0  0  0  0
    3.4157   -5.4785    2.8806 C   0  0  1  0  0  0  0  0  0  0  0  0
    2.1411   -6.0659    2.3356 N   0  0  0  0  0  0  0  0  0  0  0  0
    1.6950   -6.0585    1.0632 C   0  0  0  0  0  0  0  0  0  0  0  0
    0.5164   -6.6338    0.8208 N   0  0  0  0  0  0  0  0  0  0  0  0
    0.1796   -7.1144    2.0731 C   0  0  0  0  0  0  0  0  0  0  0  0
   -0.9236   -7.8736    2.5240 C   0  0  0  0  0  0  0  0  0  0  0  0
   -0.9893   -8.2149    3.8886 C   0  0  0  0  0  0  0  0  0  0  0  0
    0.0337   -7.7841    4.7580 C   0  0  0  0  0  0  0  0  0  0  0  0
    1.0927   -7.0262    4.3845 N   0  0  0  0  0  0  0  0  0  0  0  0
    1.1486   -6.7417    3.0453 C   0  0  0  0  0  0  0  0  0  0  0  0
    4.5392   -6.5305    3.0349 C   0  0  1  0  0  0  0  0  0  0  0  0
    4.0587   -7.9394    3.4290 C   0  0  0  0  0  0  0  0  0  0  0  0
    7.2552   -6.4769    2.3898 H   0  0  0  0  0  0  0  0  0  0  0  0
    7.1152   -6.9208    0.6974 H   0  0  0  0  0  0  0  0  0  0  0  0
    6.6653   -8.0742    1.9494 H   0  0  0  0  0  0  0  0  0  0  0  0
    4.5973   -7.0840    0.9662 H   0  0  0  0  0  0  0  0  0  0  0  0
    5.9149   -4.4700    1.7083 H   0  0  0  0  0  0  0  0  0  0  0  0
    5.8400   -5.2945   -0.7217 H   0  0  0  0  0  0  0  0  0  0  0  0
    4.1112   -5.2755   -0.6656 H   0  0  0  0  0  0  0  0  0  0  0  0
    2.8921   -3.0002   -1.1029 H   0  0  0  0  0  0  0  0  0  0  0  0
    4.0169   -0.5222   -1.6370 H   0  0  0  0  0  0  0  0  0  0  0  0
    3.1180   -4.9947    3.8138 H   0  0  0  0  0  0  0  0  0  0  0  0
    2.2404   -5.5772    0.2638 H   0  0  0  0  0  0  0  0  0  0  0  0
   -1.6803   -8.2003    1.8280 H   0  0  0  0  0  0  0  0  0  0  0  0
   -1.8019   -8.8146    4.2688 H   0  0  0  0  0  0  0  0  0  0  0  0
    0.0117   -8.0730    5.7984 H   0  0  0  0  0  0  0  0  0  0  0  0
    5.2377   -6.1442    3.7811 H   0  0  0  0  0  0  0  0  0  0  0  0
    3.3868   -8.3736    2.6863 H   0  0  0  0  0  0  0  0  0  0  0  0
    3.5458   -7.9097    4.3860 H   0  0  0  0  0  0  0  0  0  0  0  0
    4.8837   -8.6407    3.5425 H   0  0  0  0  0  0  0  0  0  0  0  0
  1  2  1  0
  1 23  1  0
  1 24  1  0
  1 25  1  0
  2 21  1  0
  2  3  1  0
  2 26  1  6
  3  4  1  0
  3 10  1  0
  3 27  1  1
  4  5  1  0
  4 28  1  0
  4 29  1  0
  5  9  1  0
  5  6  1  0
  6  7  2  0
  6 30  1  0
  7  8  1  0
  7 31  1  0
  8  9  2  0
 10 11  1  0
 11 12  1  0
 11 21  1  0
 11 32  1  1
 12 20  1  0
 12 13  1  0
 13 14  2  0
 13 33  1  0
 14 15  1  0
 15 20  2  0
 15 16  1  0
 16 17  2  0
 16 34  1  0
 17 18  1  0
 17 35  1  0
 18 19  2  0
 18 36  1  0
 19 20  1  0
 21 22  1  0
 21 37  1  1
 22 38  1  0
 22 39  1  0
 22 40  1  0
M  END
>  <i_m_ct_stereo_status>  (26) 
1

>  <s_m_source_file>  (26) 
/var/tmp/pbs.5076255.sched01/tmp361wbqj1/0nt8_y6ui.sdf

>  <i_m_source_file_index>  (26) 
9

>  <i_lp_mmshare_version>  (26) 
48012

>  <i_f3d_flags>  (26) 
0

>  <s_epik_input>  (26) 
bjFuW2NIXVtjSF1uMVtDSDJdW0NASF0oW0NASF0yW0NIM10pT1tDQEhdKFtDQEhdMltDSDNdKW4oW2NIXW4zKWMoYzM0KW5bY0hdW2NIXVtjSF00

>  <s_epik_cmdline>  (26) 
J2VwaWtfcHl0aG9uJywgJy1waHQnLCAnMi4wJywgJy1waCcsICc3LjAnLCAnLXRuJywgJzgnLCAnLW1hJywgJzIwMCcsICctaW1hZScsICc8aW5maWxlLm1hZT4nLCAnLW9tYWUnLCAnPG91dGZpbGUubWFlPic=

>  <r_lp_tautomer_probability>  (26) 
1

>  <r_epik_Ionization_Penalty>  (26) 
0.00112996

>  <r_epik_Ionization_Penalty_Charging>  (26) 
0.0011019

>  <r_epik_Ionization_Penalty_Neutral>  (26) 
2.80587e-05

>  <r_epik_State_Penalty>  (26) 
0.000723008

>  <r_epik_Charging_Adjusted_Penalty>  (26) 
0.00182491

>  <i_epik_Tot_Q>  (26) 
0

>  <i_epik_Tot_abs_Q>  (26) 
0

>  <s_epik_Chemistry_Notes>  (26) 
This compound contains an acetal/aminal-like group ( X-CH(R)-Y where X, Y are N, S, or O) that may be acid/base labile, releasing an aldehyde.

>  <s_lp_Force_Field>  (26) 
OPLS3e

>  <r_lp_Energy>  (26) 
11.7914

>  <b_lp_Chiralities_Consistent>  (26) 
1

>  <s_lp_Variant>  (26) 
7:0-1

>  <s_i_glide_gridfile>  (26) 
pfpi4k_grid

>  <i_i_glide_lignum>  (26) 
9

>  <i_i_glide_rotatable_bonds>  (26) 
3

>  <r_i_docking_score>  (26) 
-3.28713

>  <r_i_glide_ligand_efficiency>  (26) 
-0.149415

>  <r_i_glide_ligand_efficiency_sa>  (26) 
-0.418667

>  <r_i_glide_ligand_efficiency_ln>  (26) 
-0.803495

>  <r_i_glide_gscore>  (26) 
-3.28713

>  <r_i_glide_lipo>  (26) 
-0.195853

>  <r_i_glide_hbond>  (26) 
-0.144964

>  <r_i_glide_metal>  (26) 
-0

>  <r_i_glide_rewards>  (26) 
-1.44359

>  <r_i_glide_evdw>  (26) 
-24.2346

>  <r_i_glide_ecoul>  (26) 
-4.86955

>  <r_i_glide_erotb>  (26) 
0.618464

>  <r_i_glide_esite>  (26) 
-0.179026

>  <r_i_glide_emodel>  (26) 
-34.9826

>  <r_i_glide_energy>  (26) 
-29.1041

>  <r_i_glide_einternal>  (26) 
0.958186

>  <r_i_glide_intrahb_reward>  (26) 
-0

>  <i_i_glide_confnum>  (26) 
1

>  <i_i_glide_posenum>  (26) 
23

>  <r_i_glide_eff_state_penalty>  (26) 
0

>  <ligand_id>  (26) 
7

>  <original_smiles>  (26) 
CC1C(Cn2ccnn2)OC(n2cnc3cccnc32)C1C

>  <smiles>  (26) 
[H]c1nc2c(nc([H])n2C2([H])OC([H])(C([H])([H])n3nnc([H])c3[H])C([H])(C([H])([H])[H])C2([H])C([H])([H])[H])c([H])c1[H]

$$$$
8:0:0
     RDKit          3D

 41 45  0  0  1  0  0  0  0  0999 V2000
   -6.8441   -5.9994   -4.7240 C   0  0  0  0  0  0  0  0  0  0  0  0
   -7.3575   -7.0608   -5.5168 O   0  0  0  0  0  0  0  0  0  0  0  0
   -7.7802   -6.7986   -6.8025 C   0  0  0  0  0  0  0  0  0  0  0  0
   -7.8474   -5.4853   -7.3229 C   0  0  0  0  0  0  0  0  0  0  0  0
   -8.2780   -5.2591   -8.6415 C   0  0  0  0  0  0  0  0  0  0  0  0
   -8.6639   -6.3343   -9.4540 C   0  0  0  0  0  0  0  0  0  0  0  0
   -8.6207   -7.6485   -8.9607 C   0  0  0  0  0  0  0  0  0  0  0  0
   -8.1715   -7.8852   -7.6301 C   0  0  0  0  0  0  0  0  0  0  0  0
   -8.1970   -9.3282   -7.1441 C   0  0  2  0  0  0  0  0  0  0  0  0
   -7.1517   -9.8760   -6.1482 C   0  0  0  0  0  0  0  0  0  0  0  0
   -6.8994  -11.3055   -6.7002 C   0  0  1  0  0  0  0  0  0  0  0  0
   -8.1335  -11.6569   -7.5371 C   0  0  2  0  0  0  0  0  0  0  0  0
   -7.7294  -12.8911   -8.3713 C   0  0  0  0  0  0  0  0  0  0  0  0
   -6.1986  -12.7704   -8.4518 C   0  0  1  0  0  0  0  0  0  0  0  0
   -5.7433  -12.9866   -9.7749 O   0  0  0  0  0  0  0  0  0  0  0  0
   -5.9696  -11.3400   -7.9248 C   0  0  2  0  0  0  0  0  0  0  0  0
   -4.6178  -11.0907   -7.6005 O   0  0  0  0  0  0  0  0  0  0  0  0
   -6.6446  -10.3096   -8.8533 C   0  0  0  0  0  0  0  0  0  0  0  0
   -8.0856  -10.3155   -8.2979 C   0  0  2  0  0  0  0  0  0  0  0  0
   -9.1746   -9.9804   -9.3216 C   0  0  0  0  0  0  0  0  0  0  0  0
   -8.9971   -8.6564   -9.8315 O   0  0  0  0  0  0  0  0  0  0  0  0
   -6.5731   -6.3873   -3.7429 H   0  0  0  0  0  0  0  0  0  0  0  0
   -7.5780   -5.2087   -4.5670 H   0  0  0  0  0  0  0  0  0  0  0  0
   -5.9440   -5.5797   -5.1715 H   0  0  0  0  0  0  0  0  0  0  0  0
   -7.5447   -4.6281   -6.7414 H   0  0  0  0  0  0  0  0  0  0  0  0
   -8.2842   -4.2544   -9.0330 H   0  0  0  0  0  0  0  0  0  0  0  0
   -8.9926   -6.1553  -10.4667 H   0  0  0  0  0  0  0  0  0  0  0  0
   -9.1939   -9.4616   -6.7222 H   0  0  0  0  0  0  0  0  0  0  0  0
   -6.2297   -9.2950   -6.1317 H   0  0  0  0  0  0  0  0  0  0  0  0
   -7.5603   -9.8868   -5.1364 H   0  0  0  0  0  0  0  0  0  0  0  0
   -6.6380  -12.0470   -5.9417 H   0  0  0  0  0  0  0  0  0  0  0  0
   -9.0483  -11.8031   -6.9566 H   0  0  0  0  0  0  0  0  0  0  0  0
   -8.0099  -13.8236   -7.8762 H   0  0  0  0  0  0  0  0  0  0  0  0
   -8.2088  -12.8742   -9.3522 H   0  0  0  0  0  0  0  0  0  0  0  0
   -5.7286  -13.4940   -7.7834 H   0  0  0  0  0  0  0  0  0  0  0  0
   -6.0739  -13.8245  -10.0645 H   0  0  0  0  0  0  0  0  0  0  0  0
   -4.5830  -10.3109   -7.0657 H   0  0  0  0  0  0  0  0  0  0  0  0
   -6.1851   -9.3219   -8.7938 H   0  0  0  0  0  0  0  0  0  0  0  0
   -6.6379  -10.6222   -9.8920 H   0  0  0  0  0  0  0  0  0  0  0  0
   -9.1469  -10.6795  -10.1554 H   0  0  0  0  0  0  0  0  0  0  0  0
  -10.1675  -10.0582   -8.8743 H   0  0  0  0  0  0  0  0  0  0  0  0
  1  2  1  0
  1 22  1  0
  1 23  1  0
  1 24  1  0
  2  3  1  0
  3  8  2  0
  3  4  1  0
  4  5  2  0
  4 25  1  0
  5  6  1  0
  5 26  1  0
  6  7  2  0
  6 27  1  0
  7 21  1  0
  7  8  1  0
  8  9  1  0
  9 19  1  0
  9 10  1  0
  9 28  1  1
 10 11  1  0
 10 29  1  0
 10 30  1  0
 11 16  1  0
 11 12  1  0
 11 31  1  1
 12 19  1  0
 12 13  1  0
 12 32  1  1
 13 14  1  0
 13 33  1  0
 13 34  1  0
 14 15  1  0
 14 16  1  0
 14 35  1  1
 15 36  1  0
 16 17  1  1
 16 18  1  0
 17 37  1  0
 19 18  1  6
 18 38  1  0
 18 39  1  0
 19 20  1  0
 20 21  1  0
 20 40  1  0
 20 41  1  0
M  END
>  <i_m_ct_stereo_status>  (27) 
1

>  <s_m_source_file>  (27) 
/var/tmp/pbs.5076255.sched01/tmp361wbqj1/0nt8_y6ui.sdf

>  <i_m_source_file_index>  (27) 
10

>  <i_lp_mmshare_version>  (27) 
48012

>  <i_f3d_flags>  (27) 
0

>  <s_epik_input>  (27) 
W0NIM11PYzFbY0hdW2NIXVtjSF1jKE9bQ0gyXTIpYzFbQ0BASF0oW0NAXTIzNClbQ0gyXVtDQEhdNVtDQEBIXTNbQ0gyXVtDQEBIXShbT0hdKVtDQEBdNShbT0hdKVtDSDJdNA==

>  <s_epik_cmdline>  (27) 
J2VwaWtfcHl0aG9uJywgJy1waHQnLCAnMi4wJywgJy1waCcsICc3LjAnLCAnLXRuJywgJzgnLCAnLW1hJywgJzIwMCcsICctaW1hZScsICc8aW5maWxlLm1hZT4nLCAnLW9tYWUnLCAnPG91dGZpbGUubWFlPic=

>  <r_lp_tautomer_probability>  (27) 
1

>  <r_epik_Ionization_Penalty>  (27) 
7.3726e-07

>  <r_epik_Ionization_Penalty_Charging>  (27) 
0

>  <r_epik_Ionization_Penalty_Neutral>  (27) 
7.3726e-07

>  <r_epik_State_Penalty>  (27) 
-0

>  <r_epik_Charging_Adjusted_Penalty>  (27) 
0

>  <i_epik_Tot_Q>  (27) 
0

>  <i_epik_Tot_abs_Q>  (27) 
0

>  <s_lp_Force_Field>  (27) 
OPLS3e

>  <r_lp_Energy>  (27) 
64.9508

>  <b_lp_Chiralities_Consistent>  (27) 
1

>  <s_lp_Variant>  (27) 
8:0-1

>  <s_i_glide_gridfile>  (27) 
pfpi4k_grid

>  <i_i_glide_lignum>  (27) 
10

>  <i_i_glide_rotatable_bonds>  (27) 
3

>  <r_i_docking_score>  (27) 
-4.54697

>  <r_i_glide_ligand_efficiency>  (27) 
-0.216523

>  <r_i_glide_ligand_efficiency_sa>  (27) 
-0.597369

>  <r_i_glide_ligand_efficiency_ln>  (27) 
-1.12423

>  <r_i_glide_gscore>  (27) 
-4.54697

>  <r_i_glide_lipo>  (27) 
-1.88776

>  <r_i_glide_hbond>  (27) 
0

>  <r_i_glide_metal>  (27) 
-0

>  <r_i_glide_rewards>  (27) 
-1.60324

>  <r_i_glide_evdw>  (27) 
-18.1038

>  <r_i_glide_ecoul>  (27) 
-1.00517

>  <r_i_glide_erotb>  (27) 
0

>  <r_i_glide_esite>  (27) 
0

>  <r_i_glide_emodel>  (27) 
-25.5127

>  <r_i_glide_energy>  (27) 
-19.109

>  <r_i_glide_einternal>  (27) 
0.78015

>  <r_i_glide_intrahb_reward>  (27) 
-0

>  <i_i_glide_confnum>  (27) 
1

>  <i_i_glide_posenum>  (27) 
27

>  <r_i_glide_eff_state_penalty>  (27) 
0

>  <ligand_id>  (27) 
8

>  <original_smiles>  (27) 
COc1cccc2c1C1CC3C4CC(O)C3(O)CC14CO2

>  <smiles>  (27) 
[H]OC1([H])C([H])([H])C2([H])C3([H])C([H])([H])C4([H])c5c(OC([H])([H])[H])c([H])c([H])c([H])c5OC([H])([H])C42C([H])([H])C13O[H]

$$$$
8:0:1
     RDKit          3D

 41 45  0  0  1  0  0  0  0  0999 V2000
   -5.3904   -7.3258   -4.9121 C   0  0  0  0  0  0  0  0  0  0  0  0
   -6.3738   -8.1214   -5.5602 O   0  0  0  0  0  0  0  0  0  0  0  0
   -7.2361   -7.5223   -6.4605 C   0  0  0  0  0  0  0  0  0  0  0  0
   -7.2530   -6.1289   -6.6960 C   0  0  0  0  0  0  0  0  0  0  0  0
   -8.1569   -5.5551   -7.5993 C   0  0  0  0  0  0  0  0  0  0  0  0
   -9.0641   -6.3661   -8.2906 C   0  0  0  0  0  0  0  0  0  0  0  0
   -9.0830   -7.7496   -8.0699 C   0  0  0  0  0  0  0  0  0  0  0  0
   -8.1640   -8.3380   -7.1567 C   0  0  0  0  0  0  0  0  0  0  0  0
   -8.2928   -9.8349   -6.9133 C   0  0  2  0  0  0  0  0  0  0  0  0
   -7.0659  -10.7194   -6.6239 C   0  0  0  0  0  0  0  0  0  0  0  0
   -7.4142  -12.0100   -7.4158 C   0  0  1  0  0  0  0  0  0  0  0  0
   -8.9335  -11.9975   -7.6112 C   0  0  2  0  0  0  0  0  0  0  0  0
   -9.2121  -13.0605   -8.6945 C   0  0  0  0  0  0  0  0  0  0  0  0
   -7.8864  -13.1253   -9.4702 C   0  0  1  0  0  0  0  0  0  0  0  0
   -8.1102  -13.0838  -10.8640 O   0  0  0  0  0  0  0  0  0  0  0  0
   -7.1485  -11.8944   -8.9199 C   0  0  2  0  0  0  0  0  0  0  0  0
   -5.7753  -11.9054   -9.1987 O   0  0  0  0  0  0  0  0  0  0  0  0
   -7.9076  -10.5943   -9.2825 C   0  0  0  0  0  0  0  0  0  0  0  0
   -8.9238  -10.5413   -8.1128 C   0  0  2  0  0  0  0  0  0  0  0  0
  -10.2461   -9.8439   -8.4381 C   0  0  0  0  0  0  0  0  0  0  0  0
  -10.0185   -8.4779   -8.7914 O   0  0  0  0  0  0  0  0  0  0  0  0
   -4.7961   -7.9597   -4.2561 H   0  0  0  0  0  0  0  0  0  0  0  0
   -5.8368   -6.5449   -4.2990 H   0  0  0  0  0  0  0  0  0  0  0  0
   -4.7056   -6.8740   -5.6303 H   0  0  0  0  0  0  0  0  0  0  0  0
   -6.5562   -5.4683   -6.1989 H   0  0  0  0  0  0  0  0  0  0  0  0
   -8.1301   -4.4887   -7.7792 H   0  0  0  0  0  0  0  0  0  0  0  0
   -9.7581   -5.9212   -8.9899 H   0  0  0  0  0  0  0  0  0  0  0  0
   -8.9771   -9.9420   -6.0676 H   0  0  0  0  0  0  0  0  0  0  0  0
   -6.1280  -10.2805   -6.9599 H   0  0  0  0  0  0  0  0  0  0  0  0
   -6.9930  -10.9021   -5.5529 H   0  0  0  0  0  0  0  0  0  0  0  0
   -7.0131  -12.9291   -6.9817 H   0  0  0  0  0  0  0  0  0  0  0  0
   -9.5122  -12.1444   -6.6959 H   0  0  0  0  0  0  0  0  0  0  0  0
   -9.4438  -14.0355   -8.2636 H   0  0  0  0  0  0  0  0  0  0  0  0
  -10.0523  -12.7586   -9.3270 H   0  0  0  0  0  0  0  0  0  0  0  0
   -7.3389  -14.0325   -9.2132 H   0  0  0  0  0  0  0  0  0  0  0  0
   -8.6406  -13.8357  -11.0985 H   0  0  0  0  0  0  0  0  0  0  0  0
   -5.3916  -11.1637   -8.7514 H   0  0  0  0  0  0  0  0  0  0  0  0
   -7.2532   -9.7200   -9.2973 H   0  0  0  0  0  0  0  0  0  0  0  0
   -8.3927  -10.6409  -10.2556 H   0  0  0  0  0  0  0  0  0  0  0  0
  -10.7423  -10.3381   -9.2702 H   0  0  0  0  0  0  0  0  0  0  0  0
  -10.9319   -9.8902   -7.5869 H   0  0  0  0  0  0  0  0  0  0  0  0
  1  2  1  0
  1 22  1  0
  1 23  1  0
  1 24  1  0
  2  3  1  0
  3  8  2  0
  3  4  1  0
  4  5  2  0
  4 25  1  0
  5  6  1  0
  5 26  1  0
  6  7  2  0
  6 27  1  0
  7 21  1  0
  7  8  1  0
  8  9  1  0
  9 19  1  0
  9 10  1  0
  9 28  1  1
 10 11  1  0
 10 29  1  0
 10 30  1  0
 11 16  1  0
 11 12  1  0
 11 31  1  1
 12 19  1  0
 12 13  1  0
 12 32  1  1
 13 14  1  0
 13 33  1  0
 13 34  1  0
 14 15  1  0
 14 16  1  0
 14 35  1  6
 15 36  1  0
 16 17  1  1
 16 18  1  0
 17 37  1  0
 19 18  1  6
 18 38  1  0
 18 39  1  0
 19 20  1  0
 20 21  1  0
 20 40  1  0
 20 41  1  0
M  END
>  <i_m_ct_stereo_status>  (28) 
1

>  <s_m_source_file>  (28) 
/var/tmp/pbs.5076255.sched01/tmp361wbqj1/0nt8_y6ui.sdf

>  <i_m_source_file_index>  (28) 
10

>  <i_lp_mmshare_version>  (28) 
48012

>  <i_f3d_flags>  (28) 
0

>  <s_epik_input>  (28) 
W0NIM11PYzFbY0hdW2NIXVtjSF1jKE9bQ0gyXTIpYzFbQ0BASF0oW0NAXTIzNClbQ0gyXVtDQEhdNVtDQEBIXTNbQ0gyXVtDQEBIXShbT0hdKVtDQEBdNShbT0hdKVtDSDJdNA==

>  <s_epik_cmdline>  (28) 
J2VwaWtfcHl0aG9uJywgJy1waHQnLCAnMi4wJywgJy1waCcsICc3LjAnLCAnLXRuJywgJzgnLCAnLW1hJywgJzIwMCcsICctaW1hZScsICc8aW5maWxlLm1hZT4nLCAnLW9tYWUnLCAnPG91dGZpbGUubWFlPic=

>  <r_lp_tautomer_probability>  (28) 
1

>  <r_epik_Ionization_Penalty>  (28) 
7.3726e-07

>  <r_epik_Ionization_Penalty_Charging>  (28) 
0

>  <r_epik_Ionization_Penalty_Neutral>  (28) 
7.3726e-07

>  <r_epik_State_Penalty>  (28) 
-0

>  <r_epik_Charging_Adjusted_Penalty>  (28) 
0

>  <i_epik_Tot_Q>  (28) 
0

>  <i_epik_Tot_abs_Q>  (28) 
0

>  <s_lp_Force_Field>  (28) 
OPLS3e

>  <r_lp_Energy>  (28) 
64.9508

>  <b_lp_Chiralities_Consistent>  (28) 
1

>  <s_lp_Variant>  (28) 
8:0-1

>  <s_i_glide_gridfile>  (28) 
pfpi4k_grid

>  <i_i_glide_lignum>  (28) 
10

>  <i_i_glide_rotatable_bonds>  (28) 
3

>  <r_i_docking_score>  (28) 
-4.36659

>  <r_i_glide_ligand_efficiency>  (28) 
-0.207933

>  <r_i_glide_ligand_efficiency_sa>  (28) 
-0.573671

>  <r_i_glide_ligand_efficiency_ln>  (28) 
-1.07963

>  <r_i_glide_gscore>  (28) 
-4.36659

>  <r_i_glide_lipo>  (28) 
-1.74699

>  <r_i_glide_hbond>  (28) 
0

>  <r_i_glide_metal>  (28) 
-0

>  <r_i_glide_rewards>  (28) 
-1.74315

>  <r_i_glide_evdw>  (28) 
-16.818

>  <r_i_glide_ecoul>  (28) 
-0.237031

>  <r_i_glide_erotb>  (28) 
0

>  <r_i_glide_esite>  (28) 
0

>  <r_i_glide_emodel>  (28) 
-23.3767

>  <r_i_glide_energy>  (28) 
-17.055

>  <r_i_glide_einternal>  (28) 
0.446095

>  <r_i_glide_intrahb_reward>  (28) 
-0

>  <i_i_glide_confnum>  (28) 
2

>  <i_i_glide_posenum>  (28) 
7

>  <r_i_glide_eff_state_penalty>  (28) 
0

>  <ligand_id>  (28) 
8

>  <original_smiles>  (28) 
COc1cccc2c1C1CC3C4CC(O)C3(O)CC14CO2

>  <smiles>  (28) 
[H]OC1([H])C([H])([H])C2([H])C3([H])C([H])([H])C4([H])c5c(OC([H])([H])[H])c([H])c([H])c([H])c5OC([H])([H])C42C([H])([H])C13O[H]

$$$$
8:0:2
     RDKit          3D

 41 45  0  0  1  0  0  0  0  0999 V2000
    2.6138    3.9731    2.8103 C   0  0  0  0  0  0  0  0  0  0  0  0
    2.6171    2.5520    2.8899 O   0  0  0  0  0  0  0  0  0  0  0  0
    1.4586    1.8995    3.2507 C   0  0  0  0  0  0  0  0  0  0  0  0
    0.2162    2.5704    3.3939 C   0  0  0  0  0  0  0  0  0  0  0  0
   -0.9368    1.8714    3.7889 C   0  0  0  0  0  0  0  0  0  0  0  0
   -0.8696    0.4911    4.0420 C   0  0  0  0  0  0  0  0  0  0  0  0
    0.3473   -0.2040    3.8969 C   0  0  0  0  0  0  0  0  0  0  0  0
    1.5156    0.5014    3.4912 C   0  0  0  0  0  0  0  0  0  0  0  0
    2.8156   -0.2993    3.4030 C   0  0  2  0  0  0  0  0  0  0  0  0
    3.8940   -0.0012    2.3411 C   0  0  0  0  0  0  0  0  0  0  0  0
    4.3570   -1.4170    1.9224 C   0  0  1  0  0  0  0  0  0  0  0  0
    3.9708   -2.3395    3.0822 C   0  0  2  0  0  0  0  0  0  0  0  0
    4.0865   -3.7744    2.5208 C   0  0  0  0  0  0  0  0  0  0  0  0
    3.9115   -3.5686    1.0073 C   0  0  1  0  0  0  0  0  0  0  0  0
    3.0147   -4.5085    0.4501 O   0  0  0  0  0  0  0  0  0  0  0  0
    3.4022   -2.1158    0.9441 C   0  0  2  0  0  0  0  0  0  0  0  0
    3.4140   -1.5885   -0.3691 O   0  0  0  0  0  0  0  0  0  0  0  0
    2.0556   -1.9682    1.6854 C   0  0  0  0  0  0  0  0  0  0  0  0
    2.5371   -1.7760    3.1434 C   0  0  2  0  0  0  0  0  0  0  0  0
    1.5601   -2.2798    4.2093 C   0  0  0  0  0  0  0  0  0  0  0  0
    0.3226   -1.5673    4.1444 O   0  0  0  0  0  0  0  0  0  0  0  0
    3.5966    4.3267    2.4998 H   0  0  0  0  0  0  0  0  0  0  0  0
    2.3937    4.4193    3.7810 H   0  0  0  0  0  0  0  0  0  0  0  0
    1.9015    4.3498    2.0798 H   0  0  0  0  0  0  0  0  0  0  0  0
    0.1197    3.6258    3.1894 H   0  0  0  0  0  0  0  0  0  0  0  0
   -1.8777    2.3917    3.8932 H   0  0  0  0  0  0  0  0  0  0  0  0
   -1.7569   -0.0421    4.3487 H   0  0  0  0  0  0  0  0  0  0  0  0
    3.2821   -0.1964    4.3858 H   0  0  0  0  0  0  0  0  0  0  0  0
    3.5229    0.5641    1.4862 H   0  0  0  0  0  0  0  0  0  0  0  0
    4.7149    0.5464    2.7921 H   0  0  0  0  0  0  0  0  0  0  0  0
    5.4053   -1.4812    1.6279 H   0  0  0  0  0  0  0  0  0  0  0  0
    4.5376   -2.1776    4.0017 H   0  0  0  0  0  0  0  0  0  0  0  0
    5.0657   -4.2028    2.7307 H   0  0  0  0  0  0  0  0  0  0  0  0
    3.3335   -4.4336    2.9588 H   0  0  0  0  0  0  0  0  0  0  0  0
    4.8790   -3.6507    0.5061 H   0  0  0  0  0  0  0  0  0  0  0  0
    3.0803   -4.4493   -0.4932 H   0  0  0  0  0  0  0  0  0  0  0  0
    2.5035   -1.4521   -0.6345 H   0  0  0  0  0  0  0  0  0  0  0  0
    1.4713   -1.1204    1.3258 H   0  0  0  0  0  0  0  0  0  0  0  0
    1.4382   -2.8544    1.6104 H   0  0  0  0  0  0  0  0  0  0  0  0
    1.3525   -3.3402    4.0720 H   0  0  0  0  0  0  0  0  0  0  0  0
    1.9787   -2.1589    5.2080 H   0  0  0  0  0  0  0  0  0  0  0  0
  1  2  1  0
  1 22  1  0
  1 23  1  0
  1 24  1  0
  2  3  1  0
  3  8  2  0
  3  4  1  0
  4  5  2  0
  4 25  1  0
  5  6  1  0
  5 26  1  0
  6  7  2  0
  6 27  1  0
  7 21  1  0
  7  8  1  0
  8  9  1  0
  9 19  1  0
  9 10  1  0
  9 28  1  1
 10 11  1  0
 10 29  1  0
 10 30  1  0
 11 16  1  0
 11 12  1  0
 11 31  1  6
 12 19  1  0
 12 13  1  0
 12 32  1  1
 13 14  1  0
 13 33  1  0
 13 34  1  0
 14 15  1  0
 14 16  1  0
 14 35  1  6
 15 36  1  0
 16 17  1  6
 16 18  1  0
 17 37  1  0
 19 18  1  6
 18 38  1  0
 18 39  1  0
 19 20  1  0
 20 21  1  0
 20 40  1  0
 20 41  1  0
M  END
>  <i_m_ct_stereo_status>  (29) 
1

>  <s_m_source_file>  (29) 
/var/tmp/pbs.5076255.sched01/tmp361wbqj1/0nt8_y6ui.sdf

>  <i_m_source_file_index>  (29) 
10

>  <i_lp_mmshare_version>  (29) 
48012

>  <i_f3d_flags>  (29) 
0

>  <s_epik_input>  (29) 
W0NIM11PYzFbY0hdW2NIXVtjSF1jKE9bQ0gyXTIpYzFbQ0BASF0oW0NAXTIzNClbQ0gyXVtDQEhdNVtDQEBIXTNbQ0gyXVtDQEBIXShbT0hdKVtDQEBdNShbT0hdKVtDSDJdNA==

>  <s_epik_cmdline>  (29) 
J2VwaWtfcHl0aG9uJywgJy1waHQnLCAnMi4wJywgJy1waCcsICc3LjAnLCAnLXRuJywgJzgnLCAnLW1hJywgJzIwMCcsICctaW1hZScsICc8aW5maWxlLm1hZT4nLCAnLW9tYWUnLCAnPG91dGZpbGUubWFlPic=

>  <r_lp_tautomer_probability>  (29) 
1

>  <r_epik_Ionization_Penalty>  (29) 
7.3726e-07

>  <r_epik_Ionization_Penalty_Charging>  (29) 
0

>  <r_epik_Ionization_Penalty_Neutral>  (29) 
7.3726e-07

>  <r_epik_State_Penalty>  (29) 
-0

>  <r_epik_Charging_Adjusted_Penalty>  (29) 
0

>  <i_epik_Tot_Q>  (29) 
0

>  <i_epik_Tot_abs_Q>  (29) 
0

>  <s_lp_Force_Field>  (29) 
OPLS3e

>  <r_lp_Energy>  (29) 
64.9508

>  <b_lp_Chiralities_Consistent>  (29) 
1

>  <s_lp_Variant>  (29) 
8:0-1

>  <s_i_glide_gridfile>  (29) 
pfpi4k_grid

>  <i_i_glide_lignum>  (29) 
10

>  <i_i_glide_rotatable_bonds>  (29) 
3

>  <r_i_docking_score>  (29) 
-2.93619

>  <r_i_glide_ligand_efficiency>  (29) 
-0.139818

>  <r_i_glide_ligand_efficiency_sa>  (29) 
-0.385749

>  <r_i_glide_ligand_efficiency_ln>  (29) 
-0.725967

>  <r_i_glide_gscore>  (29) 
-2.93619

>  <r_i_glide_lipo>  (29) 
-0.0550825

>  <r_i_glide_hbond>  (29) 
0

>  <r_i_glide_metal>  (29) 
-0

>  <r_i_glide_rewards>  (29) 
-1.44315

>  <r_i_glide_evdw>  (29) 
-16.7048

>  <r_i_glide_ecoul>  (29) 
-4.01812

>  <r_i_glide_erotb>  (29) 
0

>  <r_i_glide_esite>  (29) 
0

>  <r_i_glide_emodel>  (29) 
-24.0169

>  <r_i_glide_energy>  (29) 
-20.7229

>  <r_i_glide_einternal>  (29) 
1.68848

>  <r_i_glide_intrahb_reward>  (29) 
-0

>  <i_i_glide_confnum>  (29) 
2

>  <i_i_glide_posenum>  (29) 
25

>  <r_i_glide_eff_state_penalty>  (29) 
0

>  <ligand_id>  (29) 
8

>  <original_smiles>  (29) 
COc1cccc2c1C1CC3C4CC(O)C3(O)CC14CO2

>  <smiles>  (29) 
[H]OC1([H])C([H])([H])C2([H])C3([H])C([H])([H])C4([H])c5c(OC([H])([H])[H])c([H])c([H])c([H])c5OC([H])([H])C42C([H])([H])C13O[H]

$$$$
9:0:0
     RDKit          3D

 26 28  0  0  1  0  0  0  0  0999 V2000
  -10.3309   -5.8913   -7.5599 C   0  0  0  0  0  0  0  0  0  0  0  0
   -8.8789   -5.3811   -7.6065 C   0  0  1  0  0  0  0  0  0  0  0  0
   -8.8773   -3.8411   -7.7238 C   0  0  0  0  0  0  0  0  0  0  0  0
   -9.0573   -3.3848   -6.2823 C   0  0  0  0  0  0  0  0  0  0  0  0
   -8.3267   -4.4277   -5.4472 C   0  0  0  0  0  0  0  0  0  0  0  0
   -8.1810   -5.5908   -6.3180 N   0  0  0  0  0  0  0  0  0  0  0  0
   -7.3921   -6.6424   -5.9906 C   0  0  0  0  0  0  0  0  0  0  0  0
   -6.8726   -6.8107   -4.8872 O   0  0  0  0  0  0  0  0  0  0  0  0
   -7.0997   -7.5652   -7.0869 C   0  0  0  0  0  0  0  0  0  0  0  0
   -6.3639   -8.7253   -7.0486 N   0  0  0  0  0  0  0  0  0  0  0  0
   -6.2525   -9.2445   -8.2963 N   0  0  0  0  0  0  0  0  0  0  0  0
   -6.9015   -8.3769   -9.1064 C   0  0  0  0  0  0  0  0  0  0  0  0
   -7.4578   -7.3148   -8.3711 C   0  0  0  0  0  0  0  0  0  0  0  0
   -8.1981   -6.0954   -8.7815 C   0  0  0  0  0  0  0  0  0  0  0  0
   -8.3314   -5.6861   -9.9442 O   0  0  0  0  0  0  0  0  0  0  0  0
   -5.9605   -9.1662   -6.2344 H   0  0  0  0  0  0  0  0  0  0  0  0
  -10.8995   -5.6323   -8.4499 H   0  0  0  0  0  0  0  0  0  0  0  0
  -10.8595   -5.5044   -6.6829 H   0  0  0  0  0  0  0  0  0  0  0  0
  -10.3312   -6.9847   -7.5502 H   0  0  0  0  0  0  0  0  0  0  0  0
   -7.9260   -3.5049   -8.1457 H   0  0  0  0  0  0  0  0  0  0  0  0
   -9.7080   -3.4711   -8.3094 H   0  0  0  0  0  0  0  0  0  0  0  0
   -8.6384   -2.3948   -6.1159 H   0  0  0  0  0  0  0  0  0  0  0  0
  -10.1228   -3.3213   -6.0454 H   0  0  0  0  0  0  0  0  0  0  0  0
   -7.3575   -4.0566   -5.1030 H   0  0  0  0  0  0  0  0  0  0  0  0
   -8.9431   -4.6522   -4.5691 H   0  0  0  0  0  0  0  0  0  0  0  0
   -6.9261   -8.5133  -10.1713 H   0  0  0  0  0  0  0  0  0  0  0  0
  2  1  1  1
  1 17  1  0
  1 18  1  0
  1 19  1  0
  2  6  1  0
  2 14  1  0
  2  3  1  0
  3  4  1  0
  3 20  1  0
  3 21  1  0
  4  5  1  0
  4 22  1  0
  4 23  1  0
  5  6  1  0
  5 24  1  0
  5 25  1  0
  6  7  1  0
  7  8  2  0
  7  9  1  0
  9 13  2  0
  9 10  1  0
 10 16  1  0
 10 11  1  0
 11 12  2  0
 12 13  1  0
 12 26  1  0
 13 14  1  0
 14 15  2  0
M  END
>  <i_m_ct_stereo_status>  (30) 
1

>  <s_m_source_file>  (30) 
/var/tmp/pbs.5076255.sched01/tmp361wbqj1/0nt8_y6ui.sdf

>  <i_m_source_file_index>  (30) 
11

>  <i_lp_mmshare_version>  (30) 
48012

>  <i_f3d_flags>  (30) 
0

>  <s_epik_input>  (30) 
W0NIMl0xW0NIMl1bQ0gyXU4oW0NAQF0xMltDSDNdKUMoPU8pYzNjKEMyPU8pW2NIXW5bbkhdMw==

>  <s_epik_cmdline>  (30) 
J2VwaWtfcHl0aG9uJywgJy1waHQnLCAnMi4wJywgJy1waCcsICc3LjAnLCAnLXRuJywgJzgnLCAnLW1hJywgJzIwMCcsICctaW1hZScsICc8aW5maWxlLm1hZT4nLCAnLW9tYWUnLCAnPG91dGZpbGUubWFlPic=

>  <r_epik_Ionization_Penalty>  (30) 
0.00051579

>  <r_epik_Ionization_Penalty_Charging>  (30) 
0

>  <r_epik_Ionization_Penalty_Neutral>  (30) 
0.00051579

>  <r_epik_State_Penalty>  (30) 
0.0843436

>  <r_epik_Charging_Adjusted_Penalty>  (30) 
0.0843436

>  <i_epik_Tot_Q>  (30) 
0

>  <i_epik_Tot_abs_Q>  (30) 
0

>  <s_lp_Force_Field>  (30) 
OPLS3e

>  <r_lp_Energy>  (30) 
21.2001

>  <b_lp_Chiralities_Consistent>  (30) 
1

>  <s_lp_Variant>  (30) 
9:0-1

>  <s_i_glide_gridfile>  (30) 
pfpi4k_grid

>  <i_i_glide_lignum>  (30) 
11

>  <i_i_glide_rotatable_bonds>  (30) 
0

>  <r_i_docking_score>  (30) 
-5.68037

>  <r_i_glide_ligand_efficiency>  (30) 
-0.378691

>  <r_i_glide_ligand_efficiency_sa>  (30) 
-0.933933

>  <r_i_glide_ligand_efficiency_ln>  (30) 
-1.5319

>  <r_i_glide_gscore>  (30) 
-5.68037

>  <r_i_glide_lipo>  (30) 
-1.37177

>  <r_i_glide_hbond>  (30) 
0

>  <r_i_glide_metal>  (30) 
-0

>  <r_i_glide_rewards>  (30) 
-3.18186

>  <r_i_glide_evdw>  (30) 
-19.8686

>  <r_i_glide_ecoul>  (30) 
-0.888716

>  <r_i_glide_erotb>  (30) 
0

>  <r_i_glide_esite>  (30) 
0

>  <r_i_glide_emodel>  (30) 
-28.2962

>  <r_i_glide_energy>  (30) 
-20.7573

>  <r_i_glide_einternal>  (30) 
0

>  <r_i_glide_intrahb_reward>  (30) 
-0

>  <i_i_glide_confnum>  (30) 
1

>  <i_i_glide_posenum>  (30) 
12

>  <r_i_glide_eff_state_penalty>  (30) 
0

>  <ligand_id>  (30) 
9

>  <original_smiles>  (30) 
CC12CCCN1C(=O)c1[nH]ncc1C2=O

>  <smiles>  (30) 
[H]c1nn([H])c2c1C(=O)C1(C([H])([H])[H])N(C2=O)C([H])([H])C([H])([H])C1([H])[H]

$$$$
9:0:1
     RDKit          3D

 26 28  0  0  1  0  0  0  0  0999 V2000
    0.6666    2.0405    7.2003 C   0  0  0  0  0  0  0  0  0  0  0  0
   -0.7047    1.7150    6.5685 C   0  0  1  0  0  0  0  0  0  0  0  0
   -1.7747    1.4712    7.6397 C   0  0  0  0  0  0  0  0  0  0  0  0
   -2.2208    2.8728    8.0493 C   0  0  0  0  0  0  0  0  0  0  0  0
   -2.0312    3.7189    6.7864 C   0  0  0  0  0  0  0  0  0  0  0  0
   -1.2155    2.9189    5.8756 N   0  0  0  0  0  0  0  0  0  0  0  0
   -1.0213    3.2466    4.5752 C   0  0  0  0  0  0  0  0  0  0  0  0
   -1.3706    4.3197    4.0787 O   0  0  0  0  0  0  0  0  0  0  0  0
   -0.4564    2.1557    3.7586 C   0  0  0  0  0  0  0  0  0  0  0  0
   -0.1237    2.1488    2.4268 N   0  0  0  0  0  0  0  0  0  0  0  0
    0.3243    0.9296    2.0358 N   0  0  0  0  0  0  0  0  0  0  0  0
    0.2268    0.1559    3.1140 C   0  0  0  0  0  0  0  0  0  0  0  0
   -0.2459    0.9008    4.2296 C   0  0  0  0  0  0  0  0  0  0  0  0
   -0.5233    0.5076    5.6235 C   0  0  0  0  0  0  0  0  0  0  0  0
   -0.5653   -0.6501    6.0544 O   0  0  0  0  0  0  0  0  0  0  0  0
   -0.1509    2.9623    1.7983 H   0  0  0  0  0  0  0  0  0  0  0  0
    1.0355    1.2040    7.7947 H   0  0  0  0  0  0  0  0  0  0  0  0
    0.6153    2.9140    7.8533 H   0  0  0  0  0  0  0  0  0  0  0  0
    1.4119    2.2542    6.4320 H   0  0  0  0  0  0  0  0  0  0  0  0
   -2.6276    0.9488    7.1993 H   0  0  0  0  0  0  0  0  0  0  0  0
   -1.4086    0.8895    8.4869 H   0  0  0  0  0  0  0  0  0  0  0  0
   -3.2527    2.8915    8.4109 H   0  0  0  0  0  0  0  0  0  0  0  0
   -1.5806    3.2427    8.8528 H   0  0  0  0  0  0  0  0  0  0  0  0
   -2.9849    3.9655    6.3259 H   0  0  0  0  0  0  0  0  0  0  0  0
   -1.4971    4.6359    7.0286 H   0  0  0  0  0  0  0  0  0  0  0  0
    0.5089   -0.8860    3.0526 H   0  0  0  0  0  0  0  0  0  0  0  0
  2  1  1  1
  1 17  1  0
  1 18  1  0
  1 19  1  0
  2  6  1  0
  2 14  1  0
  2  3  1  0
  3  4  1  0
  3 20  1  0
  3 21  1  0
  4  5  1  0
  4 22  1  0
  4 23  1  0
  5  6  1  0
  5 24  1  0
  5 25  1  0
  6  7  1  0
  7  8  2  0
  7  9  1  0
  9 13  2  0
  9 10  1  0
 10 16  1  0
 10 11  1  0
 11 12  2  0
 12 13  1  0
 12 26  1  0
 13 14  1  0
 14 15  2  0
M  END
>  <i_m_ct_stereo_status>  (31) 
1

>  <s_m_source_file>  (31) 
/var/tmp/pbs.5076255.sched01/tmp361wbqj1/0nt8_y6ui.sdf

>  <i_m_source_file_index>  (31) 
11

>  <i_lp_mmshare_version>  (31) 
48012

>  <i_f3d_flags>  (31) 
0

>  <s_epik_input>  (31) 
W0NIMl0xW0NIMl1bQ0gyXU4oW0NAQF0xMltDSDNdKUMoPU8pYzNjKEMyPU8pW2NIXW5bbkhdMw==

>  <s_epik_cmdline>  (31) 
J2VwaWtfcHl0aG9uJywgJy1waHQnLCAnMi4wJywgJy1waCcsICc3LjAnLCAnLXRuJywgJzgnLCAnLW1hJywgJzIwMCcsICctaW1hZScsICc8aW5maWxlLm1hZT4nLCAnLW9tYWUnLCAnPG91dGZpbGUubWFlPic=

>  <r_epik_Ionization_Penalty>  (31) 
0.00051579

>  <r_epik_Ionization_Penalty_Charging>  (31) 
0

>  <r_epik_Ionization_Penalty_Neutral>  (31) 
0.00051579

>  <r_epik_State_Penalty>  (31) 
0.0843436

>  <r_epik_Charging_Adjusted_Penalty>  (31) 
0.0843436

>  <i_epik_Tot_Q>  (31) 
0

>  <i_epik_Tot_abs_Q>  (31) 
0

>  <s_lp_Force_Field>  (31) 
OPLS3e

>  <r_lp_Energy>  (31) 
21.2001

>  <b_lp_Chiralities_Consistent>  (31) 
1

>  <s_lp_Variant>  (31) 
9:0-1

>  <s_i_glide_gridfile>  (31) 
pfpi4k_grid

>  <i_i_glide_lignum>  (31) 
11

>  <i_i_glide_rotatable_bonds>  (31) 
0

>  <r_i_docking_score>  (31) 
-3.88803

>  <r_i_glide_ligand_efficiency>  (31) 
-0.259202

>  <r_i_glide_ligand_efficiency_sa>  (31) 
-0.639246

>  <r_i_glide_ligand_efficiency_ln>  (31) 
-1.04854

>  <r_i_glide_gscore>  (31) 
-3.88803

>  <r_i_glide_lipo>  (31) 
-0.100098

>  <r_i_glide_hbond>  (31) 
-0.210258

>  <r_i_glide_metal>  (31) 
-0

>  <r_i_glide_rewards>  (31) 
-2.02045

>  <r_i_glide_evdw>  (31) 
-15.7065

>  <r_i_glide_ecoul>  (31) 
-4.14187

>  <r_i_glide_erotb>  (31) 
0

>  <r_i_glide_esite>  (31) 
-0.150616

>  <r_i_glide_emodel>  (31) 
-25.0073

>  <r_i_glide_energy>  (31) 
-19.8484

>  <r_i_glide_einternal>  (31) 
0

>  <r_i_glide_intrahb_reward>  (31) 
-0

>  <i_i_glide_confnum>  (31) 
1

>  <i_i_glide_posenum>  (31) 
18

>  <r_i_glide_eff_state_penalty>  (31) 
0

>  <ligand_id>  (31) 
9

>  <original_smiles>  (31) 
CC12CCCN1C(=O)c1[nH]ncc1C2=O

>  <smiles>  (31) 
[H]c1nn([H])c2c1C(=O)C1(C([H])([H])[H])N(C2=O)C([H])([H])C([H])([H])C1([H])[H]

$$$$
9:0:2
     RDKit          3D

 26 28  0  0  1  0  0  0  0  0999 V2000
    1.2380    4.2804    3.6846 C   0  0  0  0  0  0  0  0  0  0  0  0
    0.9844    2.9037    4.3350 C   0  0  1  0  0  0  0  0  0  0  0  0
    0.4321    3.0371    5.7628 C   0  0  0  0  0  0  0  0  0  0  0  0
   -1.0659    3.2913    5.5509 C   0  0  0  0  0  0  0  0  0  0  0  0
   -1.4097    2.5538    4.2506 C   0  0  0  0  0  0  0  0  0  0  0  0
   -0.1292    2.2405    3.6257 N   0  0  0  0  0  0  0  0  0  0  0  0
   -0.0171    1.4041    2.5728 C   0  0  0  0  0  0  0  0  0  0  0  0
   -0.9881    0.9441    1.9843 O   0  0  0  0  0  0  0  0  0  0  0  0
    1.3569    0.9567    2.2760 C   0  0  0  0  0  0  0  0  0  0  0  0
    1.8157    0.1284    1.2820 N   0  0  0  0  0  0  0  0  0  0  0  0
    3.1419   -0.1340    1.4265 N   0  0  0  0  0  0  0  0  0  0  0  0
    3.5054    0.5323    2.5229 C   0  0  0  0  0  0  0  0  0  0  0  0
    2.4090    1.2347    3.0851 C   0  0  0  0  0  0  0  0  0  0  0  0
    2.3065    2.1006    4.2701 C   0  0  0  0  0  0  0  0  0  0  0  0
    3.1907    2.2532    5.1121 O   0  0  0  0  0  0  0  0  0  0  0  0
    1.2658   -0.2812    0.5184 H   0  0  0  0  0  0  0  0  0  0  0  0
    1.9915    4.8472    4.2358 H   0  0  0  0  0  0  0  0  0  0  0  0
    0.3291    4.8825    3.6421 H   0  0  0  0  0  0  0  0  0  0  0  0
    1.5961    4.1709    2.6592 H   0  0  0  0  0  0  0  0  0  0  0  0
    0.5702    2.0985    6.3086 H   0  0  0  0  0  0  0  0  0  0  0  0
    0.9182    3.8279    6.3414 H   0  0  0  0  0  0  0  0  0  0  0  0
   -1.6676    2.9457    6.3967 H   0  0  0  0  0  0  0  0  0  0  0  0
   -1.2420    4.3642    5.4307 H   0  0  0  0  0  0  0  0  0  0  0  0
   -2.0025    1.6588    4.4373 H   0  0  0  0  0  0  0  0  0  0  0  0
   -1.9871    3.1973    3.5865 H   0  0  0  0  0  0  0  0  0  0  0  0
    4.5330    0.4950    2.8626 H   0  0  0  0  0  0  0  0  0  0  0  0
  2  1  1  6
  1 17  1  0
  1 18  1  0
  1 19  1  0
  2  6  1  0
  2 14  1  0
  2  3  1  0
  3  4  1  0
  3 20  1  0
  3 21  1  0
  4  5  1  0
  4 22  1  0
  4 23  1  0
  5  6  1  0
  5 24  1  0
  5 25  1  0
  6  7  1  0
  7  8  2  0
  7  9  1  0
  9 13  2  0
  9 10  1  0
 10 16  1  0
 10 11  1  0
 11 12  2  0
 12 13  1  0
 12 26  1  0
 13 14  1  0
 14 15  2  0
M  END
>  <i_m_ct_stereo_status>  (32) 
1

>  <s_m_source_file>  (32) 
/var/tmp/pbs.5076255.sched01/tmp361wbqj1/0nt8_y6ui.sdf

>  <i_m_source_file_index>  (32) 
11

>  <i_lp_mmshare_version>  (32) 
48012

>  <i_f3d_flags>  (32) 
0

>  <s_epik_input>  (32) 
W0NIMl0xW0NIMl1bQ0gyXU4oW0NAQF0xMltDSDNdKUMoPU8pYzNjKEMyPU8pW2NIXW5bbkhdMw==

>  <s_epik_cmdline>  (32) 
J2VwaWtfcHl0aG9uJywgJy1waHQnLCAnMi4wJywgJy1waCcsICc3LjAnLCAnLXRuJywgJzgnLCAnLW1hJywgJzIwMCcsICctaW1hZScsICc8aW5maWxlLm1hZT4nLCAnLW9tYWUnLCAnPG91dGZpbGUubWFlPic=

>  <r_epik_Ionization_Penalty>  (32) 
0.00051579

>  <r_epik_Ionization_Penalty_Charging>  (32) 
0

>  <r_epik_Ionization_Penalty_Neutral>  (32) 
0.00051579

>  <r_epik_State_Penalty>  (32) 
0.0843436

>  <r_epik_Charging_Adjusted_Penalty>  (32) 
0.0843436

>  <i_epik_Tot_Q>  (32) 
0

>  <i_epik_Tot_abs_Q>  (32) 
0

>  <s_lp_Force_Field>  (32) 
OPLS3e

>  <r_lp_Energy>  (32) 
21.2001

>  <b_lp_Chiralities_Consistent>  (32) 
1

>  <s_lp_Variant>  (32) 
9:0-1

>  <s_i_glide_gridfile>  (32) 
pfpi4k_grid

>  <i_i_glide_lignum>  (32) 
11

>  <i_i_glide_rotatable_bonds>  (32) 
0

>  <r_i_docking_score>  (32) 
-3.76451

>  <r_i_glide_ligand_efficiency>  (32) 
-0.250967

>  <r_i_glide_ligand_efficiency_sa>  (32) 
-0.618938

>  <r_i_glide_ligand_efficiency_ln>  (32) 
-1.01523

>  <r_i_glide_gscore>  (32) 
-3.76451

>  <r_i_glide_lipo>  (32) 
-0.0301103

>  <r_i_glide_hbond>  (32) 
-0.16

>  <r_i_glide_metal>  (32) 
-0

>  <r_i_glide_rewards>  (32) 
-2.00991

>  <r_i_glide_evdw>  (32) 
-15.0058

>  <r_i_glide_ecoul>  (32) 
-4.13071

>  <r_i_glide_erotb>  (32) 
0

>  <r_i_glide_esite>  (32) 
-0.194591

>  <r_i_glide_emodel>  (32) 
-24.1186

>  <r_i_glide_energy>  (32) 
-19.1365

>  <r_i_glide_einternal>  (32) 
0

>  <r_i_glide_intrahb_reward>  (32) 
-0

>  <i_i_glide_confnum>  (32) 
2

>  <i_i_glide_posenum>  (32) 
10

>  <r_i_glide_eff_state_penalty>  (32) 
0

>  <ligand_id>  (32) 
9

>  <original_smiles>  (32) 
CC12CCCN1C(=O)c1[nH]ncc1C2=O

>  <smiles>  (32) 
[H]c1nn([H])c2c1C(=O)C1(C([H])([H])[H])N(C2=O)C([H])([H])C([H])([H])C1([H])[H]

$$$$
9:1:0
     RDKit          3D

 26 28  0  0  1  0  0  0  0  0999 V2000
    5.0162   -5.0459   -0.0604 C   0  0  0  0  0  0  0  0  0  0  0  0
    4.1250   -3.8596    0.3676 C   0  0  1  0  0  0  0  0  0  0  0  0
    3.7776   -3.9240    1.8657 C   0  0  0  0  0  0  0  0  0  0  0  0
    5.0144   -3.3316    2.5528 C   0  0  0  0  0  0  0  0  0  0  0  0
    5.5658   -2.3158    1.5499 C   0  0  0  0  0  0  0  0  0  0  0  0
    4.9089   -2.6130    0.2809 N   0  0  0  0  0  0  0  0  0  0  0  0
    5.0387   -1.8124   -0.7945 C   0  0  0  0  0  0  0  0  0  0  0  0
    5.8162   -0.8643   -0.8303 O   0  0  0  0  0  0  0  0  0  0  0  0
    4.0999   -2.0661   -1.9339 C   0  0  0  0  0  0  0  0  0  0  0  0
    4.0457   -1.4708   -3.1239 N   0  0  0  0  0  0  0  0  0  0  0  0
    2.9576   -2.0224   -3.7151 N   0  0  0  0  0  0  0  0  0  0  0  0
    2.3190   -2.9523   -2.9143 C   0  0  0  0  0  0  0  0  0  0  0  0
    3.0621   -3.0181   -1.7772 C   0  0  0  0  0  0  0  0  0  0  0  0
    2.8906   -3.8491   -0.5621 C   0  0  0  0  0  0  0  0  0  0  0  0
    1.9207   -4.5690   -0.3271 O   0  0  0  0  0  0  0  0  0  0  0  0
    4.4992   -5.9970    0.0727 H   0  0  0  0  0  0  0  0  0  0  0  0
    5.9400   -5.0876    0.5160 H   0  0  0  0  0  0  0  0  0  0  0  0
    5.2933   -4.9739   -1.1130 H   0  0  0  0  0  0  0  0  0  0  0  0
    2.9097   -3.2935    2.0769 H   0  0  0  0  0  0  0  0  0  0  0  0
    3.5501   -4.9331    2.2133 H   0  0  0  0  0  0  0  0  0  0  0  0
    4.7788   -2.8721    3.5158 H   0  0  0  0  0  0  0  0  0  0  0  0
    5.7536   -4.1163    2.7290 H   0  0  0  0  0  0  0  0  0  0  0  0
    5.3710   -1.2911    1.8653 H   0  0  0  0  0  0  0  0  0  0  0  0
    6.6455   -2.4284    1.4433 H   0  0  0  0  0  0  0  0  0  0  0  0
    1.4192   -3.4590   -3.2215 H   0  0  0  0  0  0  0  0  0  0  0  0
    2.6192   -1.7219   -4.6235 H   0  0  0  0  0  0  0  0  0  0  0  0
  2  1  1  6
  1 16  1  0
  1 17  1  0
  1 18  1  0
  2  6  1  0
  2 14  1  0
  2  3  1  0
  3  4  1  0
  3 19  1  0
  3 20  1  0
  4  5  1  0
  4 21  1  0
  4 22  1  0
  5  6  1  0
  5 23  1  0
  5 24  1  0
  6  7  1  0
  7  8  2  0
  7  9  1  0
  9 13  1  0
  9 10  2  0
 10 11  1  0
 11 12  1  0
 11 26  1  0
 12 13  2  0
 12 25  1  0
 13 14  1  0
 14 15  2  0
M  END
>  <i_m_ct_stereo_status>  (33) 
1

>  <s_m_source_file>  (33) 
/var/tmp/pbs.5076255.sched01/tmp361wbqj1/0nt8_y6ui.sdf

>  <i_m_source_file_index>  (33) 
12

>  <i_lp_mmshare_version>  (33) 
48012

>  <i_f3d_flags>  (33) 
0

>  <s_epik_input>  (33) 
W0NIMl0xW0NIMl1bQ0gyXU4oW0NAQF0xMltDSDNdKUMoPU8pYzNjKEMyPU8pW2NIXW5bbkhdMw==

>  <s_epik_cmdline>  (33) 
J2VwaWtfcHl0aG9uJywgJy1waHQnLCAnMi4wJywgJy1waCcsICc3LjAnLCAnLXRuJywgJzgnLCAnLW1hJywgJzIwMCcsICctaW1hZScsICc8aW5maWxlLm1hZT4nLCAnLW9tYWUnLCAnPG91dGZpbGUubWFlPic=

>  <r_epik_Ionization_Penalty>  (33) 
6.41324e-05

>  <r_epik_Ionization_Penalty_Charging>  (33) 
0

>  <r_epik_Ionization_Penalty_Neutral>  (33) 
6.41324e-05

>  <r_epik_State_Penalty>  (33) 
1.19879

>  <r_epik_Charging_Adjusted_Penalty>  (33) 
1.19879

>  <i_epik_Tot_Q>  (33) 
0

>  <i_epik_Tot_abs_Q>  (33) 
0

>  <s_lp_Force_Field>  (33) 
OPLS3e

>  <r_lp_Energy>  (33) 
25.0834

>  <b_lp_Chiralities_Consistent>  (33) 
1

>  <s_lp_Variant>  (33) 
9:0-2

>  <s_i_glide_gridfile>  (33) 
pfpi4k_grid

>  <i_i_glide_lignum>  (33) 
12

>  <i_i_glide_rotatable_bonds>  (33) 
0

>  <r_i_docking_score>  (33) 
-4.26013

>  <r_i_glide_ligand_efficiency>  (33) 
-0.284009

>  <r_i_glide_ligand_efficiency_sa>  (33) 
-0.700426

>  <r_i_glide_ligand_efficiency_ln>  (33) 
-1.14889

>  <r_i_glide_gscore>  (33) 
-4.26013

>  <r_i_glide_lipo>  (33) 
-0.271721

>  <r_i_glide_hbond>  (33) 
-0.234256

>  <r_i_glide_metal>  (33) 
-0

>  <r_i_glide_rewards>  (33) 
-2.02799

>  <r_i_glide_evdw>  (33) 
-19.1291

>  <r_i_glide_ecoul>  (33) 
-4.78887

>  <r_i_glide_erotb>  (33) 
0

>  <r_i_glide_esite>  (33) 
-0.0513746

>  <r_i_glide_emodel>  (33) 
-30.455

>  <r_i_glide_energy>  (33) 
-23.918

>  <r_i_glide_einternal>  (33) 
0

>  <r_i_glide_intrahb_reward>  (33) 
-0

>  <i_i_glide_confnum>  (33) 
1

>  <i_i_glide_posenum>  (33) 
3

>  <r_i_glide_eff_state_penalty>  (33) 
0

>  <ligand_id>  (33) 
9

>  <original_smiles>  (33) 
CC12CCCN1C(=O)c1[nH]ncc1C2=O

>  <smiles>  (33) 
[H]c1c2c(nn1[H])C(=O)N1C([H])([H])C([H])([H])C([H])([H])C1(C([H])([H])[H])C2=O

$$$$
9:1:1
     RDKit          3D

 26 28  0  0  1  0  0  0  0  0999 V2000
    5.5386   -3.2614   -2.6276 C   0  0  0  0  0  0  0  0  0  0  0  0
    4.4726   -2.3279   -2.0120 C   0  0  1  0  0  0  0  0  0  0  0  0
    4.0637   -1.2206   -3.0001 C   0  0  0  0  0  0  0  0  0  0  0  0
    3.0413   -1.9091   -3.9050 C   0  0  0  0  0  0  0  0  0  0  0  0
    2.3736   -2.9576   -3.0169 C   0  0  0  0  0  0  0  0  0  0  0  0
    3.2151   -3.0818   -1.8323 N   0  0  0  0  0  0  0  0  0  0  0  0
    2.8284   -3.7891   -0.7474 C   0  0  0  0  0  0  0  0  0  0  0  0
    1.8157   -4.4816   -0.7109 O   0  0  0  0  0  0  0  0  0  0  0  0
    3.6686   -3.6062    0.4794 C   0  0  0  0  0  0  0  0  0  0  0  0
    3.5654   -4.2131    1.6560 N   0  0  0  0  0  0  0  0  0  0  0  0
    4.5014   -3.6060    2.4275 N   0  0  0  0  0  0  0  0  0  0  0  0
    5.1912   -2.6113    1.7596 C   0  0  0  0  0  0  0  0  0  0  0  0
    4.6826   -2.6169    0.4987 C   0  0  0  0  0  0  0  0  0  0  0  0
    5.0310   -1.7932   -0.6759 C   0  0  0  0  0  0  0  0  0  0  0  0
    5.7904   -0.8289   -0.6470 O   0  0  0  0  0  0  0  0  0  0  0  0
    6.4617   -2.7258   -2.8556 H   0  0  0  0  0  0  0  0  0  0  0  0
    5.1926   -3.7251   -3.5517 H   0  0  0  0  0  0  0  0  0  0  0  0
    5.7949   -4.0707   -1.9440 H   0  0  0  0  0  0  0  0  0  0  0  0
    3.5770   -0.3981   -2.4693 H   0  0  0  0  0  0  0  0  0  0  0  0
    4.8983   -0.8030   -3.5647 H   0  0  0  0  0  0  0  0  0  0  0  0
    2.3174   -1.2095   -4.3312 H   0  0  0  0  0  0  0  0  0  0  0  0
    3.5511   -2.4128   -4.7249 H   0  0  0  0  0  0  0  0  0  0  0  0
    1.3720   -2.6536   -2.7333 H   0  0  0  0  0  0  0  0  0  0  0  0
    2.2984   -3.9125   -3.5354 H   0  0  0  0  0  0  0  0  0  0  0  0
    5.9630   -2.0157    2.2228 H   0  0  0  0  0  0  0  0  0  0  0  0
    4.6344   -3.8641    3.3965 H   0  0  0  0  0  0  0  0  0  0  0  0
  2  1  1  6
  1 16  1  0
  1 17  1  0
  1 18  1  0
  2  6  1  0
  2 14  1  0
  2  3  1  0
  3  4  1  0
  3 19  1  0
  3 20  1  0
  4  5  1  0
  4 21  1  0
  4 22  1  0
  5  6  1  0
  5 23  1  0
  5 24  1  0
  6  7  1  0
  7  8  2  0
  7  9  1  0
  9 13  1  0
  9 10  2  0
 10 11  1  0
 11 12  1  0
 11 26  1  0
 12 13  2  0
 12 25  1  0
 13 14  1  0
 14 15  2  0
M  END
>  <i_m_ct_stereo_status>  (34) 
1

>  <s_m_source_file>  (34) 
/var/tmp/pbs.5076255.sched01/tmp361wbqj1/0nt8_y6ui.sdf

>  <i_m_source_file_index>  (34) 
12

>  <i_lp_mmshare_version>  (34) 
48012

>  <i_f3d_flags>  (34) 
0

>  <s_epik_input>  (34) 
W0NIMl0xW0NIMl1bQ0gyXU4oW0NAQF0xMltDSDNdKUMoPU8pYzNjKEMyPU8pW2NIXW5bbkhdMw==

>  <s_epik_cmdline>  (34) 
J2VwaWtfcHl0aG9uJywgJy1waHQnLCAnMi4wJywgJy1waCcsICc3LjAnLCAnLXRuJywgJzgnLCAnLW1hJywgJzIwMCcsICctaW1hZScsICc8aW5maWxlLm1hZT4nLCAnLW9tYWUnLCAnPG91dGZpbGUubWFlPic=

>  <r_epik_Ionization_Penalty>  (34) 
6.41324e-05

>  <r_epik_Ionization_Penalty_Charging>  (34) 
0

>  <r_epik_Ionization_Penalty_Neutral>  (34) 
6.41324e-05

>  <r_epik_State_Penalty>  (34) 
1.19879

>  <r_epik_Charging_Adjusted_Penalty>  (34) 
1.19879

>  <i_epik_Tot_Q>  (34) 
0

>  <i_epik_Tot_abs_Q>  (34) 
0

>  <s_lp_Force_Field>  (34) 
OPLS3e

>  <r_lp_Energy>  (34) 
25.0834

>  <b_lp_Chiralities_Consistent>  (34) 
1

>  <s_lp_Variant>  (34) 
9:0-2

>  <s_i_glide_gridfile>  (34) 
pfpi4k_grid

>  <i_i_glide_lignum>  (34) 
12

>  <i_i_glide_rotatable_bonds>  (34) 
0

>  <r_i_docking_score>  (34) 
-3.93249

>  <r_i_glide_ligand_efficiency>  (34) 
-0.262166

>  <r_i_glide_ligand_efficiency_sa>  (34) 
-0.646558

>  <r_i_glide_ligand_efficiency_ln>  (34) 
-1.06053

>  <r_i_glide_gscore>  (34) 
-3.93249

>  <r_i_glide_lipo>  (34) 
-0.579503

>  <r_i_glide_hbond>  (34) 
-0.0312337

>  <r_i_glide_metal>  (34) 
-0

>  <r_i_glide_rewards>  (34) 
-2.00991

>  <r_i_glide_evdw>  (34) 
-21.3025

>  <r_i_glide_ecoul>  (34) 
-1.31549

>  <r_i_glide_erotb>  (34) 
0

>  <r_i_glide_esite>  (34) 
-0.0494009

>  <r_i_glide_emodel>  (34) 
-28.662

>  <r_i_glide_energy>  (34) 
-22.618

>  <r_i_glide_einternal>  (34) 
0

>  <r_i_glide_intrahb_reward>  (34) 
-0

>  <i_i_glide_confnum>  (34) 
1

>  <i_i_glide_posenum>  (34) 
9

>  <r_i_glide_eff_state_penalty>  (34) 
0

>  <ligand_id>  (34) 
9

>  <original_smiles>  (34) 
CC12CCCN1C(=O)c1[nH]ncc1C2=O

>  <smiles>  (34) 
[H]c1c2c(nn1[H])C(=O)N1C([H])([H])C([H])([H])C([H])([H])C1(C([H])([H])[H])C2=O

$$$$
9:1:2
     RDKit          3D

 26 28  0  0  1  0  0  0  0  0999 V2000
    5.7861   -3.3632   -1.8232 C   0  0  0  0  0  0  0  0  0  0  0  0
    4.7231   -2.3865   -1.2751 C   0  0  1  0  0  0  0  0  0  0  0  0
    4.7174   -1.0630   -2.0591 C   0  0  0  0  0  0  0  0  0  0  0  0
    3.8828   -1.3784   -3.3055 C   0  0  0  0  0  0  0  0  0  0  0  0
    2.8826   -2.4408   -2.8431 C   0  0  0  0  0  0  0  0  0  0  0  0
    3.3795   -2.9334   -1.5606 N   0  0  0  0  0  0  0  0  0  0  0  0
    2.6374   -3.7491   -0.7739 C   0  0  0  0  0  0  0  0  0  0  0  0
    1.5711   -4.2516   -1.1238 O   0  0  0  0  0  0  0  0  0  0  0  0
    3.1494   -3.9349    0.6278 C   0  0  0  0  0  0  0  0  0  0  0  0
    2.6612   -4.7144    1.5880 N   0  0  0  0  0  0  0  0  0  0  0  0
    3.4396   -4.4379    2.6614 N   0  0  0  0  0  0  0  0  0  0  0  0
    4.4023   -3.4815    2.4074 C   0  0  0  0  0  0  0  0  0  0  0  0
    4.2437   -3.1584    1.0888 C   0  0  0  0  0  0  0  0  0  0  0  0
    4.9803   -2.2011    0.2377 C   0  0  0  0  0  0  0  0  0  0  0  0
    5.8033   -1.3824    0.6408 O   0  0  0  0  0  0  0  0  0  0  0  0
    6.7970   -2.9670   -1.7166 H   0  0  0  0  0  0  0  0  0  0  0  0
    5.6287   -3.5843   -2.8804 H   0  0  0  0  0  0  0  0  0  0  0  0
    5.7522   -4.3152   -1.2926 H   0  0  0  0  0  0  0  0  0  0  0  0
    4.2250   -0.2802   -1.4762 H   0  0  0  0  0  0  0  0  0  0  0  0
    5.7174   -0.7059   -2.3079 H   0  0  0  0  0  0  0  0  0  0  0  0
    3.3880   -0.4909   -3.7084 H   0  0  0  0  0  0  0  0  0  0  0  0
    4.5240   -1.7921   -4.0878 H   0  0  0  0  0  0  0  0  0  0  0  0
    1.8848   -2.0266   -2.7239 H   0  0  0  0  0  0  0  0  0  0  0  0
    2.8215   -3.2612   -3.5540 H   0  0  0  0  0  0  0  0  0  0  0  0
    5.0986   -3.1319    3.1532 H   0  0  0  0  0  0  0  0  0  0  0  0
    3.2864   -4.8917    3.5538 H   0  0  0  0  0  0  0  0  0  0  0  0
  2  1  1  6
  1 16  1  0
  1 17  1  0
  1 18  1  0
  2  6  1  0
  2 14  1  0
  2  3  1  0
  3  4  1  0
  3 19  1  0
  3 20  1  0
  4  5  1  0
  4 21  1  0
  4 22  1  0
  5  6  1  0
  5 23  1  0
  5 24  1  0
  6  7  1  0
  7  8  2  0
  7  9  1  0
  9 13  1  0
  9 10  2  0
 10 11  1  0
 11 12  1  0
 11 26  1  0
 12 13  2  0
 12 25  1  0
 13 14  1  0
 14 15  2  0
M  END
>  <i_m_ct_stereo_status>  (35) 
1

>  <s_m_source_file>  (35) 
/var/tmp/pbs.5076255.sched01/tmp361wbqj1/0nt8_y6ui.sdf

>  <i_m_source_file_index>  (35) 
12

>  <i_lp_mmshare_version>  (35) 
48012

>  <i_f3d_flags>  (35) 
0

>  <s_epik_input>  (35) 
W0NIMl0xW0NIMl1bQ0gyXU4oW0NAQF0xMltDSDNdKUMoPU8pYzNjKEMyPU8pW2NIXW5bbkhdMw==

>  <s_epik_cmdline>  (35) 
J2VwaWtfcHl0aG9uJywgJy1waHQnLCAnMi4wJywgJy1waCcsICc3LjAnLCAnLXRuJywgJzgnLCAnLW1hJywgJzIwMCcsICctaW1hZScsICc8aW5maWxlLm1hZT4nLCAnLW9tYWUnLCAnPG91dGZpbGUubWFlPic=

>  <r_epik_Ionization_Penalty>  (35) 
6.41324e-05

>  <r_epik_Ionization_Penalty_Charging>  (35) 
0

>  <r_epik_Ionization_Penalty_Neutral>  (35) 
6.41324e-05

>  <r_epik_State_Penalty>  (35) 
1.19879

>  <r_epik_Charging_Adjusted_Penalty>  (35) 
1.19879

>  <i_epik_Tot_Q>  (35) 
0

>  <i_epik_Tot_abs_Q>  (35) 
0

>  <s_lp_Force_Field>  (35) 
OPLS3e

>  <r_lp_Energy>  (35) 
25.0834

>  <b_lp_Chiralities_Consistent>  (35) 
1

>  <s_lp_Variant>  (35) 
9:0-2

>  <s_i_glide_gridfile>  (35) 
pfpi4k_grid

>  <i_i_glide_lignum>  (35) 
12

>  <i_i_glide_rotatable_bonds>  (35) 
0

>  <r_i_docking_score>  (35) 
-3.4744

>  <r_i_glide_ligand_efficiency>  (35) 
-0.231627

>  <r_i_glide_ligand_efficiency_sa>  (35) 
-0.571241

>  <r_i_glide_ligand_efficiency_ln>  (35) 
-0.93699

>  <r_i_glide_gscore>  (35) 
-3.4744

>  <r_i_glide_lipo>  (35) 
-0.317153

>  <r_i_glide_hbond>  (35) 
-0.00177951

>  <r_i_glide_metal>  (35) 
-0

>  <r_i_glide_rewards>  (35) 
-2.02351

>  <r_i_glide_evdw>  (35) 
-20.4488

>  <r_i_glide_ecoul>  (35) 
-0.462979

>  <r_i_glide_erotb>  (35) 
0

>  <r_i_glide_esite>  (35) 
-0.0400751

>  <r_i_glide_emodel>  (35) 
-26.2377

>  <r_i_glide_energy>  (35) 
-20.9117

>  <r_i_glide_einternal>  (35) 
0

>  <r_i_glide_intrahb_reward>  (35) 
-0

>  <i_i_glide_confnum>  (35) 
2

>  <i_i_glide_posenum>  (35) 
8

>  <r_i_glide_eff_state_penalty>  (35) 
0

>  <ligand_id>  (35) 
9

>  <original_smiles>  (35) 
CC12CCCN1C(=O)c1[nH]ncc1C2=O

>  <smiles>  (35) 
[H]c1c2c(nn1[H])C(=O)N1C([H])([H])C([H])([H])C([H])([H])C1(C([H])([H])[H])C2=O

$$$$
10:0:0
     RDKit          3D

 52 55  0  0  1  0  0  0  0  0999 V2000
    4.8931   -9.7206    1.6239 C   0  0  0  0  0  0  0  0  0  0  0  0
    4.7263   -8.2181    1.4021 C   0  0  2  0  0  0  0  0  0  0  0  0
    6.0794   -7.5390    1.7330 C   0  0  0  0  0  0  0  0  0  0  0  0
    6.0352   -6.0099    1.7682 C   0  0  0  0  0  0  0  0  0  0  0  0
    4.6628   -5.4739    1.3356 C   0  0  2  0  0  0  0  0  0  0  0  0
    4.5250   -3.9625    1.0725 C   0  0  1  0  0  0  0  0  0  0  0  0
    5.7774   -3.3331    0.4044 C   0  0  0  0  0  0  0  0  0  0  0  0
    3.1780   -3.7645    0.3012 C   0  0  1  0  0  0  0  0  0  0  0  0
    3.3222   -3.6846   -1.2333 C   0  0  0  0  0  0  0  0  0  0  0  0
    3.6631   -2.2803   -1.7825 C   0  0  0  0  0  0  0  0  0  0  0  0
    3.5046   -2.2003   -3.3101 C   0  0  1  0  0  0  0  0  0  0  0  0
    3.8866   -0.9866   -3.7327 F   0  0  0  0  0  0  0  0  0  0  0  0
    4.5349   -3.4162   -4.0939 Cl  0  0  0  0  0  0  0  0  0  0  0  0
    2.2212   -4.8316    0.5542 O   0  0  0  0  0  0  0  0  0  0  0  0
    2.2240   -5.2388    1.8855 C   0  0  1  0  0  0  0  0  0  0  0  0
    1.0668   -5.8473    2.3309 O   0  0  0  0  0  0  0  0  0  0  0  0
    1.2507   -6.4957    3.5935 C   0  0  1  0  0  0  0  0  0  0  0  0
   -0.0054   -6.2368    4.4323 C   0  0  0  0  0  0  0  0  0  0  0  0
    1.3418   -7.9970    3.2986 C   0  0  0  0  0  0  0  0  0  0  0  0
    2.2024   -8.3032    2.0803 C   0  0  0  0  0  0  0  0  0  0  0  0
    3.5627   -7.6076    2.2395 C   0  0  2  0  0  0  0  0  0  0  0  0
    3.5265   -6.0281    2.2504 C   0  0  1  0  0  0  0  0  0  0  0  0
    3.6698   -5.6962    3.6190 O   0  0  0  0  0  0  0  0  0  0  0  0
    2.3621   -5.9991    4.4000 O   0  0  0  0  0  0  0  0  0  0  0  0
    5.0148   -9.9764    2.6745 H   0  0  0  0  0  0  0  0  0  0  0  0
    5.7436  -10.1417    1.0879 H   0  0  0  0  0  0  0  0  0  0  0  0
    3.9866  -10.2195    1.2725 H   0  0  0  0  0  0  0  0  0  0  0  0
    4.5001   -8.0776    0.3417 H   0  0  0  0  0  0  0  0  0  0  0  0
    6.4374   -7.8950    2.7000 H   0  0  0  0  0  0  0  0  0  0  0  0
    6.8214   -7.8597    0.9999 H   0  0  0  0  0  0  0  0  0  0  0  0
    6.2774   -5.6428    2.7653 H   0  0  0  0  0  0  0  0  0  0  0  0
    6.8230   -5.6625    1.1017 H   0  0  0  0  0  0  0  0  0  0  0  0
    4.5017   -5.8931    0.3397 H   0  0  0  0  0  0  0  0  0  0  0  0
    4.4285   -3.4858    2.0502 H   0  0  0  0  0  0  0  0  0  0  0  0
    5.9591   -3.8378   -0.5386 H   0  0  0  0  0  0  0  0  0  0  0  0
    6.6558   -3.4459    1.0385 H   0  0  0  0  0  0  0  0  0  0  0  0
    5.6366   -2.2911    0.1593 H   0  0  0  0  0  0  0  0  0  0  0  0
    2.7055   -2.8581    0.6540 H   0  0  0  0  0  0  0  0  0  0  0  0
    4.1137   -4.3791   -1.5353 H   0  0  0  0  0  0  0  0  0  0  0  0
    2.3687   -3.9869   -1.6767 H   0  0  0  0  0  0  0  0  0  0  0  0
    3.0072   -1.5338   -1.3676 H   0  0  0  0  0  0  0  0  0  0  0  0
    4.6509   -1.9981   -1.4891 H   0  0  0  0  0  0  0  0  0  0  0  0
    2.4792   -2.3642   -3.6787 H   0  0  0  0  0  0  0  0  0  0  0  0
    2.2050   -4.3037    2.4555 H   0  0  0  0  0  0  0  0  0  0  0  0
   -0.1377   -5.1794    4.6474 H   0  0  0  0  0  0  0  0  0  0  0  0
    0.0516   -6.7666    5.3850 H   0  0  0  0  0  0  0  0  0  0  0  0
   -0.9037   -6.5908    3.9226 H   0  0  0  0  0  0  0  0  0  0  0  0
    1.7244   -8.5233    4.1754 H   0  0  0  0  0  0  0  0  0  0  0  0
    0.3524   -8.4183    3.1025 H   0  0  0  0  0  0  0  0  0  0  0  0
    2.2773   -9.3903    2.0344 H   0  0  0  0  0  0  0  0  0  0  0  0
    1.7109   -7.9819    1.1584 H   0  0  0  0  0  0  0  0  0  0  0  0
    3.8783   -7.8977    3.2466 H   0  0  0  0  0  0  0  0  0  0  0  0
  1  2  1  0
  1 25  1  0
  1 26  1  0
  1 27  1  0
  2 21  1  0
  2  3  1  0
  2 28  1  6
  3  4  1  0
  3 29  1  0
  3 30  1  0
  4  5  1  0
  4 31  1  0
  4 32  1  0
  5 22  1  0
  5  6  1  0
  5 33  1  6
  6  7  1  0
  6  8  1  0
  6 34  1  1
  7 35  1  0
  7 36  1  0
  7 37  1  0
  8  9  1  0
  8 14  1  0
  8 38  1  1
  9 10  1  0
  9 39  1  0
  9 40  1  0
 10 11  1  0
 10 41  1  0
 10 42  1  0
 11 12  1  0
 11 13  1  0
 11 43  1  1
 14 15  1  0
 15 22  1  0
 15 16  1  0
 15 44  1  1
 16 17  1  0
 17 24  1  0
 17 18  1  1
 17 19  1  0
 18 45  1  0
 18 46  1  0
 18 47  1  0
 19 20  1  0
 19 48  1  0
 19 49  1  0
 20 21  1  0
 20 50  1  0
 20 51  1  0
 21 22  1  0
 21 52  1  1
 22 23  1  1
 23 24  1  0
M  END
>  <i_m_ct_stereo_status>  (36) 
1

>  <s_m_source_file>  (36) 
/var/tmp/pbs.5076255.sched01/tmp361wbqj1/0nt8_y6ui.sdf

>  <i_m_source_file_index>  (36) 
13

>  <i_lp_mmshare_version>  (36) 
48012

>  <i_f3d_flags>  (36) 
0

>  <s_epik_input>  (36) 
W0NAXTEyM1tDQEBIXTRbQ0gyXVtDSDJdW0NAQEhdKFtDSDNdKVtDQEBIXTJbQ0gyXVtDSDJdW0NAQF0oW0NIM10pKE9PMylPW0NAQEhdMU9bQ0BASF0oW0NAQEhdNFtDSDNdKVtDSDJdW0NIMl1bQ0BASF0oRilDbA==

>  <s_epik_cmdline>  (36) 
J2VwaWtfcHl0aG9uJywgJy1waHQnLCAnMi4wJywgJy1waCcsICc3LjAnLCAnLXRuJywgJzgnLCAnLW1hJywgJzIwMCcsICctaW1hZScsICc8aW5maWxlLm1hZT4nLCAnLW9tYWUnLCAnPG91dGZpbGUubWFlPic=

>  <r_lp_tautomer_probability>  (36) 
1

>  <r_epik_Ionization_Penalty>  (36) 
1.88128e-14

>  <r_epik_Ionization_Penalty_Charging>  (36) 
0

>  <r_epik_Ionization_Penalty_Neutral>  (36) 
1.88128e-14

>  <r_epik_State_Penalty>  (36) 
-0

>  <r_epik_Charging_Adjusted_Penalty>  (36) 
0

>  <i_epik_Tot_Q>  (36) 
0

>  <i_epik_Tot_abs_Q>  (36) 
0

>  <s_epik_Chemistry_Notes>  (36) 
This compound contains an acetal/aminal-like group ( X-CH(R)-Y where X, Y are N, S, or O) that may be acid/base labile, releasing an aldehyde.

>  <s_lp_Force_Field>  (36) 
OPLS3e

>  <r_lp_Energy>  (36) 
69.4022

>  <b_lp_Chiralities_Consistent>  (36) 
1

>  <s_lp_Variant>  (36) 
10:0-1

>  <s_i_glide_gridfile>  (36) 
pfpi4k_grid

>  <i_i_glide_lignum>  (36) 
13

>  <i_i_glide_rotatable_bonds>  (36) 
3

>  <r_i_docking_score>  (36) 
-3.12462

>  <r_i_glide_ligand_efficiency>  (36) 
-0.130193

>  <r_i_glide_ligand_efficiency_sa>  (36) 
-0.375541

>  <r_i_glide_ligand_efficiency_ln>  (36) 
-0.747866

>  <r_i_glide_gscore>  (36) 
-3.12462

>  <r_i_glide_lipo>  (36) 
-0.514799

>  <r_i_glide_hbond>  (36) 
-0.0513738

>  <r_i_glide_metal>  (36) 
-0

>  <r_i_glide_rewards>  (36) 
-1.22702

>  <r_i_glide_evdw>  (36) 
-20.495

>  <r_i_glide_ecoul>  (36) 
-3.71564

>  <r_i_glide_erotb>  (36) 
0.291742

>  <r_i_glide_esite>  (36) 
-0.0410747

>  <r_i_glide_emodel>  (36) 
-26.6515

>  <r_i_glide_energy>  (36) 
-24.2106

>  <r_i_glide_einternal>  (36) 
4.06576

>  <r_i_glide_intrahb_reward>  (36) 
-0

>  <i_i_glide_confnum>  (36) 
1

>  <i_i_glide_posenum>  (36) 
15

>  <r_i_glide_eff_state_penalty>  (36) 
0

>  <ligand_id>  (36) 
10

>  <original_smiles>  (36) 
CC1CCC2C(C)C(CCC(F)Cl)OC3OC4(C)CCC1C32OO4

>  <smiles>  (36) 
[H]C([H])([H])C12OOC34C([H])(OC([H])(C([H])([H])C([H])([H])C([H])(F)Cl)C([H])(C([H])([H])[H])C3([H])C([H])([H])C([H])([H])C([H])(C([H])([H])[H])C4([H])C([H])([H])C1([H])[H])O2

$$$$
10:0:1
     RDKit          3D

 52 55  0  0  1  0  0  0  0  0999 V2000
    4.1732  -10.3668    2.8759 C   0  0  0  0  0  0  0  0  0  0  0  0
    3.9371   -8.8441    2.8250 C   0  0  2  0  0  0  0  0  0  0  0  0
    4.8926   -8.1620    3.8397 C   0  0  0  0  0  0  0  0  0  0  0  0
    4.6587   -6.6611    4.0604 C   0  0  0  0  0  0  0  0  0  0  0  0
    3.5810   -6.1216    3.1095 C   0  0  2  0  0  0  0  0  0  0  0  0
    3.3924   -4.5960    3.0059 C   0  0  1  0  0  0  0  0  0  0  0  0
    4.7355   -3.8098    3.0520 C   0  0  0  0  0  0  0  0  0  0  0  0
    2.5430   -4.3318    1.7170 C   0  0  1  0  0  0  0  0  0  0  0  0
    3.3953   -3.9790    0.4699 C   0  0  0  0  0  0  0  0  0  0  0  0
    2.6123   -3.7214   -0.8050 C   0  0  0  0  0  0  0  0  0  0  0  0
    3.5084   -3.0975   -1.8917 C   0  0  1  0  0  0  0  0  0  0  0  0
    4.5927   -3.8432   -2.1197 F   0  0  0  0  0  0  0  0  0  0  0  0
    2.6145   -2.8861   -3.4159 Cl  0  0  0  0  0  0  0  0  0  0  0  0
    1.7246   -5.4665    1.3713 O   0  0  0  0  0  0  0  0  0  0  0  0
    1.1634   -6.0902    2.4801 C   0  0  1  0  0  0  0  0  0  0  0  0
   -0.0165   -6.7907    2.2592 O   0  0  0  0  0  0  0  0  0  0  0  0
   -0.3275   -7.6706    3.3406 C   0  0  1  0  0  0  0  0  0  0  0  0
   -1.8544   -7.6330    3.5189 C   0  0  0  0  0  0  0  0  0  0  0  0
    0.0673   -9.0900    2.9110 C   0  0  0  0  0  0  0  0  0  0  0  0
    1.4215   -9.1370    2.2224 C   0  0  0  0  0  0  0  0  0  0  0  0
    2.4613   -8.4312    3.0979 C   0  0  2  0  0  0  0  0  0  0  0  0
    2.2293   -6.8825    3.3046 C   0  0  1  0  0  0  0  0  0  0  0  0
    1.6901   -6.7823    4.6070 O   0  0  0  0  0  0  0  0  0  0  0  0
    0.2170   -7.2800    4.6337 O   0  0  0  0  0  0  0  0  0  0  0  0
    3.8312  -10.7871    3.8201 H   0  0  0  0  0  0  0  0  0  0  0  0
    5.2275  -10.6078    2.7933 H   0  0  0  0  0  0  0  0  0  0  0  0
    3.6476  -10.8884    2.0726 H   0  0  0  0  0  0  0  0  0  0  0  0
    4.2034   -8.5213    1.8149 H   0  0  0  0  0  0  0  0  0  0  0  0
    4.8175   -8.6666    4.8067 H   0  0  0  0  0  0  0  0  0  0  0  0
    5.9207   -8.3122    3.5060 H   0  0  0  0  0  0  0  0  0  0  0  0
    4.3712   -6.4649    5.0927 H   0  0  0  0  0  0  0  0  0  0  0  0
    5.6083   -6.1475    3.9008 H   0  0  0  0  0  0  0  0  0  0  0  0
    3.9491   -6.3688    2.1114 H   0  0  0  0  0  0  0  0  0  0  0  0
    2.8188   -4.2721    3.8742 H   0  0  0  0  0  0  0  0  0  0  0  0
    5.4325   -4.1850    2.2899 H   0  0  0  0  0  0  0  0  0  0  0  0
    5.2278   -3.8935    4.0035 H   0  0  0  0  0  0  0  0  0  0  0  0
    4.5920   -2.7460    2.8459 H   0  0  0  0  0  0  0  0  0  0  0  0
    1.8830   -3.4914    1.9192 H   0  0  0  0  0  0  0  0  0  0  0  0
    3.9856   -3.0855    0.6922 H   0  0  0  0  0  0  0  0  0  0  0  0
    4.1129   -4.7815    0.2830 H   0  0  0  0  0  0  0  0  0  0  0  0
    2.1502   -4.6423   -1.1573 H   0  0  0  0  0  0  0  0  0  0  0  0
    1.7796   -3.0518   -0.6039 H   0  0  0  0  0  0  0  0  0  0  0  0
    3.8606   -2.1217   -1.5790 H   0  0  0  0  0  0  0  0  0  0  0  0
    0.7828   -5.2597    3.0976 H   0  0  0  0  0  0  0  0  0  0  0  0
   -2.1883   -6.6524    3.8135 H   0  0  0  0  0  0  0  0  0  0  0  0
   -2.1716   -8.3385    4.2892 H   0  0  0  0  0  0  0  0  0  0  0  0
   -2.3669   -7.9073    2.5957 H   0  0  0  0  0  0  0  0  0  0  0  0
    0.0575   -9.7448    3.7834 H   0  0  0  0  0  0  0  0  0  0  0  0
   -0.6712   -9.5046    2.2196 H   0  0  0  0  0  0  0  0  0  0  0  0
    1.6574  -10.1881    2.0589 H   0  0  0  0  0  0  0  0  0  0  0  0
    1.3833   -8.6634    1.2434 H   0  0  0  0  0  0  0  0  0  0  0  0
    2.3075   -8.8835    4.0866 H   0  0  0  0  0  0  0  0  0  0  0  0
  1  2  1  0
  1 25  1  0
  1 26  1  0
  1 27  1  0
  2 21  1  0
  2  3  1  0
  2 28  1  6
  3  4  1  0
  3 29  1  0
  3 30  1  0
  4  5  1  0
  4 31  1  0
  4 32  1  0
  5 22  1  0
  5  6  1  0
  5 33  1  6
  6  7  1  0
  6  8  1  0
  6 34  1  1
  7 35  1  0
  7 36  1  0
  7 37  1  0
  8  9  1  0
  8 14  1  0
  8 38  1  1
  9 10  1  0
  9 39  1  0
  9 40  1  0
 10 11  1  0
 10 41  1  0
 10 42  1  0
 11 12  1  0
 11 13  1  0
 11 43  1  1
 14 15  1  0
 15 22  1  0
 15 16  1  0
 15 44  1  1
 16 17  1  0
 17 24  1  0
 17 18  1  1
 17 19  1  0
 18 45  1  0
 18 46  1  0
 18 47  1  0
 19 20  1  0
 19 48  1  0
 19 49  1  0
 20 21  1  0
 20 50  1  0
 20 51  1  0
 21 22  1  0
 21 52  1  1
 22 23  1  1
 23 24  1  0
M  END
>  <i_m_ct_stereo_status>  (37) 
1

>  <s_m_source_file>  (37) 
/var/tmp/pbs.5076255.sched01/tmp361wbqj1/0nt8_y6ui.sdf

>  <i_m_source_file_index>  (37) 
13

>  <i_lp_mmshare_version>  (37) 
48012

>  <i_f3d_flags>  (37) 
0

>  <s_epik_input>  (37) 
W0NAXTEyM1tDQEBIXTRbQ0gyXVtDSDJdW0NAQEhdKFtDSDNdKVtDQEBIXTJbQ0gyXVtDSDJdW0NAQF0oW0NIM10pKE9PMylPW0NAQEhdMU9bQ0BASF0oW0NAQEhdNFtDSDNdKVtDSDJdW0NIMl1bQ0BASF0oRilDbA==

>  <s_epik_cmdline>  (37) 
J2VwaWtfcHl0aG9uJywgJy1waHQnLCAnMi4wJywgJy1waCcsICc3LjAnLCAnLXRuJywgJzgnLCAnLW1hJywgJzIwMCcsICctaW1hZScsICc8aW5maWxlLm1hZT4nLCAnLW9tYWUnLCAnPG91dGZpbGUubWFlPic=

>  <r_lp_tautomer_probability>  (37) 
1

>  <r_epik_Ionization_Penalty>  (37) 
1.88128e-14

>  <r_epik_Ionization_Penalty_Charging>  (37) 
0

>  <r_epik_Ionization_Penalty_Neutral>  (37) 
1.88128e-14

>  <r_epik_State_Penalty>  (37) 
-0

>  <r_epik_Charging_Adjusted_Penalty>  (37) 
0

>  <i_epik_Tot_Q>  (37) 
0

>  <i_epik_Tot_abs_Q>  (37) 
0

>  <s_epik_Chemistry_Notes>  (37) 
This compound contains an acetal/aminal-like group ( X-CH(R)-Y where X, Y are N, S, or O) that may be acid/base labile, releasing an aldehyde.

>  <s_lp_Force_Field>  (37) 
OPLS3e

>  <r_lp_Energy>  (37) 
69.4022

>  <b_lp_Chiralities_Consistent>  (37) 
1

>  <s_lp_Variant>  (37) 
10:0-1

>  <s_i_glide_gridfile>  (37) 
pfpi4k_grid

>  <i_i_glide_lignum>  (37) 
13

>  <i_i_glide_rotatable_bonds>  (37) 
3

>  <r_i_docking_score>  (37) 
-2.70567

>  <r_i_glide_ligand_efficiency>  (37) 
-0.112736

>  <r_i_glide_ligand_efficiency_sa>  (37) 
-0.325187

>  <r_i_glide_ligand_efficiency_ln>  (37) 
-0.647591

>  <r_i_glide_gscore>  (37) 
-2.70567

>  <r_i_glide_lipo>  (37) 
-0.255082

>  <r_i_glide_hbond>  (37) 
-0.197459

>  <r_i_glide_metal>  (37) 
-0

>  <r_i_glide_rewards>  (37) 
-0.935021

>  <r_i_glide_evdw>  (37) 
-19.8907

>  <r_i_glide_ecoul>  (37) 
-3.2852

>  <r_i_glide_erotb>  (37) 
0.291742

>  <r_i_glide_esite>  (37) 
-0.122531

>  <r_i_glide_emodel>  (37) 
-26.9487

>  <r_i_glide_energy>  (37) 
-23.1759

>  <r_i_glide_einternal>  (37) 
0.434987

>  <r_i_glide_intrahb_reward>  (37) 
-0

>  <i_i_glide_confnum>  (37) 
1

>  <i_i_glide_posenum>  (37) 
11

>  <r_i_glide_eff_state_penalty>  (37) 
0

>  <ligand_id>  (37) 
10

>  <original_smiles>  (37) 
CC1CCC2C(C)C(CCC(F)Cl)OC3OC4(C)CCC1C32OO4

>  <smiles>  (37) 
[H]C([H])([H])C12OOC34C([H])(OC([H])(C([H])([H])C([H])([H])C([H])(F)Cl)C([H])(C([H])([H])[H])C3([H])C([H])([H])C([H])([H])C([H])(C([H])([H])[H])C4([H])C([H])([H])C1([H])[H])O2

$$$$
10:0:2
     RDKit          3D

 52 55  0  0  1  0  0  0  0  0999 V2000
    4.1330  -10.4423    2.8983 C   0  0  0  0  0  0  0  0  0  0  0  0
    3.9169   -8.9155    2.8827 C   0  0  2  0  0  0  0  0  0  0  0  0
    4.8700   -8.2766    3.9284 C   0  0  0  0  0  0  0  0  0  0  0  0
    4.6559   -6.7766    4.1863 C   0  0  0  0  0  0  0  0  0  0  0  0
    3.5973   -6.1957    3.2365 C   0  0  2  0  0  0  0  0  0  0  0  0
    3.4343   -4.6611    3.1708 C   0  0  1  0  0  0  0  0  0  0  0  0
    4.7898   -3.9007    3.2565 C   0  0  0  0  0  0  0  0  0  0  0  0
    2.5973   -4.3504    1.8803 C   0  0  1  0  0  0  0  0  0  0  0  0
    3.4699   -3.9892    0.6519 C   0  0  0  0  0  0  0  0  0  0  0  0
    2.7130   -3.7261   -0.6427 C   0  0  0  0  0  0  0  0  0  0  0  0
    3.6361   -3.1451   -1.7343 C   0  0  1  0  0  0  0  0  0  0  0  0
    4.1224   -1.9618   -1.3433 F   0  0  0  0  0  0  0  0  0  0  0  0
    4.9969   -4.2297   -2.1023 Cl  0  0  0  0  0  0  0  0  0  0  0  0
    1.7719   -5.4663    1.4948 O   0  0  0  0  0  0  0  0  0  0  0  0
    1.1874   -6.1108    2.5781 C   0  0  1  0  0  0  0  0  0  0  0  0
    0.0022   -6.7848    2.3216 O   0  0  0  0  0  0  0  0  0  0  0  0
   -0.3365   -7.6881    3.3757 C   0  0  1  0  0  0  0  0  0  0  0  0
   -1.8622   -7.6300    3.5349 C   0  0  0  0  0  0  0  0  0  0  0  0
    0.0425   -9.1031    2.9149 C   0  0  0  0  0  0  0  0  0  0  0  0
    1.4039   -9.1516    2.2427 C   0  0  0  0  0  0  0  0  0  0  0  0
    2.4453   -8.4881    3.1481 C   0  0  2  0  0  0  0  0  0  0  0  0
    2.2353   -6.9390    3.3947 C   0  0  1  0  0  0  0  0  0  0  0  0
    1.6790   -6.8669    4.6899 O   0  0  0  0  0  0  0  0  0  0  0  0
    0.1976   -7.3378    4.6834 O   0  0  0  0  0  0  0  0  0  0  0  0
    3.7735  -10.8815    3.8285 H   0  0  0  0  0  0  0  0  0  0  0  0
    5.1839  -10.6960    2.8209 H   0  0  0  0  0  0  0  0  0  0  0  0
    3.6108  -10.9413    2.0855 H   0  0  0  0  0  0  0  0  0  0  0  0
    4.2021   -8.5702    1.8866 H   0  0  0  0  0  0  0  0  0  0  0  0
    4.7745   -8.8038    4.8800 H   0  0  0  0  0  0  0  0  0  0  0  0
    5.8994   -8.4321    3.6045 H   0  0  0  0  0  0  0  0  0  0  0  0
    4.3585   -6.6038    5.2204 H   0  0  0  0  0  0  0  0  0  0  0  0
    5.6144   -6.2741    4.0527 H   0  0  0  0  0  0  0  0  0  0  0  0
    3.9760   -6.4223    2.2383 H   0  0  0  0  0  0  0  0  0  0  0  0
    2.8540   -4.3549    4.0444 H   0  0  0  0  0  0  0  0  0  0  0  0
    5.4930   -4.2663    2.4958 H   0  0  0  0  0  0  0  0  0  0  0  0
    5.2672   -4.0141    4.2152 H   0  0  0  0  0  0  0  0  0  0  0  0
    4.6659   -2.8289    3.0802 H   0  0  0  0  0  0  0  0  0  0  0  0
    1.9452   -3.5069    2.0959 H   0  0  0  0  0  0  0  0  0  0  0  0
    4.0545   -3.0947    0.8990 H   0  0  0  0  0  0  0  0  0  0  0  0
    4.1935   -4.7889    0.4894 H   0  0  0  0  0  0  0  0  0  0  0  0
    2.2437   -4.6472   -1.0073 H   0  0  0  0  0  0  0  0  0  0  0  0
    1.8934   -3.0354   -0.4596 H   0  0  0  0  0  0  0  0  0  0  0  0
    3.0903   -2.9662   -2.6546 H   0  0  0  0  0  0  0  0  0  0  0  0
    0.8125   -5.2907    3.2125 H   0  0  0  0  0  0  0  0  0  0  0  0
   -2.1847   -6.6508    3.8528 H   0  0  0  0  0  0  0  0  0  0  0  0
   -2.1854   -8.3509    4.2880 H   0  0  0  0  0  0  0  0  0  0  0  0
   -2.3696   -7.8742    2.6018 H   0  0  0  0  0  0  0  0  0  0  0  0
    0.0110   -9.7786    3.7710 H   0  0  0  0  0  0  0  0  0  0  0  0
   -0.6939   -9.4857    2.2058 H   0  0  0  0  0  0  0  0  0  0  0  0
    1.6208  -10.2016    2.0546 H   0  0  0  0  0  0  0  0  0  0  0  0
    1.3805   -8.6556    1.2754 H   0  0  0  0  0  0  0  0  0  0  0  0
    2.2709   -8.9626    4.1216 H   0  0  0  0  0  0  0  0  0  0  0  0
  1  2  1  0
  1 25  1  0
  1 26  1  0
  1 27  1  0
  2 21  1  0
  2  3  1  0
  2 28  1  6
  3  4  1  0
  3 29  1  0
  3 30  1  0
  4  5  1  0
  4 31  1  0
  4 32  1  0
  5 22  1  0
  5  6  1  0
  5 33  1  6
  6  7  1  0
  6  8  1  0
  6 34  1  1
  7 35  1  0
  7 36  1  0
  7 37  1  0
  8  9  1  0
  8 14  1  0
  8 38  1  1
  9 10  1  0
  9 39  1  0
  9 40  1  0
 10 11  1  0
 10 41  1  0
 10 42  1  0
 11 12  1  0
 11 13  1  0
 11 43  1  6
 14 15  1  0
 15 22  1  0
 15 16  1  0
 15 44  1  1
 16 17  1  0
 17 24  1  0
 17 18  1  1
 17 19  1  0
 18 45  1  0
 18 46  1  0
 18 47  1  0
 19 20  1  0
 19 48  1  0
 19 49  1  0
 20 21  1  0
 20 50  1  0
 20 51  1  0
 21 22  1  0
 21 52  1  1
 22 23  1  1
 23 24  1  0
M  END
>  <i_m_ct_stereo_status>  (38) 
1

>  <s_m_source_file>  (38) 
/var/tmp/pbs.5076255.sched01/tmp361wbqj1/0nt8_y6ui.sdf

>  <i_m_source_file_index>  (38) 
13

>  <i_lp_mmshare_version>  (38) 
48012

>  <i_f3d_flags>  (38) 
0

>  <s_epik_input>  (38) 
W0NAXTEyM1tDQEBIXTRbQ0gyXVtDSDJdW0NAQEhdKFtDSDNdKVtDQEBIXTJbQ0gyXVtDSDJdW0NAQF0oW0NIM10pKE9PMylPW0NAQEhdMU9bQ0BASF0oW0NAQEhdNFtDSDNdKVtDSDJdW0NIMl1bQ0BASF0oRilDbA==

>  <s_epik_cmdline>  (38) 
J2VwaWtfcHl0aG9uJywgJy1waHQnLCAnMi4wJywgJy1waCcsICc3LjAnLCAnLXRuJywgJzgnLCAnLW1hJywgJzIwMCcsICctaW1hZScsICc8aW5maWxlLm1hZT4nLCAnLW9tYWUnLCAnPG91dGZpbGUubWFlPic=

>  <r_lp_tautomer_probability>  (38) 
1

>  <r_epik_Ionization_Penalty>  (38) 
1.88128e-14

>  <r_epik_Ionization_Penalty_Charging>  (38) 
0

>  <r_epik_Ionization_Penalty_Neutral>  (38) 
1.88128e-14

>  <r_epik_State_Penalty>  (38) 
-0

>  <r_epik_Charging_Adjusted_Penalty>  (38) 
0

>  <i_epik_Tot_Q>  (38) 
0

>  <i_epik_Tot_abs_Q>  (38) 
0

>  <s_epik_Chemistry_Notes>  (38) 
This compound contains an acetal/aminal-like group ( X-CH(R)-Y where X, Y are N, S, or O) that may be acid/base labile, releasing an aldehyde.

>  <s_lp_Force_Field>  (38) 
OPLS3e

>  <r_lp_Energy>  (38) 
69.4022

>  <b_lp_Chiralities_Consistent>  (38) 
1

>  <s_lp_Variant>  (38) 
10:0-1

>  <s_i_glide_gridfile>  (38) 
pfpi4k_grid

>  <i_i_glide_lignum>  (38) 
13

>  <i_i_glide_rotatable_bonds>  (38) 
3

>  <r_i_docking_score>  (38) 
-2.49809

>  <r_i_glide_ligand_efficiency>  (38) 
-0.104087

>  <r_i_glide_ligand_efficiency_sa>  (38) 
-0.30024

>  <r_i_glide_ligand_efficiency_ln>  (38) 
-0.597908

>  <r_i_glide_gscore>  (38) 
-2.49809

>  <r_i_glide_lipo>  (38) 
-0.0623496

>  <r_i_glide_hbond>  (38) 
-0.171884

>  <r_i_glide_metal>  (38) 
-0

>  <r_i_glide_rewards>  (38) 
-0.935021

>  <r_i_glide_evdw>  (38) 
-19.0327

>  <r_i_glide_ecoul>  (38) 
-3.61222

>  <r_i_glide_erotb>  (38) 
0.291742

>  <r_i_glide_esite>  (38) 
-0.127113

>  <r_i_glide_emodel>  (38) 
-25.9438

>  <r_i_glide_energy>  (38) 
-22.645

>  <r_i_glide_einternal>  (38) 
0.795532

>  <r_i_glide_intrahb_reward>  (38) 
-0

>  <i_i_glide_confnum>  (38) 
1

>  <i_i_glide_posenum>  (38) 
1

>  <r_i_glide_eff_state_penalty>  (38) 
0

>  <ligand_id>  (38) 
10

>  <original_smiles>  (38) 
CC1CCC2C(C)C(CCC(F)Cl)OC3OC4(C)CCC1C32OO4

>  <smiles>  (38) 
[H]C([H])([H])C12OOC34C([H])(OC([H])(C([H])([H])C([H])([H])C([H])(F)Cl)C([H])(C([H])([H])[H])C3([H])C([H])([H])C([H])([H])C([H])(C([H])([H])[H])C4([H])C([H])([H])C1([H])[H])O2

$$$$
11:0:0
     RDKit          3D

 95100  0  0  1  0  0  0  0  0999 V2000
    2.9187    0.2985    8.5255 C   0  0  0  0  0  0  0  0  0  0  0  0
    2.4609   -0.5526    7.3497 C   0  0  0  0  0  0  0  0  0  0  0  0
    3.3255   -1.4413    6.8214 C   0  0  0  0  0  0  0  0  0  0  0  0
    3.0000   -2.4781    5.7670 C   0  0  2  0  0  0  0  0  0  0  0  0
    4.0151   -2.5118    4.5409 C   0  0  2  0  0  0  0  0  0  0  0  0
    5.1170   -3.5753    4.8260 C   0  0  0  0  0  0  0  0  0  0  0  0
    4.7583   -1.1606    4.3198 C   0  0  0  0  0  0  0  0  0  0  0  0
    5.4487   -1.0790    2.9532 C   0  0  0  0  0  0  0  0  0  0  0  0
    4.4929   -1.2467    1.7571 C   0  0  2  0  0  0  0  0  0  0  0  0
    3.7466    0.0879    1.5075 C   0  0  0  0  0  0  0  0  0  0  0  0
    3.4670   -2.3621    2.0517 C   0  0  0  0  0  0  0  0  0  0  0  0
    3.2977   -2.9475    3.2666 C   0  0  0  0  0  0  0  0  0  0  0  0
    2.3061   -4.0639    3.5492 C   0  0  0  0  0  0  0  0  0  0  0  0
    1.1022   -3.4736    4.2693 C   0  0  0  0  0  0  0  0  0  0  0  0
    1.4350   -2.6353    5.5568 C   0  0  1  0  0  0  0  0  0  0  0  0
    0.9423   -3.5178    6.7522 C   0  0  0  0  0  0  0  0  0  0  0  0
    0.6486   -1.2421    5.5794 C   0  0  2  0  0  0  0  0  0  0  0  0
   -0.8793   -1.5524    5.5328 C   0  0  0  0  0  0  0  0  0  0  0  0
    0.9856   -0.3761    4.3286 C   0  0  0  0  0  0  0  0  0  0  0  0
    0.4167    1.0564    4.3306 C   0  0  0  0  0  0  0  0  0  0  0  0
    0.8572    1.8894    5.5495 C   0  0  1  0  0  0  0  0  0  0  0  0
    2.3739    2.1734    5.4680 C   0  0  0  0  0  0  0  0  0  0  0  0
    0.1814    3.2918    5.5126 C   0  0  0  0  0  0  0  0  0  0  0  0
   -1.2795    3.3399    5.9748 C   0  0  0  0  0  0  0  0  0  0  0  0
   -1.4712    2.7205    7.3719 C   0  0  0  0  0  0  0  0  0  0  0  0
   -0.7262    3.5179    8.4640 C   0  0  0  0  0  0  0  0  0  0  0  0
   -2.9693    2.7314    7.7270 C   0  0  0  0  0  0  0  0  0  0  0  0
   -0.9776    1.2597    7.2847 C   0  0  0  0  0  0  0  0  0  0  0  0
    0.5076    1.1057    6.8569 C   0  0  1  0  0  0  0  0  0  0  0  0
    0.9990   -0.3966    6.8764 C   0  0  2  0  0  0  0  0  0  0  0  0
    2.6537   -2.7409    0.8240 C   0  0  0  0  0  0  0  0  0  0  0  0
    3.5158   -3.2184   -0.3544 C   0  0  0  0  0  0  0  0  0  0  0  0
    4.2342   -4.5305    0.0238 C   0  0  0  0  0  0  0  0  0  0  0  0
    2.6172   -3.4596   -1.5797 C   0  0  0  0  0  0  0  0  0  0  0  0
    4.5133   -2.0986   -0.7022 C   0  0  0  0  0  0  0  0  0  0  0  0
    5.3420   -1.6582    0.5116 C   0  0  1  0  0  0  0  0  0  0  0  0
    6.2099   -0.6275    0.0926 O   0  0  0  0  0  0  0  0  0  0  0  0
    2.1671    0.3048    9.3152 H   0  0  0  0  0  0  0  0  0  0  0  0
    3.1129    1.3248    8.2182 H   0  0  0  0  0  0  0  0  0  0  0  0
    3.8416   -0.0887    8.9563 H   0  0  0  0  0  0  0  0  0  0  0  0
    4.3303   -1.5067    7.2154 H   0  0  0  0  0  0  0  0  0  0  0  0
    3.2701   -3.3813    6.3134 H   0  0  0  0  0  0  0  0  0  0  0  0
    5.7671   -3.2775    5.6500 H   0  0  0  0  0  0  0  0  0  0  0  0
    5.7476   -3.7367    3.9524 H   0  0  0  0  0  0  0  0  0  0  0  0
    4.7120   -4.5551    5.0806 H   0  0  0  0  0  0  0  0  0  0  0  0
    4.0928   -0.3103    4.4159 H   0  0  0  0  0  0  0  0  0  0  0  0
    5.5066   -1.0202    5.1006 H   0  0  0  0  0  0  0  0  0  0  0  0
    5.9961   -0.1375    2.8737 H   0  0  0  0  0  0  0  0  0  0  0  0
    6.2089   -1.8577    2.8962 H   0  0  0  0  0  0  0  0  0  0  0  0
    4.4425    0.9092    1.3788 H   0  0  0  0  0  0  0  0  0  0  0  0
    3.0918    0.3490    2.3367 H   0  0  0  0  0  0  0  0  0  0  0  0
    3.1441    0.0763    0.6031 H   0  0  0  0  0  0  0  0  0  0  0  0
    1.9947   -4.6078    2.6652 H   0  0  0  0  0  0  0  0  0  0  0  0
    2.7653   -4.8324    4.1669 H   0  0  0  0  0  0  0  0  0  0  0  0
    0.5536   -2.8929    3.5307 H   0  0  0  0  0  0  0  0  0  0  0  0
    0.4190   -4.2898    4.5033 H   0  0  0  0  0  0  0  0  0  0  0  0
   -0.1237   -3.7308    6.7195 H   0  0  0  0  0  0  0  0  0  0  0  0
    1.1494   -3.0629    7.7191 H   0  0  0  0  0  0  0  0  0  0  0  0
    1.4308   -4.4926    6.7605 H   0  0  0  0  0  0  0  0  0  0  0  0
   -1.4725   -0.7535    5.1038 H   0  0  0  0  0  0  0  0  0  0  0  0
   -1.2809   -1.7588    6.5212 H   0  0  0  0  0  0  0  0  0  0  0  0
   -1.1188   -2.4202    4.9218 H   0  0  0  0  0  0  0  0  0  0  0  0
    2.0566   -0.3173    4.2346 H   0  0  0  0  0  0  0  0  0  0  0  0
    0.6430   -0.8394    3.4069 H   0  0  0  0  0  0  0  0  0  0  0  0
    0.7318    1.5558    3.4132 H   0  0  0  0  0  0  0  0  0  0  0  0
   -0.6695    1.0325    4.2750 H   0  0  0  0  0  0  0  0  0  0  0  0
    2.6969    2.8105    6.2915 H   0  0  0  0  0  0  0  0  0  0  0  0
    2.6313    2.6842    4.5394 H   0  0  0  0  0  0  0  0  0  0  0  0
    2.9760    1.2723    5.5177 H   0  0  0  0  0  0  0  0  0  0  0  0
    0.7524    3.9951    6.1159 H   0  0  0  0  0  0  0  0  0  0  0  0
    0.2328    3.6900    4.4987 H   0  0  0  0  0  0  0  0  0  0  0  0
   -1.6235    4.3726    5.9742 H   0  0  0  0  0  0  0  0  0  0  0  0
   -1.9022    2.8228    5.2464 H   0  0  0  0  0  0  0  0  0  0  0  0
   -0.8245    3.0306    9.4371 H   0  0  0  0  0  0  0  0  0  0  0  0
   -1.1245    4.5313    8.5549 H   0  0  0  0  0  0  0  0  0  0  0  0
    0.3416    3.6128    8.2613 H   0  0  0  0  0  0  0  0  0  0  0  0
   -3.1387    2.2736    8.7036 H   0  0  0  0  0  0  0  0  0  0  0  0
   -3.5630    2.1917    6.9908 H   0  0  0  0  0  0  0  0  0  0  0  0
   -3.3572    3.7504    7.7793 H   0  0  0  0  0  0  0  0  0  0  0  0
   -1.1306    0.7738    8.2475 H   0  0  0  0  0  0  0  0  0  0  0  0
   -1.6206    0.7557    6.5734 H   0  0  0  0  0  0  0  0  0  0  0  0
    1.0292    1.6244    7.6514 H   0  0  0  0  0  0  0  0  0  0  0  0
    0.4672   -0.8604    7.7072 H   0  0  0  0  0  0  0  0  0  0  0  0
    1.8608   -3.4469    1.0267 H   0  0  0  0  0  0  0  0  0  0  0  0
    2.1570   -1.8345    0.5127 H   0  0  0  0  0  0  0  0  0  0  0  0
    4.8903   -4.8725   -0.7805 H   0  0  0  0  0  0  0  0  0  0  0  0
    3.5129   -5.3214    0.2316 H   0  0  0  0  0  0  0  0  0  0  0  0
    4.8441   -4.4180    0.9224 H   0  0  0  0  0  0  0  0  0  0  0  0
    3.2148   -3.7868   -2.4350 H   0  0  0  0  0  0  0  0  0  0  0  0
    2.0892   -2.5614   -1.8959 H   0  0  0  0  0  0  0  0  0  0  0  0
    1.8698   -4.2303   -1.3763 H   0  0  0  0  0  0  0  0  0  0  0  0
    5.1780   -2.4345   -1.4970 H   0  0  0  0  0  0  0  0  0  0  0  0
    3.9738   -1.2414   -1.1075 H   0  0  0  0  0  0  0  0  0  0  0  0
    5.9825   -2.4963    0.7856 H   0  0  0  0  0  0  0  0  0  0  0  0
    5.6899    0.1590   -0.0295 H   0  0  0  0  0  0  0  0  0  0  0  0
  1  2  1  0
  1 38  1  0
  1 39  1  0
  1 40  1  0
  2 30  1  0
  2  3  2  0
  3  4  1  0
  3 41  1  0
  4 15  1  0
  4  5  1  0
  4 42  1  1
  5 12  1  0
  5  6  1  1
  5  7  1  0
  6 43  1  0
  6 44  1  0
  6 45  1  0
  7  8  1  0
  7 46  1  0
  7 47  1  0
  8  9  1  0
  8 48  1  0
  8 49  1  0
  9 36  1  0
  9 10  1  6
  9 11  1  0
 10 50  1  0
 10 51  1  0
 10 52  1  0
 11 12  2  0
 11 31  1  0
 12 13  1  0
 13 14  1  0
 13 53  1  0
 13 54  1  0
 14 15  1  0
 14 55  1  0
 14 56  1  0
 15 16  1  1
 15 17  1  0
 16 57  1  0
 16 58  1  0
 16 59  1  0
 17 30  1  0
 17 18  1  1
 17 19  1  0
 18 60  1  0
 18 61  1  0
 18 62  1  0
 19 20  1  0
 19 63  1  0
 19 64  1  0
 20 21  1  0
 20 65  1  0
 20 66  1  0
 21 29  1  0
 21 22  1  6
 21 23  1  0
 22 67  1  0
 22 68  1  0
 22 69  1  0
 23 24  1  0
 23 70  1  0
 23 71  1  0
 24 25  1  0
 24 72  1  0
 24 73  1  0
 25 26  1  0
 25 27  1  0
 25 28  1  0
 26 74  1  0
 26 75  1  0
 26 76  1  0
 27 77  1  0
 27 78  1  0
 27 79  1  0
 28 29  1  0
 28 80  1  0
 28 81  1  0
 29 30  1  0
 29 82  1  1
 30 83  1  1
 31 32  1  0
 31 84  1  0
 31 85  1  0
 32 33  1  0
 32 34  1  0
 32 35  1  0
 33 86  1  0
 33 87  1  0
 33 88  1  0
 34 89  1  0
 34 90  1  0
 34 91  1  0
 35 36  1  0
 35 92  1  0
 35 93  1  0
 36 37  1  0
 36 94  1  1
 37 95  1  0
M  END
>  <i_m_ct_stereo_status>  (39) 
1

>  <s_m_source_file>  (39) 
/var/tmp/pbs.5076255.sched01/tmp361wbqj1/0nt8_y6ui.sdf

>  <i_m_source_file_index>  (39) 
14

>  <i_lp_mmshare_version>  (39) 
48012

>  <i_f3d_flags>  (39) 
0

>  <s_epik_input>  (39) 
W0NIM11DKFtDSDNdKShbQ0gyXTEpW0NIMl1bQ0gyXVtDQF0oW0NIM10pKFtDSDJdW0NIMl0yKVtDQEBIXTFbQ0BIXShDKFtDSDNdKT1bQ0hdMylbQ0BdMihbQ0gzXSlbQ0BdKFtDSDNdKShbQ0BIXTNbQ0BdNDVbQ0gzXSlbQ0gyXVtDSDJdQzU9QzZbQ0BAXShbQ0gzXSkoW0NIMl1bQ0gyXTQpW0NASF0oW09IXSlbQ0gyXUMoW0NIMl02KShbQ0gzXSlbQ0gzXQ==

>  <s_epik_cmdline>  (39) 
J2VwaWtfcHl0aG9uJywgJy1waHQnLCAnMi4wJywgJy1waCcsICc3LjAnLCAnLXRuJywgJzgnLCAnLW1hJywgJzIwMCcsICctaW1hZScsICc8aW5maWxlLm1hZT4nLCAnLW9tYWUnLCAnPG91dGZpbGUubWFlPic=

>  <r_lp_tautomer_probability>  (39) 
1

>  <r_epik_Ionization_Penalty>  (39) 
1.01872e-06

>  <r_epik_Ionization_Penalty_Charging>  (39) 
0

>  <r_epik_Ionization_Penalty_Neutral>  (39) 
1.01872e-06

>  <r_epik_State_Penalty>  (39) 
-0

>  <r_epik_Charging_Adjusted_Penalty>  (39) 
0

>  <i_epik_Tot_Q>  (39) 
0

>  <i_epik_Tot_abs_Q>  (39) 
0

>  <s_lp_Force_Field>  (39) 
OPLS3e

>  <r_lp_Energy>  (39) 
97.2317

>  <b_lp_Chiralities_Consistent>  (39) 
1

>  <s_lp_Variant>  (39) 
11:0-1

>  <s_i_glide_gridfile>  (39) 
pfpi4k_grid

>  <i_i_glide_lignum>  (39) 
14

>  <i_i_glide_rotatable_bonds>  (39) 
1

>  <r_i_docking_score>  (39) 
-2.64671

>  <r_i_glide_ligand_efficiency>  (39) 
-0.0715326

>  <r_i_glide_ligand_efficiency_sa>  (39) 
-0.238363

>  <r_i_glide_ligand_efficiency_ln>  (39) 
-0.574009

>  <r_i_glide_gscore>  (39) 
-2.64671

>  <r_i_glide_lipo>  (39) 
-0.637144

>  <r_i_glide_hbond>  (39) 
-0.227832

>  <r_i_glide_metal>  (39) 
-0

>  <r_i_glide_rewards>  (39) 
0

>  <r_i_glide_evdw>  (39) 
-28.955

>  <r_i_glide_ecoul>  (39) 
-2.22655

>  <r_i_glide_erotb>  (39) 
0

>  <r_i_glide_esite>  (39) 
0

>  <r_i_glide_emodel>  (39) 
-36.5646

>  <r_i_glide_energy>  (39) 
-31.1815

>  <r_i_glide_einternal>  (39) 
0.0768909

>  <r_i_glide_intrahb_reward>  (39) 
-0

>  <i_i_glide_confnum>  (39) 
1

>  <i_i_glide_posenum>  (39) 
3

>  <r_i_glide_eff_state_penalty>  (39) 
0

>  <ligand_id>  (39) 
11

>  <original_smiles>  (39) 
CC1=CC2C3(C)CCC4(C)C(=C3CCC2(C)C2(C)CCC3(C)CCC(C)(C)CC3C12)CC(C)(C)CC4O

>  <smiles>  (39) 
[H]OC1([H])C([H])([H])C(C([H])([H])[H])(C([H])([H])[H])C([H])([H])C2=C3C([H])([H])C([H])([H])C4(C([H])([H])[H])C([H])(C([H])=C(C([H])([H])[H])C5([H])C6([H])C([H])([H])C(C([H])([H])[H])(C([H])([H])[H])C([H])([H])C([H])([H])C6(C([H])([H])[H])C([H])([H])C([H])([H])C54C([H])([H])[H])C3(C([H])([H])[H])C([H])([H])C([H])([H])C21C([H])([H])[H]

$$$$
11:0:1
     RDKit          3D

 95100  0  0  1  0  0  0  0  0999 V2000
    5.6316   -3.6860    5.7440 C   0  0  0  0  0  0  0  0  0  0  0  0
    4.7902   -2.7692    4.8661 C   0  0  0  0  0  0  0  0  0  0  0  0
    4.7384   -1.4536    5.1675 C   0  0  0  0  0  0  0  0  0  0  0  0
    4.0895   -0.3737    4.3257 C   0  0  2  0  0  0  0  0  0  0  0  0
    3.1047    0.5881    5.1299 C   0  0  2  0  0  0  0  0  0  0  0  0
    3.9002    1.8424    5.6018 C   0  0  0  0  0  0  0  0  0  0  0  0
    2.5288   -0.0594    6.4213 C   0  0  0  0  0  0  0  0  0  0  0  0
    1.3392    0.7154    6.9979 C   0  0  0  0  0  0  0  0  0  0  0  0
    0.1567    0.8498    6.0053 C   0  0  2  0  0  0  0  0  0  0  0  0
   -0.6430   -0.4760    6.0015 C   0  0  0  0  0  0  0  0  0  0  0  0
    0.6672    1.1416    4.5778 C   0  0  0  0  0  0  0  0  0  0  0  0
    1.9793    1.0822    4.2180 C   0  0  0  0  0  0  0  0  0  0  0  0
    2.5030    1.4109    2.8327 C   0  0  0  0  0  0  0  0  0  0  0  0
    2.8046    0.1112    2.1012 C   0  0  0  0  0  0  0  0  0  0  0  0
    3.7414   -0.8916    2.8681 C   0  0  1  0  0  0  0  0  0  0  0  0
    5.0928   -0.8703    2.0808 C   0  0  0  0  0  0  0  0  0  0  0  0
    3.1576   -2.3824    2.8500 C   0  0  2  0  0  0  0  0  0  0  0  0
    3.0199   -2.8276    1.3592 C   0  0  0  0  0  0  0  0  0  0  0  0
    1.7416   -2.4476    3.4957 C   0  0  0  0  0  0  0  0  0  0  0  0
    1.1579   -3.8610    3.6908 C   0  0  0  0  0  0  0  0  0  0  0  0
    2.0386   -4.7894    4.5399 C   0  0  1  0  0  0  0  0  0  0  0  0
    2.0682   -4.2816    5.9989 C   0  0  0  0  0  0  0  0  0  0  0  0
    1.4034   -6.2109    4.6145 C   0  0  0  0  0  0  0  0  0  0  0  0
    1.6134   -7.1047    3.3846 C   0  0  0  0  0  0  0  0  0  0  0  0
    3.0980   -7.2216    2.9931 C   0  0  0  0  0  0  0  0  0  0  0  0
    3.9274   -7.9280    4.0937 C   0  0  0  0  0  0  0  0  0  0  0  0
    3.2150   -8.0607    1.7046 C   0  0  0  0  0  0  0  0  0  0  0  0
    3.6067   -5.7894    2.7169 C   0  0  0  0  0  0  0  0  0  0  0  0
    3.4737   -4.8171    3.9245 C   0  0  1  0  0  0  0  0  0  0  0  0
    4.0996   -3.3914    3.6345 C   0  0  2  0  0  0  0  0  0  0  0  0
   -0.4551    1.5253    3.6114 C   0  0  0  0  0  0  0  0  0  0  0  0
   -1.2261    2.7752    4.0770 C   0  0  0  0  0  0  0  0  0  0  0  0
   -0.2982    4.0098    4.1047 C   0  0  0  0  0  0  0  0  0  0  0  0
   -2.3806    3.0487    3.1006 C   0  0  0  0  0  0  0  0  0  0  0  0
   -1.8079    2.4837    5.4749 C   0  0  0  0  0  0  0  0  0  0  0  0
   -0.7368    2.0398    6.4848 C   0  0  1  0  0  0  0  0  0  0  0  0
   -1.3859    1.7393    7.7057 O   0  0  0  0  0  0  0  0  0  0  0  0
    6.2498   -4.3429    5.1307 H   0  0  0  0  0  0  0  0  0  0  0  0
    5.0068   -4.2998    6.3913 H   0  0  0  0  0  0  0  0  0  0  0  0
    6.3002   -3.1156    6.3881 H   0  0  0  0  0  0  0  0  0  0  0  0
    5.2669   -1.0900    6.0373 H   0  0  0  0  0  0  0  0  0  0  0  0
    4.9560    0.2679    4.1599 H   0  0  0  0  0  0  0  0  0  0  0  0
    4.6460    1.5901    6.3570 H   0  0  0  0  0  0  0  0  0  0  0  0
    3.2417    2.5977    6.0309 H   0  0  0  0  0  0  0  0  0  0  0  0
    4.4310    2.3416    4.7920 H   0  0  0  0  0  0  0  0  0  0  0  0
    2.2138   -1.0812    6.2529 H   0  0  0  0  0  0  0  0  0  0  0  0
    3.3073   -0.1308    7.1810 H   0  0  0  0  0  0  0  0  0  0  0  0
    1.0041    0.2338    7.9166 H   0  0  0  0  0  0  0  0  0  0  0  0
    1.6808    1.7012    7.3100 H   0  0  0  0  0  0  0  0  0  0  0  0
   -0.9077   -0.7753    7.0123 H   0  0  0  0  0  0  0  0  0  0  0  0
   -0.0662   -1.2916    5.5723 H   0  0  0  0  0  0  0  0  0  0  0  0
   -1.5710   -0.4026    5.4378 H   0  0  0  0  0  0  0  0  0  0  0  0
    1.8375    2.0386    2.2458 H   0  0  0  0  0  0  0  0  0  0  0  0
    3.4102    2.0082    2.9046 H   0  0  0  0  0  0  0  0  0  0  0  0
    1.8404   -0.3315    1.8571 H   0  0  0  0  0  0  0  0  0  0  0  0
    3.2150    0.3592    1.1225 H   0  0  0  0  0  0  0  0  0  0  0  0
    4.9901   -1.1811    1.0427 H   0  0  0  0  0  0  0  0  0  0  0  0
    5.8523   -1.5080    2.5302 H   0  0  0  0  0  0  0  0  0  0  0  0
    5.5197    0.1325    2.0384 H   0  0  0  0  0  0  0  0  0  0  0  0
    2.2529   -3.5771    1.2001 H   0  0  0  0  0  0  0  0  0  0  0  0
    3.9515   -3.2369    0.9668 H   0  0  0  0  0  0  0  0  0  0  0  0
    2.7348   -2.0170    0.6904 H   0  0  0  0  0  0  0  0  0  0  0  0
    1.7785   -1.9569    4.4552 H   0  0  0  0  0  0  0  0  0  0  0  0
    1.0080   -1.8876    2.9191 H   0  0  0  0  0  0  0  0  0  0  0  0
    0.1741   -3.7668    4.1488 H   0  0  0  0  0  0  0  0  0  0  0  0
    0.9891   -4.3291    2.7268 H   0  0  0  0  0  0  0  0  0  0  0  0
    2.6433   -4.9557    6.6337 H   0  0  0  0  0  0  0  0  0  0  0  0
    1.0619   -4.2178    6.4146 H   0  0  0  0  0  0  0  0  0  0  0  0
    2.5212   -3.2995    6.0937 H   0  0  0  0  0  0  0  0  0  0  0  0
    1.7881   -6.7412    5.4830 H   0  0  0  0  0  0  0  0  0  0  0  0
    0.3332   -6.1232    4.7987 H   0  0  0  0  0  0  0  0  0  0  0  0
    1.1983   -8.0948    3.5739 H   0  0  0  0  0  0  0  0  0  0  0  0
    1.0414   -6.7062    2.5490 H   0  0  0  0  0  0  0  0  0  0  0  0
    4.9862   -7.9514    3.8281 H   0  0  0  0  0  0  0  0  0  0  0  0
    3.5940   -8.9583    4.2375 H   0  0  0  0  0  0  0  0  0  0  0  0
    3.8518   -7.4343    5.0627 H   0  0  0  0  0  0  0  0  0  0  0  0
    4.2528   -8.1390    1.3773 H   0  0  0  0  0  0  0  0  0  0  0  0
    2.6433   -7.6176    0.8895 H   0  0  0  0  0  0  0  0  0  0  0  0
    2.8430   -9.0764    1.8558 H   0  0  0  0  0  0  0  0  0  0  0  0
    4.6447   -5.8300    2.3912 H   0  0  0  0  0  0  0  0  0  0  0  0
    3.0431   -5.4152    1.8705 H   0  0  0  0  0  0  0  0  0  0  0  0
    4.0967   -5.2955    4.6700 H   0  0  0  0  0  0  0  0  0  0  0  0
    4.9563   -3.5830    2.9896 H   0  0  0  0  0  0  0  0  0  0  0  0
   -0.1207    1.6622    2.5886 H   0  0  0  0  0  0  0  0  0  0  0  0
   -1.1374    0.6805    3.5442 H   0  0  0  0  0  0  0  0  0  0  0  0
   -0.8219    4.8938    4.4737 H   0  0  0  0  0  0  0  0  0  0  0  0
    0.0810    4.2348    3.1060 H   0  0  0  0  0  0  0  0  0  0  0  0
    0.5735    3.8535    4.7431 H   0  0  0  0  0  0  0  0  0  0  0  0
   -2.9739    3.9080    3.4118 H   0  0  0  0  0  0  0  0  0  0  0  0
   -3.0435    2.1878    3.0425 H   0  0  0  0  0  0  0  0  0  0  0  0
   -2.0075    3.2456    2.0952 H   0  0  0  0  0  0  0  0  0  0  0  0
   -2.3342    3.3619    5.8490 H   0  0  0  0  0  0  0  0  0  0  0  0
   -2.5626    1.7033    5.3949 H   0  0  0  0  0  0  0  0  0  0  0  0
   -0.0923    2.8975    6.6762 H   0  0  0  0  0  0  0  0  0  0  0  0
   -1.6781    2.5531    8.0894 H   0  0  0  0  0  0  0  0  0  0  0  0
  1  2  1  0
  1 38  1  0
  1 39  1  0
  1 40  1  0
  2 30  1  0
  2  3  2  0
  3  4  1  0
  3 41  1  0
  4 15  1  0
  4  5  1  0
  4 42  1  6
  5 12  1  0
  5  6  1  1
  5  7  1  0
  6 43  1  0
  6 44  1  0
  6 45  1  0
  7  8  1  0
  7 46  1  0
  7 47  1  0
  8  9  1  0
  8 48  1  0
  8 49  1  0
  9 36  1  0
  9 10  1  6
  9 11  1  0
 10 50  1  0
 10 51  1  0
 10 52  1  0
 11 12  2  0
 11 31  1  0
 12 13  1  0
 13 14  1  0
 13 53  1  0
 13 54  1  0
 14 15  1  0
 14 55  1  0
 14 56  1  0
 15 16  1  6
 15 17  1  0
 16 57  1  0
 16 58  1  0
 16 59  1  0
 17 30  1  0
 17 18  1  6
 17 19  1  0
 18 60  1  0
 18 61  1  0
 18 62  1  0
 19 20  1  0
 19 63  1  0
 19 64  1  0
 20 21  1  0
 20 65  1  0
 20 66  1  0
 21 29  1  0
 21 22  1  1
 21 23  1  0
 22 67  1  0
 22 68  1  0
 22 69  1  0
 23 24  1  0
 23 70  1  0
 23 71  1  0
 24 25  1  0
 24 72  1  0
 24 73  1  0
 25 26  1  0
 25 27  1  0
 25 28  1  0
 26 74  1  0
 26 75  1  0
 26 76  1  0
 27 77  1  0
 27 78  1  0
 27 79  1  0
 28 29  1  0
 28 80  1  0
 28 81  1  0
 29 30  1  0
 29 82  1  1
 30 83  1  6
 31 32  1  0
 31 84  1  0
 31 85  1  0
 32 33  1  0
 32 34  1  0
 32 35  1  0
 33 86  1  0
 33 87  1  0
 33 88  1  0
 34 89  1  0
 34 90  1  0
 34 91  1  0
 35 36  1  0
 35 92  1  0
 35 93  1  0
 36 37  1  0
 36 94  1  1
 37 95  1  0
M  END
>  <i_m_ct_stereo_status>  (40) 
1

>  <s_m_source_file>  (40) 
/var/tmp/pbs.5076255.sched01/tmp361wbqj1/0nt8_y6ui.sdf

>  <i_m_source_file_index>  (40) 
14

>  <i_lp_mmshare_version>  (40) 
48012

>  <i_f3d_flags>  (40) 
0

>  <s_epik_input>  (40) 
W0NIM11DKFtDSDNdKShbQ0gyXTEpW0NIMl1bQ0gyXVtDQF0oW0NIM10pKFtDSDJdW0NIMl0yKVtDQEBIXTFbQ0BIXShDKFtDSDNdKT1bQ0hdMylbQ0BdMihbQ0gzXSlbQ0BdKFtDSDNdKShbQ0BIXTNbQ0BdNDVbQ0gzXSlbQ0gyXVtDSDJdQzU9QzZbQ0BAXShbQ0gzXSkoW0NIMl1bQ0gyXTQpW0NASF0oW09IXSlbQ0gyXUMoW0NIMl02KShbQ0gzXSlbQ0gzXQ==

>  <s_epik_cmdline>  (40) 
J2VwaWtfcHl0aG9uJywgJy1waHQnLCAnMi4wJywgJy1waCcsICc3LjAnLCAnLXRuJywgJzgnLCAnLW1hJywgJzIwMCcsICctaW1hZScsICc8aW5maWxlLm1hZT4nLCAnLW9tYWUnLCAnPG91dGZpbGUubWFlPic=

>  <r_lp_tautomer_probability>  (40) 
1

>  <r_epik_Ionization_Penalty>  (40) 
1.01872e-06

>  <r_epik_Ionization_Penalty_Charging>  (40) 
0

>  <r_epik_Ionization_Penalty_Neutral>  (40) 
1.01872e-06

>  <r_epik_State_Penalty>  (40) 
-0

>  <r_epik_Charging_Adjusted_Penalty>  (40) 
0

>  <i_epik_Tot_Q>  (40) 
0

>  <i_epik_Tot_abs_Q>  (40) 
0

>  <s_lp_Force_Field>  (40) 
OPLS3e

>  <r_lp_Energy>  (40) 
97.2317

>  <b_lp_Chiralities_Consistent>  (40) 
1

>  <s_lp_Variant>  (40) 
11:0-1

>  <s_i_glide_gridfile>  (40) 
pfpi4k_grid

>  <i_i_glide_lignum>  (40) 
14

>  <i_i_glide_rotatable_bonds>  (40) 
1

>  <r_i_docking_score>  (40) 
-2.01349

>  <r_i_glide_ligand_efficiency>  (40) 
-0.0544185

>  <r_i_glide_ligand_efficiency_sa>  (40) 
-0.181335

>  <r_i_glide_ligand_efficiency_ln>  (40) 
-0.436678

>  <r_i_glide_gscore>  (40) 
-2.01349

>  <r_i_glide_lipo>  (40) 
-0.256781

>  <r_i_glide_hbond>  (40) 
0

>  <r_i_glide_metal>  (40) 
-0

>  <r_i_glide_rewards>  (40) 
0

>  <r_i_glide_evdw>  (40) 
-30.8114

>  <r_i_glide_ecoul>  (40) 
-1.44091

>  <r_i_glide_erotb>  (40) 
0

>  <r_i_glide_esite>  (40) 
0

>  <r_i_glide_emodel>  (40) 
-36.0988

>  <r_i_glide_energy>  (40) 
-32.2523

>  <r_i_glide_einternal>  (40) 
0.430502

>  <r_i_glide_intrahb_reward>  (40) 
-0

>  <i_i_glide_confnum>  (40) 
2

>  <i_i_glide_posenum>  (40) 
2

>  <r_i_glide_eff_state_penalty>  (40) 
0

>  <ligand_id>  (40) 
11

>  <original_smiles>  (40) 
CC1=CC2C3(C)CCC4(C)C(=C3CCC2(C)C2(C)CCC3(C)CCC(C)(C)CC3C12)CC(C)(C)CC4O

>  <smiles>  (40) 
[H]OC1([H])C([H])([H])C(C([H])([H])[H])(C([H])([H])[H])C([H])([H])C2=C3C([H])([H])C([H])([H])C4(C([H])([H])[H])C([H])(C([H])=C(C([H])([H])[H])C5([H])C6([H])C([H])([H])C(C([H])([H])[H])(C([H])([H])[H])C([H])([H])C([H])([H])C6(C([H])([H])[H])C([H])([H])C([H])([H])C54C([H])([H])[H])C3(C([H])([H])[H])C([H])([H])C([H])([H])C21C([H])([H])[H]

$$$$
11:0:2
     RDKit          3D

 95100  0  0  1  0  0  0  0  0999 V2000
    4.6389   -0.7355    6.4130 C   0  0  0  0  0  0  0  0  0  0  0  0
    3.4536   -1.6782    6.2544 C   0  0  0  0  0  0  0  0  0  0  0  0
    3.6123   -2.9773    6.5853 C   0  0  0  0  0  0  0  0  0  0  0  0
    2.5154   -4.0197    6.6465 C   0  0  2  0  0  0  0  0  0  0  0  0
    2.8476   -5.3760    5.8778 C   0  0  2  0  0  0  0  0  0  0  0  0
    3.4638   -6.3909    6.8878 C   0  0  0  0  0  0  0  0  0  0  0  0
    3.9044   -5.2020    4.7503 C   0  0  0  0  0  0  0  0  0  0  0  0
    3.9687   -6.4035    3.8014 C   0  0  0  0  0  0  0  0  0  0  0  0
    2.6215   -6.7023    3.0988 C   0  0  2  0  0  0  0  0  0  0  0  0
    2.4486   -5.7158    1.9156 C   0  0  0  0  0  0  0  0  0  0  0  0
    1.4413   -6.5374    4.0823 C   0  0  0  0  0  0  0  0  0  0  0  0
    1.5655   -6.0059    5.3303 C   0  0  0  0  0  0  0  0  0  0  0  0
    0.4289   -5.8825    6.3288 C   0  0  0  0  0  0  0  0  0  0  0  0
   -0.0471   -4.4369    6.3507 C   0  0  0  0  0  0  0  0  0  0  0  0
    1.0733   -3.3622    6.5910 C   0  0  1  0  0  0  0  0  0  0  0  0
    0.8064   -2.8136    8.0317 C   0  0  0  0  0  0  0  0  0  0  0  0
    0.9697   -2.1504    5.5490 C   0  0  2  0  0  0  0  0  0  0  0  0
   -0.4359   -1.4893    5.7150 C   0  0  0  0  0  0  0  0  0  0  0  0
    1.0831   -2.6493    4.0778 C   0  0  0  0  0  0  0  0  0  0  0  0
    1.1713   -1.5499    2.9987 C   0  0  0  0  0  0  0  0  0  0  0  0
    2.3483   -0.5811    3.1968 C   0  0  1  0  0  0  0  0  0  0  0  0
    3.6820   -1.3293    2.9676 C   0  0  0  0  0  0  0  0  0  0  0  0
    2.3149    0.5329    2.1070 C   0  0  0  0  0  0  0  0  0  0  0  0
    1.3104    1.6683    2.3461 C   0  0  0  0  0  0  0  0  0  0  0  0
    1.4680    2.3090    3.7371 C   0  0  0  0  0  0  0  0  0  0  0  0
    2.8384    3.0096    3.8908 C   0  0  0  0  0  0  0  0  0  0  0  0
    0.3716    3.3752    3.9299 C   0  0  0  0  0  0  0  0  0  0  0  0
    1.2737    1.1852    4.7773 C   0  0  0  0  0  0  0  0  0  0  0  0
    2.2779    0.0054    4.6425 C   0  0  1  0  0  0  0  0  0  0  0  0
    2.1117   -1.0732    5.7895 C   0  0  2  0  0  0  0  0  0  0  0  0
    0.1154   -7.0514    3.5151 C   0  0  0  0  0  0  0  0  0  0  0  0
    0.1776   -8.5409    3.1337 C   0  0  0  0  0  0  0  0  0  0  0  0
    0.4294   -9.4101    4.3869 C   0  0  0  0  0  0  0  0  0  0  0  0
   -1.1624   -8.9592    2.4964 C   0  0  0  0  0  0  0  0  0  0  0  0
    1.3087   -8.7165    2.0973 C   0  0  0  0  0  0  0  0  0  0  0  0
    2.6626   -8.1815    2.5911 C   0  0  1  0  0  0  0  0  0  0  0  0
    3.6113   -8.3578    1.5575 O   0  0  0  0  0  0  0  0  0  0  0  0
    4.3356    0.1846    6.9149 H   0  0  0  0  0  0  0  0  0  0  0  0
    5.0746   -0.4815    5.4474 H   0  0  0  0  0  0  0  0  0  0  0  0
    5.4293   -1.1880    7.0114 H   0  0  0  0  0  0  0  0  0  0  0  0
    4.5796   -3.3228    6.9227 H   0  0  0  0  0  0  0  0  0  0  0  0
    2.6124   -4.3168    7.6911 H   0  0  0  0  0  0  0  0  0  0  0  0
    4.4500   -6.0734    7.2305 H   0  0  0  0  0  0  0  0  0  0  0  0
    3.5753   -7.3806    6.4445 H   0  0  0  0  0  0  0  0  0  0  0  0
    2.8544   -6.5356    7.7798 H   0  0  0  0  0  0  0  0  0  0  0  0
    3.7182   -4.3156    4.1576 H   0  0  0  0  0  0  0  0  0  0  0  0
    4.8908   -5.0432    5.1869 H   0  0  0  0  0  0  0  0  0  0  0  0
    4.7463   -6.2367    3.0564 H   0  0  0  0  0  0  0  0  0  0  0  0
    4.3001   -7.2773    4.3605 H   0  0  0  0  0  0  0  0  0  0  0  0
    3.3208   -5.7188    1.2621 H   0  0  0  0  0  0  0  0  0  0  0  0
    2.3145   -4.6932    2.2615 H   0  0  0  0  0  0  0  0  0  0  0  0
    1.5943   -5.9621    1.2898 H   0  0  0  0  0  0  0  0  0  0  0  0
   -0.3990   -6.5583    6.1348 H   0  0  0  0  0  0  0  0  0  0  0  0
    0.7624   -6.1724    7.3239 H   0  0  0  0  0  0  0  0  0  0  0  0
   -0.5658   -4.2771    5.4096 H   0  0  0  0  0  0  0  0  0  0  0  0
   -0.8405   -4.3504    7.0931 H   0  0  0  0  0  0  0  0  0  0  0  0
   -0.1727   -2.3528    8.1423 H   0  0  0  0  0  0  0  0  0  0  0  0
    1.5426   -2.0729    8.3417 H   0  0  0  0  0  0  0  0  0  0  0  0
    0.8383   -3.6087    8.7791 H   0  0  0  0  0  0  0  0  0  0  0  0
   -0.7897   -0.9973    4.8157 H   0  0  0  0  0  0  0  0  0  0  0  0
   -0.4408   -0.7420    6.5088 H   0  0  0  0  0  0  0  0  0  0  0  0
   -1.2221   -2.2027    5.9516 H   0  0  0  0  0  0  0  0  0  0  0  0
    1.9563   -3.2771    3.9962 H   0  0  0  0  0  0  0  0  0  0  0  0
    0.2484   -3.2890    3.8000 H   0  0  0  0  0  0  0  0  0  0  0  0
    1.2555   -2.0269    2.0231 H   0  0  0  0  0  0  0  0  0  0  0  0
    0.2401   -0.9896    2.9569 H   0  0  0  0  0  0  0  0  0  0  0  0
    4.5294   -0.6481    3.0462 H   0  0  0  0  0  0  0  0  0  0  0  0
    3.7155   -1.7796    1.9747 H   0  0  0  0  0  0  0  0  0  0  0  0
    3.8517   -2.1225    3.6891 H   0  0  0  0  0  0  0  0  0  0  0  0
    3.3037    0.9752    1.9968 H   0  0  0  0  0  0  0  0  0  0  0  0
    2.1032    0.0868    1.1353 H   0  0  0  0  0  0  0  0  0  0  0  0
    1.4242    2.4284    1.5739 H   0  0  0  0  0  0  0  0  0  0  0  0
    0.3002    1.2816    2.2221 H   0  0  0  0  0  0  0  0  0  0  0  0
    2.9641    3.4109    4.8982 H   0  0  0  0  0  0  0  0  0  0  0  0
    2.9410    3.8338    3.1805 H   0  0  0  0  0  0  0  0  0  0  0  0
    3.6762    2.3368    3.7074 H   0  0  0  0  0  0  0  0  0  0  0  0
    0.4348    3.8312    4.9187 H   0  0  0  0  0  0  0  0  0  0  0  0
   -0.6254    2.9505    3.8172 H   0  0  0  0  0  0  0  0  0  0  0  0
    0.4706    4.1748    3.1933 H   0  0  0  0  0  0  0  0  0  0  0  0
    1.3343    1.6063    5.7795 H   0  0  0  0  0  0  0  0  0  0  0  0
    0.2580    0.8268    4.6607 H   0  0  0  0  0  0  0  0  0  0  0  0
    3.2302    0.4969    4.7987 H   0  0  0  0  0  0  0  0  0  0  0  0
    1.8237   -0.5043    6.6729 H   0  0  0  0  0  0  0  0  0  0  0  0
   -0.7341   -6.8761    4.1657 H   0  0  0  0  0  0  0  0  0  0  0  0
   -0.1094   -6.4651    2.6280 H   0  0  0  0  0  0  0  0  0  0  0  0
    0.5172  -10.4676    4.1269 H   0  0  0  0  0  0  0  0  0  0  0  0
   -0.3890   -9.3142    5.1035 H   0  0  0  0  0  0  0  0  0  0  0  0
    1.3437   -9.1267    4.9117 H   0  0  0  0  0  0  0  0  0  0  0  0
   -1.1379  -10.0041    2.1850 H   0  0  0  0  0  0  0  0  0  0  0  0
   -1.3865   -8.3620    1.6134 H   0  0  0  0  0  0  0  0  0  0  0  0
   -1.9903   -8.8457    3.1977 H   0  0  0  0  0  0  0  0  0  0  0  0
    1.4044   -9.7698    1.8326 H   0  0  0  0  0  0  0  0  0  0  0  0
    1.0352   -8.2066    1.1743 H   0  0  0  0  0  0  0  0  0  0  0  0
    2.9881   -8.8214    3.4107 H   0  0  0  0  0  0  0  0  0  0  0  0
    3.6791   -9.2836    1.3713 H   0  0  0  0  0  0  0  0  0  0  0  0
  1  2  1  0
  1 38  1  0
  1 39  1  0
  1 40  1  0
  2 30  1  0
  2  3  2  0
  3  4  1  0
  3 41  1  0
  4 15  1  0
  4  5  1  0
  4 42  1  1
  5 12  1  0
  5  6  1  1
  5  7  1  0
  6 43  1  0
  6 44  1  0
  6 45  1  0
  7  8  1  0
  7 46  1  0
  7 47  1  0
  8  9  1  0
  8 48  1  0
  8 49  1  0
  9 36  1  0
  9 10  1  6
  9 11  1  0
 10 50  1  0
 10 51  1  0
 10 52  1  0
 11 12  2  0
 11 31  1  0
 12 13  1  0
 13 14  1  0
 13 53  1  0
 13 54  1  0
 14 15  1  0
 14 55  1  0
 14 56  1  0
 15 16  1  1
 15 17  1  0
 16 57  1  0
 16 58  1  0
 16 59  1  0
 17 30  1  0
 17 18  1  6
 17 19  1  0
 18 60  1  0
 18 61  1  0
 18 62  1  0
 19 20  1  0
 19 63  1  0
 19 64  1  0
 20 21  1  0
 20 65  1  0
 20 66  1  0
 21 29  1  0
 21 22  1  1
 21 23  1  0
 22 67  1  0
 22 68  1  0
 22 69  1  0
 23 24  1  0
 23 70  1  0
 23 71  1  0
 24 25  1  0
 24 72  1  0
 24 73  1  0
 25 26  1  0
 25 27  1  0
 25 28  1  0
 26 74  1  0
 26 75  1  0
 26 76  1  0
 27 77  1  0
 27 78  1  0
 27 79  1  0
 28 29  1  0
 28 80  1  0
 28 81  1  0
 29 30  1  0
 29 82  1  1
 30 83  1  1
 31 32  1  0
 31 84  1  0
 31 85  1  0
 32 33  1  0
 32 34  1  0
 32 35  1  0
 33 86  1  0
 33 87  1  0
 33 88  1  0
 34 89  1  0
 34 90  1  0
 34 91  1  0
 35 36  1  0
 35 92  1  0
 35 93  1  0
 36 37  1  0
 36 94  1  1
 37 95  1  0
M  END
>  <i_m_ct_stereo_status>  (41) 
1

>  <s_m_source_file>  (41) 
/var/tmp/pbs.5076255.sched01/tmp361wbqj1/0nt8_y6ui.sdf

>  <i_m_source_file_index>  (41) 
14

>  <i_lp_mmshare_version>  (41) 
48012

>  <i_f3d_flags>  (41) 
0

>  <s_epik_input>  (41) 
W0NIM11DKFtDSDNdKShbQ0gyXTEpW0NIMl1bQ0gyXVtDQF0oW0NIM10pKFtDSDJdW0NIMl0yKVtDQEBIXTFbQ0BIXShDKFtDSDNdKT1bQ0hdMylbQ0BdMihbQ0gzXSlbQ0BdKFtDSDNdKShbQ0BIXTNbQ0BdNDVbQ0gzXSlbQ0gyXVtDSDJdQzU9QzZbQ0BAXShbQ0gzXSkoW0NIMl1bQ0gyXTQpW0NASF0oW09IXSlbQ0gyXUMoW0NIMl02KShbQ0gzXSlbQ0gzXQ==

>  <s_epik_cmdline>  (41) 
J2VwaWtfcHl0aG9uJywgJy1waHQnLCAnMi4wJywgJy1waCcsICc3LjAnLCAnLXRuJywgJzgnLCAnLW1hJywgJzIwMCcsICctaW1hZScsICc8aW5maWxlLm1hZT4nLCAnLW9tYWUnLCAnPG91dGZpbGUubWFlPic=

>  <r_lp_tautomer_probability>  (41) 
1

>  <r_epik_Ionization_Penalty>  (41) 
1.01872e-06

>  <r_epik_Ionization_Penalty_Charging>  (41) 
0

>  <r_epik_Ionization_Penalty_Neutral>  (41) 
1.01872e-06

>  <r_epik_State_Penalty>  (41) 
-0

>  <r_epik_Charging_Adjusted_Penalty>  (41) 
0

>  <i_epik_Tot_Q>  (41) 
0

>  <i_epik_Tot_abs_Q>  (41) 
0

>  <s_lp_Force_Field>  (41) 
OPLS3e

>  <r_lp_Energy>  (41) 
97.2317

>  <b_lp_Chiralities_Consistent>  (41) 
1

>  <s_lp_Variant>  (41) 
11:0-1

>  <s_i_glide_gridfile>  (41) 
pfpi4k_grid

>  <i_i_glide_lignum>  (41) 
14

>  <i_i_glide_rotatable_bonds>  (41) 
1

>  <r_i_docking_score>  (41) 
-1.8663

>  <r_i_glide_ligand_efficiency>  (41) 
-0.0504406

>  <r_i_glide_ligand_efficiency_sa>  (41) 
-0.168079

>  <r_i_glide_ligand_efficiency_ln>  (41) 
-0.404757

>  <r_i_glide_gscore>  (41) 
-1.8663

>  <r_i_glide_lipo>  (41) 
-0.131509

>  <r_i_glide_hbond>  (41) 
0

>  <r_i_glide_metal>  (41) 
-0

>  <r_i_glide_rewards>  (41) 
0

>  <r_i_glide_evdw>  (41) 
-33.0534

>  <r_i_glide_ecoul>  (41) 
-0.547482

>  <r_i_glide_erotb>  (41) 
0

>  <r_i_glide_esite>  (41) 
0

>  <r_i_glide_emodel>  (41) 
-37.2513

>  <r_i_glide_energy>  (41) 
-33.6009

>  <r_i_glide_einternal>  (41) 
0.332113

>  <r_i_glide_intrahb_reward>  (41) 
-0

>  <i_i_glide_confnum>  (41) 
2

>  <i_i_glide_posenum>  (41) 
30

>  <r_i_glide_eff_state_penalty>  (41) 
0

>  <ligand_id>  (41) 
11

>  <original_smiles>  (41) 
CC1=CC2C3(C)CCC4(C)C(=C3CCC2(C)C2(C)CCC3(C)CCC(C)(C)CC3C12)CC(C)(C)CC4O

>  <smiles>  (41) 
[H]OC1([H])C([H])([H])C(C([H])([H])[H])(C([H])([H])[H])C([H])([H])C2=C3C([H])([H])C([H])([H])C4(C([H])([H])[H])C([H])(C([H])=C(C([H])([H])[H])C5([H])C6([H])C([H])([H])C(C([H])([H])[H])(C([H])([H])[H])C([H])([H])C([H])([H])C6(C([H])([H])[H])C([H])([H])C([H])([H])C54C([H])([H])[H])C3(C([H])([H])[H])C([H])([H])C([H])([H])C21C([H])([H])[H]

$$$$
12:0:0
     RDKit          3D

 23 24  0  0  1  0  0  0  0  0999 V2000
    2.6145   -3.0940   -3.7324 C   0  0  0  0  0  0  0  0  0  0  0  0
    3.7416   -2.6162   -2.8128 C   0  0  2  0  0  0  0  0  0  0  0  0
    3.6650   -3.2792   -1.5479 O   0  0  0  0  0  0  0  0  0  0  0  0
    4.2164   -2.4719   -0.4999 C   0  0  1  0  0  0  0  0  0  0  0  0
    3.4390   -2.6978    0.7975 C   0  0  0  0  0  0  0  0  0  0  0  0
    2.6068   -1.5972    1.0755 O   0  0  0  0  0  0  0  0  0  0  0  0
    5.7329   -2.5318   -0.5220 C   0  0  0  0  0  0  0  0  0  0  0  0
    5.8149   -1.2798   -1.2459 O   0  0  0  0  0  0  0  0  0  0  0  0
    4.3759   -1.0911   -1.1215 C   0  0  1  0  0  0  0  0  0  0  0  0
    3.6572   -1.1403   -2.4390 C   0  0  1  0  0  0  0  0  0  0  0  0
    4.1825   -0.2453   -3.3883 O   0  0  0  0  0  0  0  0  0  0  0  0
    2.6671   -2.5884   -4.6936 H   0  0  0  0  0  0  0  0  0  0  0  0
    1.6274   -2.9044   -3.3062 H   0  0  0  0  0  0  0  0  0  0  0  0
    2.6884   -4.1654   -3.9210 H   0  0  0  0  0  0  0  0  0  0  0  0
    4.7151   -2.8402   -3.2549 H   0  0  0  0  0  0  0  0  0  0  0  0
    2.8372   -3.6033    0.7440 H   0  0  0  0  0  0  0  0  0  0  0  0
    4.1006   -2.8151    1.6526 H   0  0  0  0  0  0  0  0  0  0  0  0
    2.0020   -1.4580    0.3474 H   0  0  0  0  0  0  0  0  0  0  0  0
    6.1830   -2.4585    0.4689 H   0  0  0  0  0  0  0  0  0  0  0  0
    6.1300   -3.3720   -1.0943 H   0  0  0  0  0  0  0  0  0  0  0  0
    4.1464   -0.2508   -0.4695 H   0  0  0  0  0  0  0  0  0  0  0  0
    2.6115   -0.8681   -2.2866 H   0  0  0  0  0  0  0  0  0  0  0  0
    3.9114    0.6271   -3.1322 H   0  0  0  0  0  0  0  0  0  0  0  0
  1  2  1  0
  1 12  1  0
  1 13  1  0
  1 14  1  0
  2 10  1  0
  2  3  1  0
  2 15  1  6
  3  4  1  0
  4  9  1  0
  4  5  1  1
  4  7  1  0
  5  6  1  0
  5 16  1  0
  5 17  1  0
  6 18  1  0
  7  8  1  0
  7 19  1  0
  7 20  1  0
  8  9  1  0
  9 10  1  0
  9 21  1  1
 10 11  1  0
 10 22  1  1
 11 23  1  0
M  END
>  <i_m_ct_stereo_status>  (42) 
1

>  <s_m_source_file>  (42) 
/var/tmp/pbs.5076255.sched01/tmp361wbqj1/0nt8_y6ui.sdf

>  <i_m_source_file_index>  (42) 
15

>  <i_lp_mmshare_version>  (42) 
48012

>  <i_f3d_flags>  (42) 
0

>  <s_epik_input>  (42) 
W0NIM11bQ0BIXShPMSlbQ0BIXShbT0hdKVtDQEhdKE9bQ0gyXTIpW0NAQF0xMltDSDJdW09IXQ==

>  <s_epik_cmdline>  (42) 
J2VwaWtfcHl0aG9uJywgJy1waHQnLCAnMi4wJywgJy1waCcsICc3LjAnLCAnLXRuJywgJzgnLCAnLW1hJywgJzIwMCcsICctaW1hZScsICc8aW5maWxlLm1hZT4nLCAnLW9tYWUnLCAnPG91dGZpbGUubWFlPic=

>  <r_lp_tautomer_probability>  (42) 
1

>  <r_epik_Ionization_Penalty>  (42) 
4.61156e-07

>  <r_epik_Ionization_Penalty_Charging>  (42) 
0

>  <r_epik_Ionization_Penalty_Neutral>  (42) 
4.61156e-07

>  <r_epik_State_Penalty>  (42) 
-0

>  <r_epik_Charging_Adjusted_Penalty>  (42) 
0

>  <i_epik_Tot_Q>  (42) 
0

>  <i_epik_Tot_abs_Q>  (42) 
0

>  <s_lp_Force_Field>  (42) 
OPLS3e

>  <r_lp_Energy>  (42) 
1.56482

>  <b_lp_Chiralities_Consistent>  (42) 
1

>  <s_lp_Variant>  (42) 
12:0-1

>  <s_i_glide_gridfile>  (42) 
pfpi4k_grid

>  <i_i_glide_lignum>  (42) 
15

>  <i_i_glide_rotatable_bonds>  (42) 
3

>  <r_i_docking_score>  (42) 
-3.74627

>  <r_i_glide_ligand_efficiency>  (42) 
-0.34057

>  <r_i_glide_ligand_efficiency_sa>  (42) 
-0.757422

>  <r_i_glide_ligand_efficiency_ln>  (42) 
-1.10253

>  <r_i_glide_gscore>  (42) 
-3.74627

>  <r_i_glide_lipo>  (42) 
-0.227979

>  <r_i_glide_hbond>  (42) 
-0.0742714

>  <r_i_glide_metal>  (42) 
-0

>  <r_i_glide_rewards>  (42) 
-2.25

>  <r_i_glide_evdw>  (42) 
-16.5164

>  <r_i_glide_ecoul>  (42) 
-6.37432

>  <r_i_glide_erotb>  (42) 
0.587946

>  <r_i_glide_esite>  (42) 
0

>  <r_i_glide_emodel>  (42) 
-28.1314

>  <r_i_glide_energy>  (42) 
-22.8907

>  <r_i_glide_einternal>  (42) 
2.41416

>  <r_i_glide_intrahb_reward>  (42) 
-0

>  <i_i_glide_confnum>  (42) 
1

>  <i_i_glide_posenum>  (42) 
6

>  <r_i_glide_eff_state_penalty>  (42) 
0

>  <ligand_id>  (42) 
12

>  <original_smiles>  (42) 
CC1OC2(CO)COC2C1O

>  <smiles>  (42) 
[H]OC([H])([H])C12OC([H])(C([H])([H])[H])C([H])(O[H])C1([H])OC2([H])[H]

$$$$
12:0:1
     RDKit          3D

 23 24  0  0  1  0  0  0  0  0999 V2000
    2.2960   -3.0316   -3.3480 C   0  0  0  0  0  0  0  0  0  0  0  0
    3.6136   -2.6498   -2.6601 C   0  0  2  0  0  0  0  0  0  0  0  0
    3.7165   -3.2755   -1.3747 O   0  0  0  0  0  0  0  0  0  0  0  0
    4.5320   -2.5021   -0.4828 C   0  0  1  0  0  0  0  0  0  0  0  0
    3.9849   -2.5884    0.9390 C   0  0  0  0  0  0  0  0  0  0  0  0
    4.7729   -1.8161    1.8255 O   0  0  0  0  0  0  0  0  0  0  0  0
    6.0085   -2.7058   -0.7866 C   0  0  0  0  0  0  0  0  0  0  0  0
    6.0648   -1.4644   -1.5256 O   0  0  0  0  0  0  0  0  0  0  0  0
    4.6843   -1.1583   -1.1702 C   0  0  1  0  0  0  0  0  0  0  0  0
    3.7445   -1.1631   -2.3412 C   0  0  1  0  0  0  0  0  0  0  0  0
    4.1836   -0.3521   -3.4085 O   0  0  0  0  0  0  0  0  0  0  0  0
    2.2083   -2.5371   -4.3146 H   0  0  0  0  0  0  0  0  0  0  0  0
    1.4283   -2.7481   -2.7479 H   0  0  0  0  0  0  0  0  0  0  0  0
    2.2324   -4.1068   -3.5215 H   0  0  0  0  0  0  0  0  0  0  0  0
    4.4629   -2.9705   -3.2641 H   0  0  0  0  0  0  0  0  0  0  0  0
    2.9583   -2.2218    0.9696 H   0  0  0  0  0  0  0  0  0  0  0  0
    3.9610   -3.6219    1.2850 H   0  0  0  0  0  0  0  0  0  0  0  0
    4.3436   -1.7739    2.6672 H   0  0  0  0  0  0  0  0  0  0  0  0
    6.6457   -2.6734    0.0956 H   0  0  0  0  0  0  0  0  0  0  0  0
    6.2129   -3.5822   -1.4036 H   0  0  0  0  0  0  0  0  0  0  0  0
    4.6141   -0.3031   -0.4959 H   0  0  0  0  0  0  0  0  0  0  0  0
    2.7783   -0.7780   -2.0160 H   0  0  0  0  0  0  0  0  0  0  0  0
    3.5229    0.3137   -3.5522 H   0  0  0  0  0  0  0  0  0  0  0  0
  1  2  1  0
  1 12  1  0
  1 13  1  0
  1 14  1  0
  2 10  1  0
  2  3  1  0
  2 15  1  6
  3  4  1  0
  4  9  1  0
  4  5  1  1
  4  7  1  0
  5  6  1  0
  5 16  1  0
  5 17  1  0
  6 18  1  0
  7  8  1  0
  7 19  1  0
  7 20  1  0
  8  9  1  0
  9 10  1  0
  9 21  1  1
 10 11  1  0
 10 22  1  1
 11 23  1  0
M  END
>  <i_m_ct_stereo_status>  (43) 
1

>  <s_m_source_file>  (43) 
/var/tmp/pbs.5076255.sched01/tmp361wbqj1/0nt8_y6ui.sdf

>  <i_m_source_file_index>  (43) 
15

>  <i_lp_mmshare_version>  (43) 
48012

>  <i_f3d_flags>  (43) 
0

>  <s_epik_input>  (43) 
W0NIM11bQ0BIXShPMSlbQ0BIXShbT0hdKVtDQEhdKE9bQ0gyXTIpW0NAQF0xMltDSDJdW09IXQ==

>  <s_epik_cmdline>  (43) 
J2VwaWtfcHl0aG9uJywgJy1waHQnLCAnMi4wJywgJy1waCcsICc3LjAnLCAnLXRuJywgJzgnLCAnLW1hJywgJzIwMCcsICctaW1hZScsICc8aW5maWxlLm1hZT4nLCAnLW9tYWUnLCAnPG91dGZpbGUubWFlPic=

>  <r_lp_tautomer_probability>  (43) 
1

>  <r_epik_Ionization_Penalty>  (43) 
4.61156e-07

>  <r_epik_Ionization_Penalty_Charging>  (43) 
0

>  <r_epik_Ionization_Penalty_Neutral>  (43) 
4.61156e-07

>  <r_epik_State_Penalty>  (43) 
-0

>  <r_epik_Charging_Adjusted_Penalty>  (43) 
0

>  <i_epik_Tot_Q>  (43) 
0

>  <i_epik_Tot_abs_Q>  (43) 
0

>  <s_lp_Force_Field>  (43) 
OPLS3e

>  <r_lp_Energy>  (43) 
1.56482

>  <b_lp_Chiralities_Consistent>  (43) 
1

>  <s_lp_Variant>  (43) 
12:0-1

>  <s_i_glide_gridfile>  (43) 
pfpi4k_grid

>  <i_i_glide_lignum>  (43) 
15

>  <i_i_glide_rotatable_bonds>  (43) 
3

>  <r_i_docking_score>  (43) 
-3.53017

>  <r_i_glide_ligand_efficiency>  (43) 
-0.320925

>  <r_i_glide_ligand_efficiency_sa>  (43) 
-0.713731

>  <r_i_glide_ligand_efficiency_ln>  (43) 
-1.03893

>  <r_i_glide_gscore>  (43) 
-3.53017

>  <r_i_glide_lipo>  (43) 
-0.205983

>  <r_i_glide_hbond>  (43) 
-0.107212

>  <r_i_glide_metal>  (43) 
-0

>  <r_i_glide_rewards>  (43) 
-2.25

>  <r_i_glide_evdw>  (43) 
-16.5712

>  <r_i_glide_ecoul>  (43) 
-4.84244

>  <r_i_glide_erotb>  (43) 
0.587946

>  <r_i_glide_esite>  (43) 
0

>  <r_i_glide_emodel>  (43) 
-26.2957

>  <r_i_glide_energy>  (43) 
-21.4136

>  <r_i_glide_einternal>  (43) 
2.48924

>  <r_i_glide_intrahb_reward>  (43) 
-0

>  <i_i_glide_confnum>  (43) 
2

>  <i_i_glide_posenum>  (43) 
40

>  <r_i_glide_eff_state_penalty>  (43) 
0

>  <ligand_id>  (43) 
12

>  <original_smiles>  (43) 
CC1OC2(CO)COC2C1O

>  <smiles>  (43) 
[H]OC([H])([H])C12OC([H])(C([H])([H])[H])C([H])(O[H])C1([H])OC2([H])[H]

$$$$
12:0:2
     RDKit          3D

 23 24  0  0  1  0  0  0  0  0999 V2000
    2.2938   -3.0510   -3.3503 C   0  0  0  0  0  0  0  0  0  0  0  0
    3.5786   -2.6588   -2.6174 C   0  0  2  0  0  0  0  0  0  0  0  0
    3.6092   -3.2535   -1.3150 O   0  0  0  0  0  0  0  0  0  0  0  0
    4.3836   -2.4621   -0.4004 C   0  0  1  0  0  0  0  0  0  0  0  0
    3.7700   -2.5182    0.9963 C   0  0  0  0  0  0  0  0  0  0  0  0
    4.4842   -1.6861    1.8904 O   0  0  0  0  0  0  0  0  0  0  0  0
    5.8706   -2.6807   -0.6318 C   0  0  0  0  0  0  0  0  0  0  0  0
    5.9676   -1.4594   -1.4049 O   0  0  0  0  0  0  0  0  0  0  0  0
    4.5757   -1.1366   -1.1118 C   0  0  1  0  0  0  0  0  0  0  0  0
    3.6897   -1.1660   -2.3224 C   0  0  1  0  0  0  0  0  0  0  0  0
    4.1756   -0.3666   -3.3774 O   0  0  0  0  0  0  0  0  0  0  0  0
    2.2485   -2.5657   -4.3194 H   0  0  0  0  0  0  0  0  0  0  0  0
    1.4155   -2.7364   -2.7898 H   0  0  0  0  0  0  0  0  0  0  0  0
    2.2236   -4.1281   -3.5129 H   0  0  0  0  0  0  0  0  0  0  0  0
    4.4536   -2.9991   -3.1718 H   0  0  0  0  0  0  0  0  0  0  0  0
    2.7300   -2.1941    0.9649 H   0  0  0  0  0  0  0  0  0  0  0  0
    3.7689   -3.5380    1.3808 H   0  0  0  0  0  0  0  0  0  0  0  0
    4.0370   -1.6669    2.7237 H   0  0  0  0  0  0  0  0  0  0  0  0
    6.4631   -2.6308    0.2815 H   0  0  0  0  0  0  0  0  0  0  0  0
    6.0932   -3.5762   -1.2138 H   0  0  0  0  0  0  0  0  0  0  0  0
    4.4809   -0.2651   -0.4608 H   0  0  0  0  0  0  0  0  0  0  0  0
    2.7060   -0.7780   -2.0566 H   0  0  0  0  0  0  0  0  0  0  0  0
    3.9900    0.5374   -3.1558 H   0  0  0  0  0  0  0  0  0  0  0  0
  1  2  1  0
  1 12  1  0
  1 13  1  0
  1 14  1  0
  2 10  1  0
  2  3  1  0
  2 15  1  6
  3  4  1  0
  4  9  1  0
  4  5  1  1
  4  7  1  0
  5  6  1  0
  5 16  1  0
  5 17  1  0
  6 18  1  0
  7  8  1  0
  7 19  1  0
  7 20  1  0
  8  9  1  0
  9 10  1  0
  9 21  1  1
 10 11  1  0
 10 22  1  1
 11 23  1  0
M  END
>  <i_m_ct_stereo_status>  (44) 
1

>  <s_m_source_file>  (44) 
/var/tmp/pbs.5076255.sched01/tmp361wbqj1/0nt8_y6ui.sdf

>  <i_m_source_file_index>  (44) 
15

>  <i_lp_mmshare_version>  (44) 
48012

>  <i_f3d_flags>  (44) 
0

>  <s_epik_input>  (44) 
W0NIM11bQ0BIXShPMSlbQ0BIXShbT0hdKVtDQEhdKE9bQ0gyXTIpW0NAQF0xMltDSDJdW09IXQ==

>  <s_epik_cmdline>  (44) 
J2VwaWtfcHl0aG9uJywgJy1waHQnLCAnMi4wJywgJy1waCcsICc3LjAnLCAnLXRuJywgJzgnLCAnLW1hJywgJzIwMCcsICctaW1hZScsICc8aW5maWxlLm1hZT4nLCAnLW9tYWUnLCAnPG91dGZpbGUubWFlPic=

>  <r_lp_tautomer_probability>  (44) 
1

>  <r_epik_Ionization_Penalty>  (44) 
4.61156e-07

>  <r_epik_Ionization_Penalty_Charging>  (44) 
0

>  <r_epik_Ionization_Penalty_Neutral>  (44) 
4.61156e-07

>  <r_epik_State_Penalty>  (44) 
-0

>  <r_epik_Charging_Adjusted_Penalty>  (44) 
0

>  <i_epik_Tot_Q>  (44) 
0

>  <i_epik_Tot_abs_Q>  (44) 
0

>  <s_lp_Force_Field>  (44) 
OPLS3e

>  <r_lp_Energy>  (44) 
1.56482

>  <b_lp_Chiralities_Consistent>  (44) 
1

>  <s_lp_Variant>  (44) 
12:0-1

>  <s_i_glide_gridfile>  (44) 
pfpi4k_grid

>  <i_i_glide_lignum>  (44) 
15

>  <i_i_glide_rotatable_bonds>  (44) 
3

>  <r_i_docking_score>  (44) 
-3.47437

>  <r_i_glide_ligand_efficiency>  (44) 
-0.315852

>  <r_i_glide_ligand_efficiency_sa>  (44) 
-0.702448

>  <r_i_glide_ligand_efficiency_ln>  (44) 
-1.02251

>  <r_i_glide_gscore>  (44) 
-3.47437

>  <r_i_glide_lipo>  (44) 
-0.207718

>  <r_i_glide_hbond>  (44) 
-0.10469

>  <r_i_glide_metal>  (44) 
-0

>  <r_i_glide_rewards>  (44) 
-2.25

>  <r_i_glide_evdw>  (44) 
-16.8914

>  <r_i_glide_ecoul>  (44) 
-4.36892

>  <r_i_glide_erotb>  (44) 
0.587946

>  <r_i_glide_esite>  (44) 
0

>  <r_i_glide_emodel>  (44) 
-26.4421

>  <r_i_glide_energy>  (44) 
-21.2603

>  <r_i_glide_einternal>  (44) 
1.58938

>  <r_i_glide_intrahb_reward>  (44) 
-0

>  <i_i_glide_confnum>  (44) 
2

>  <i_i_glide_posenum>  (44) 
2

>  <r_i_glide_eff_state_penalty>  (44) 
0

>  <ligand_id>  (44) 
12

>  <original_smiles>  (44) 
CC1OC2(CO)COC2C1O

>  <smiles>  (44) 
[H]OC([H])([H])C12OC([H])(C([H])([H])[H])C([H])(O[H])C1([H])OC2([H])[H]

$$$$
13:0:0
     RDKit          3D

 47 51  0  0  1  0  0  0  0  0999 V2000
    5.5184   -1.3699    1.9417 O   0  0  0  0  0  0  0  0  0  0  0  0
    4.4364   -1.8007    1.1407 C   0  0  0  0  0  0  0  0  0  0  0  0
    4.9140   -2.6970   -0.0575 C   0  0  1  0  0  0  0  0  0  0  0  0
    5.6142   -3.9800    0.5174 C   0  0  0  0  0  0  0  0  0  0  0  0
    4.9179   -4.8499    1.5944 C   0  0  2  0  0  0  0  0  0  0  0  0
    5.8896   -5.9241    2.0713 C   0  0  0  0  0  0  0  0  0  0  0  0
    4.9452   -7.2628    2.6414 S   0  0  0  0  0  0  0  0  0  0  0  0
    3.8235   -6.9100    1.3417 C   0  0  1  0  0  0  0  0  0  0  0  0
    2.5226   -7.5643    1.6771 C   0  0  0  0  0  0  0  0  0  0  0  0
    2.3655   -8.8752    2.0581 C   0  0  0  0  0  0  0  0  0  0  0  0
    1.0705   -9.1840    2.4839 N   0  0  0  0  0  0  0  0  0  0  0  0
    0.2147   -8.2139    2.3479 N   0  0  0  0  0  0  0  0  0  0  0  0
    0.9671   -6.8276    1.7499 S   0  0  0  0  0  0  0  0  0  0  0  0
    3.6943   -5.5042    1.1899 O   0  0  0  0  0  0  0  0  0  0  0  0
    3.7185   -3.0743   -0.9769 C   0  0  2  0  0  0  0  0  0  0  0  0
    4.1835   -3.9110   -2.1861 C   0  0  0  0  0  0  0  0  0  0  0  0
    5.1757   -3.1447   -3.0560 C   0  0  1  0  0  0  0  0  0  0  0  0
    4.4412   -1.8984   -3.5999 C   0  0  0  0  0  0  0  0  0  0  0  0
    4.0120   -1.0284   -2.4153 C   0  0  1  0  0  0  0  0  0  0  0  0
    3.0553   -1.8226   -1.5610 C   0  0  0  0  0  0  0  0  0  0  0  0
    5.2052   -0.6545   -1.5551 C   0  0  0  0  0  0  0  0  0  0  0  0
    5.9127   -1.9082   -0.9870 C   0  0  2  0  0  0  0  0  0  0  0  0
    6.3895   -2.7740   -2.1806 C   0  0  0  0  0  0  0  0  0  0  0  0
    5.1631   -0.9151    2.6895 H   0  0  0  0  0  0  0  0  0  0  0  0
    3.7134   -2.3312    1.7597 H   0  0  0  0  0  0  0  0  0  0  0  0
    3.9081   -0.8959    0.8460 H   0  0  0  0  0  0  0  0  0  0  0  0
    5.9039   -4.6489   -0.2827 H   0  0  0  0  0  0  0  0  0  0  0  0
    6.5657   -3.6292    0.9154 H   0  0  0  0  0  0  0  0  0  0  0  0
    4.6691   -4.1957    2.4217 H   0  0  0  0  0  0  0  0  0  0  0  0
    6.4838   -6.2672    1.2335 H   0  0  0  0  0  0  0  0  0  0  0  0
    6.5678   -5.5353    2.8186 H   0  0  0  0  0  0  0  0  0  0  0  0
    4.1992   -7.2668    0.3816 H   0  0  0  0  0  0  0  0  0  0  0  0
    3.1505   -9.5915    2.1774 H   0  0  0  0  0  0  0  0  0  0  0  0
    2.9602   -3.6194   -0.4096 H   0  0  0  0  0  0  0  0  0  0  0  0
    4.6196   -4.8622   -1.8798 H   0  0  0  0  0  0  0  0  0  0  0  0
    3.3212   -4.1442   -2.8055 H   0  0  0  0  0  0  0  0  0  0  0  0
    5.4843   -3.7875   -3.8782 H   0  0  0  0  0  0  0  0  0  0  0  0
    5.0327   -1.3116   -4.2885 H   0  0  0  0  0  0  0  0  0  0  0  0
    3.5696   -2.1887   -4.1886 H   0  0  0  0  0  0  0  0  0  0  0  0
    3.5308   -0.1186   -2.7807 H   0  0  0  0  0  0  0  0  0  0  0  0
    2.2084   -2.1168   -2.1849 H   0  0  0  0  0  0  0  0  0  0  0  0
    2.6456   -1.1895   -0.7810 H   0  0  0  0  0  0  0  0  0  0  0  0
    5.8131   -0.0613   -2.2125 H   0  0  0  0  0  0  0  0  0  0  0  0
    4.9112    0.0172   -0.7490 H   0  0  0  0  0  0  0  0  0  0  0  0
    6.7800   -1.6095   -0.3982 H   0  0  0  0  0  0  0  0  0  0  0  0
    6.8906   -3.6789   -1.8453 H   0  0  0  0  0  0  0  0  0  0  0  0
    7.1465   -2.2570   -2.7592 H   0  0  0  0  0  0  0  0  0  0  0  0
  1  2  1  0
  1 24  1  0
  3  2  1  1
  2 25  1  0
  2 26  1  0
  3 22  1  0
  3  4  1  0
  3 15  1  0
  4  5  1  0
  4 27  1  0
  4 28  1  0
  5 14  1  0
  5  6  1  0
  5 29  1  1
  6  7  1  0
  6 30  1  0
  6 31  1  0
  7  8  1  0
  8  9  1  0
  8 14  1  0
  8 32  1  6
  9 13  1  0
  9 10  2  0
 10 11  1  0
 10 33  1  0
 11 12  2  0
 12 13  1  0
 15 20  1  0
 15 16  1  0
 15 34  1  1
 16 17  1  0
 16 35  1  0
 16 36  1  0
 17 23  1  0
 17 18  1  0
 17 37  1  6
 18 19  1  0
 18 38  1  0
 18 39  1  0
 19 20  1  0
 19 21  1  0
 19 40  1  6
 20 41  1  0
 20 42  1  0
 21 22  1  0
 21 43  1  0
 21 44  1  0
 22 23  1  0
 22 45  1  1
 23 46  1  0
 23 47  1  0
M  END
>  <i_m_ct_stereo_status>  (45) 
1

>  <s_m_source_file>  (45) 
/var/tmp/pbs.5076255.sched01/tmp361wbqj1/0nt8_y6ui.sdf

>  <i_m_source_file_index>  (45) 
16

>  <i_lp_mmshare_version>  (45) 
48012

>  <i_f3d_flags>  (45) 
0

>  <s_epik_input>  (45) 
W0NIMl0xW0NASF0oW0NIMl0yKVtDSDJdW0NAQEhdKFtDSDJdMylbQ0gyXVtDQEhdMltDQF0oW0NASF0xMykoW0NIMl1bT0hdKVtDSDJdW0NAQEhdNFtDSDJdU1tDQEhdKE80KWM1W2NIXW5uczU=

>  <s_epik_cmdline>  (45) 
J2VwaWtfcHl0aG9uJywgJy1waHQnLCAnMi4wJywgJy1waCcsICc3LjAnLCAnLXRuJywgJzgnLCAnLW1hJywgJzIwMCcsICctaW1hZScsICc8aW5maWxlLm1hZT4nLCAnLW9tYWUnLCAnPG91dGZpbGUubWFlPic=

>  <r_lp_tautomer_probability>  (45) 
1

>  <r_epik_Ionization_Penalty>  (45) 
7.24077e-07

>  <r_epik_Ionization_Penalty_Charging>  (45) 
0

>  <r_epik_Ionization_Penalty_Neutral>  (45) 
7.24077e-07

>  <r_epik_State_Penalty>  (45) 
-0

>  <r_epik_Charging_Adjusted_Penalty>  (45) 
0

>  <i_epik_Tot_Q>  (45) 
0

>  <i_epik_Tot_abs_Q>  (45) 
0

>  <s_epik_Chemistry_Notes>  (45) 
This compound contains an acetal/aminal-like group ( X-CH(R)-Y where X, Y are N, S, or O) that may be acid/base labile, releasing an aldehyde.

>  <s_lp_Force_Field>  (45) 
OPLS3e

>  <r_lp_Energy>  (45) 
11.4462

>  <b_lp_Chiralities_Consistent>  (45) 
1

>  <s_lp_Variant>  (45) 
13:0-1

>  <s_i_glide_gridfile>  (45) 
pfpi4k_grid

>  <i_i_glide_lignum>  (45) 
16

>  <i_i_glide_rotatable_bonds>  (45) 
5

>  <r_i_docking_score>  (45) 
-1.93123

>  <r_i_glide_ligand_efficiency>  (45) 
-0.0839667

>  <r_i_glide_ligand_efficiency_sa>  (45) 
-0.23879

>  <r_i_glide_ligand_efficiency_ln>  (45) 
-0.46699

>  <r_i_glide_gscore>  (45) 
-1.93123

>  <r_i_glide_lipo>  (45) 
-0.558235

>  <r_i_glide_hbond>  (45) 
0

>  <r_i_glide_metal>  (45) 
-0

>  <r_i_glide_rewards>  (45) 
-1.00557

>  <r_i_glide_evdw>  (45) 
-19.6758

>  <r_i_glide_ecoul>  (45) 
0.313198

>  <r_i_glide_erotb>  (45) 
0.614344

>  <r_i_glide_esite>  (45) 
-0.0449637

>  <r_i_glide_emodel>  (45) 
-18.7097

>  <r_i_glide_energy>  (45) 
-19.3626

>  <r_i_glide_einternal>  (45) 
0.759987

>  <r_i_glide_intrahb_reward>  (45) 
-0

>  <i_i_glide_confnum>  (45) 
1

>  <i_i_glide_posenum>  (45) 
13

>  <r_i_glide_eff_state_penalty>  (45) 
0

>  <ligand_id>  (45) 
13

>  <original_smiles>  (45) 
OCC1(CC2CSC(c3cnns3)O2)C2CC3CC(C2)CC1C3

>  <smiles>  (45) 
[H]OC([H])([H])C1(C([H])([H])C2([H])OC([H])(c3snnc3[H])SC2([H])[H])C2([H])C([H])([H])C3([H])C([H])([H])C([H])(C2([H])[H])C([H])([H])C1([H])C3([H])[H]

$$$$
13:0:1
     RDKit          3D

 47 51  0  0  1  0  0  0  0  0999 V2000
    5.3512   -2.2232    1.4011 O   0  0  0  0  0  0  0  0  0  0  0  0
    4.2039   -2.0908    0.5881 C   0  0  0  0  0  0  0  0  0  0  0  0
    4.3724   -2.8180   -0.7922 C   0  0  1  0  0  0  0  0  0  0  0  0
    4.6346   -4.3435   -0.5377 C   0  0  0  0  0  0  0  0  0  0  0  0
    3.8774   -5.1008    0.5983 C   0  0  2  0  0  0  0  0  0  0  0  0
    4.5118   -6.4828    0.8333 C   0  0  0  0  0  0  0  0  0  0  0  0
    3.3179   -7.5699    1.5623 S   0  0  0  0  0  0  0  0  0  0  0  0
    2.0361   -6.3646    1.2138 C   0  0  1  0  0  0  0  0  0  0  0  0
    1.5313   -5.8169    2.5190 C   0  0  0  0  0  0  0  0  0  0  0  0
    0.8692   -6.5063    3.4949 C   0  0  0  0  0  0  0  0  0  0  0  0
    0.5775   -5.7469    4.6402 N   0  0  0  0  0  0  0  0  0  0  0  0
    0.9966   -4.5143    4.5858 N   0  0  0  0  0  0  0  0  0  0  0  0
    1.8110   -4.2117    3.1495 S   0  0  0  0  0  0  0  0  0  0  0  0
    2.4820   -5.2992    0.3860 O   0  0  0  0  0  0  0  0  0  0  0  0
    3.1153   -2.6101   -1.7040 C   0  0  2  0  0  0  0  0  0  0  0  0
    3.2282   -3.2271   -3.0961 C   0  0  0  0  0  0  0  0  0  0  0  0
    4.4577   -2.6805   -3.8055 C   0  0  1  0  0  0  0  0  0  0  0  0
    4.2200   -1.1711   -4.0613 C   0  0  0  0  0  0  0  0  0  0  0  0
    4.1030   -0.4811   -2.6925 C   0  0  1  0  0  0  0  0  0  0  0  0
    2.9354   -1.1164   -1.9536 C   0  0  0  0  0  0  0  0  0  0  0  0
    5.3366   -0.7237   -1.8284 C   0  0  0  0  0  0  0  0  0  0  0  0
    5.5698   -2.2203   -1.5939 C   0  0  2  0  0  0  0  0  0  0  0  0
    5.7214   -2.9355   -2.9558 C   0  0  0  0  0  0  0  0  0  0  0  0
    5.1292   -1.8777    2.2516 H   0  0  0  0  0  0  0  0  0  0  0  0
    3.3177   -2.4574    1.1028 H   0  0  0  0  0  0  0  0  0  0  0  0
    4.0214   -1.0238    0.5250 H   0  0  0  0  0  0  0  0  0  0  0  0
    4.5471   -4.9364   -1.4437 H   0  0  0  0  0  0  0  0  0  0  0  0
    5.6990   -4.4237   -0.3162 H   0  0  0  0  0  0  0  0  0  0  0  0
    3.9891   -4.5007    1.4997 H   0  0  0  0  0  0  0  0  0  0  0  0
    4.8352   -6.8813   -0.1255 H   0  0  0  0  0  0  0  0  0  0  0  0
    5.3722   -6.3558    1.4824 H   0  0  0  0  0  0  0  0  0  0  0  0
    1.2287   -6.8881    0.7110 H   0  0  0  0  0  0  0  0  0  0  0  0
    0.5971   -7.5496    3.4784 H   0  0  0  0  0  0  0  0  0  0  0  0
    2.2280   -2.9982   -1.2010 H   0  0  0  0  0  0  0  0  0  0  0  0
    3.3897   -4.2414   -3.0071 H   0  0  0  0  0  0  0  0  0  0  0  0
    2.3220   -3.1085   -3.6874 H   0  0  0  0  0  0  0  0  0  0  0  0
    4.5788   -3.2288   -4.7254 H   0  0  0  0  0  0  0  0  0  0  0  0
    5.0154   -0.7283   -4.6593 H   0  0  0  0  0  0  0  0  0  0  0  0
    3.3039   -1.0413   -4.6447 H   0  0  0  0  0  0  0  0  0  0  0  0
    3.9159    0.5779   -2.8418 H   0  0  0  0  0  0  0  0  0  0  0  0
    2.0693   -0.9450   -2.5507 H   0  0  0  0  0  0  0  0  0  0  0  0
    2.7057   -0.6949   -0.9794 H   0  0  0  0  0  0  0  0  0  0  0  0
    6.1858   -0.2833   -2.3148 H   0  0  0  0  0  0  0  0  0  0  0  0
    5.2752   -0.1912   -0.8968 H   0  0  0  0  0  0  0  0  0  0  0  0
    6.4939   -2.3367   -1.0266 H   0  0  0  0  0  0  0  0  0  0  0  0
    5.8619   -4.0139   -2.8167 H   0  0  0  0  0  0  0  0  0  0  0  0
    6.5973   -2.6357   -3.4743 H   0  0  0  0  0  0  0  0  0  0  0  0
  1  2  1  0
  1 24  1  0
  3  2  1  1
  2 25  1  0
  2 26  1  0
  3 22  1  0
  3  4  1  0
  3 15  1  0
  4  5  1  0
  4 27  1  0
  4 28  1  0
  5 14  1  0
  5  6  1  0
  5 29  1  1
  6  7  1  0
  6 30  1  0
  6 31  1  0
  7  8  1  0
  8  9  1  0
  8 14  1  0
  8 32  1  6
  9 13  1  0
  9 10  2  0
 10 11  1  0
 10 33  1  0
 11 12  2  0
 12 13  1  0
 15 20  1  0
 15 16  1  0
 15 34  1  1
 16 17  1  0
 16 35  1  0
 16 36  1  0
 17 23  1  0
 17 18  1  0
 17 37  1  6
 18 19  1  0
 18 38  1  0
 18 39  1  0
 19 20  1  0
 19 21  1  0
 19 40  1  6
 20 41  1  0
 20 42  1  0
 21 22  1  0
 21 43  1  0
 21 44  1  0
 22 23  1  0
 22 45  1  1
 23 46  1  0
 23 47  1  0
M  END
>  <i_m_ct_stereo_status>  (46) 
1

>  <s_m_source_file>  (46) 
/var/tmp/pbs.5076255.sched01/tmp361wbqj1/0nt8_y6ui.sdf

>  <i_m_source_file_index>  (46) 
16

>  <i_lp_mmshare_version>  (46) 
48012

>  <i_f3d_flags>  (46) 
0

>  <s_epik_input>  (46) 
W0NIMl0xW0NASF0oW0NIMl0yKVtDSDJdW0NAQEhdKFtDSDJdMylbQ0gyXVtDQEhdMltDQF0oW0NASF0xMykoW0NIMl1bT0hdKVtDSDJdW0NAQEhdNFtDSDJdU1tDQEhdKE80KWM1W2NIXW5uczU=

>  <s_epik_cmdline>  (46) 
J2VwaWtfcHl0aG9uJywgJy1waHQnLCAnMi4wJywgJy1waCcsICc3LjAnLCAnLXRuJywgJzgnLCAnLW1hJywgJzIwMCcsICctaW1hZScsICc8aW5maWxlLm1hZT4nLCAnLW9tYWUnLCAnPG91dGZpbGUubWFlPic=

>  <r_lp_tautomer_probability>  (46) 
1

>  <r_epik_Ionization_Penalty>  (46) 
7.24077e-07

>  <r_epik_Ionization_Penalty_Charging>  (46) 
0

>  <r_epik_Ionization_Penalty_Neutral>  (46) 
7.24077e-07

>  <r_epik_State_Penalty>  (46) 
-0

>  <r_epik_Charging_Adjusted_Penalty>  (46) 
0

>  <i_epik_Tot_Q>  (46) 
0

>  <i_epik_Tot_abs_Q>  (46) 
0

>  <s_epik_Chemistry_Notes>  (46) 
This compound contains an acetal/aminal-like group ( X-CH(R)-Y where X, Y are N, S, or O) that may be acid/base labile, releasing an aldehyde.

>  <s_lp_Force_Field>  (46) 
OPLS3e

>  <r_lp_Energy>  (46) 
11.4462

>  <b_lp_Chiralities_Consistent>  (46) 
1

>  <s_lp_Variant>  (46) 
13:0-1

>  <s_i_glide_gridfile>  (46) 
pfpi4k_grid

>  <i_i_glide_lignum>  (46) 
16

>  <i_i_glide_rotatable_bonds>  (46) 
5

>  <r_i_docking_score>  (46) 
-1.77259

>  <r_i_glide_ligand_efficiency>  (46) 
-0.0770691

>  <r_i_glide_ligand_efficiency_sa>  (46) 
-0.219174

>  <r_i_glide_ligand_efficiency_ln>  (46) 
-0.428628

>  <r_i_glide_gscore>  (46) 
-1.77259

>  <r_i_glide_lipo>  (46) 
-0.65044

>  <r_i_glide_hbond>  (46) 
0

>  <r_i_glide_metal>  (46) 
-0

>  <r_i_glide_rewards>  (46) 
-1.00557

>  <r_i_glide_evdw>  (46) 
-12.3868

>  <r_i_glide_ecoul>  (46) 
-0.654054

>  <r_i_glide_erotb>  (46) 
0.614344

>  <r_i_glide_esite>  (46) 
-0.0134755

>  <r_i_glide_emodel>  (46) 
-12.3799

>  <r_i_glide_energy>  (46) 
-13.0409

>  <r_i_glide_einternal>  (46) 
1.56213

>  <r_i_glide_intrahb_reward>  (46) 
-0

>  <i_i_glide_confnum>  (46) 
2

>  <i_i_glide_posenum>  (46) 
9

>  <r_i_glide_eff_state_penalty>  (46) 
0

>  <ligand_id>  (46) 
13

>  <original_smiles>  (46) 
OCC1(CC2CSC(c3cnns3)O2)C2CC3CC(C2)CC1C3

>  <smiles>  (46) 
[H]OC([H])([H])C1(C([H])([H])C2([H])OC([H])(c3snnc3[H])SC2([H])[H])C2([H])C([H])([H])C3([H])C([H])([H])C([H])(C2([H])[H])C([H])([H])C1([H])C3([H])[H]

$$$$
13:0:2
     RDKit          3D

 47 51  0  0  1  0  0  0  0  0999 V2000
    5.2828   -0.9134    1.4459 O   0  0  0  0  0  0  0  0  0  0  0  0
    4.1861   -1.4560    0.7343 C   0  0  0  0  0  0  0  0  0  0  0  0
    4.6443   -2.5406   -0.2997 C   0  0  1  0  0  0  0  0  0  0  0  0
    5.2118   -3.7862    0.4730 C   0  0  0  0  0  0  0  0  0  0  0  0
    4.4698   -4.3561    1.7071 C   0  0  2  0  0  0  0  0  0  0  0  0
    5.2428   -5.5329    2.2911 C   0  0  0  0  0  0  0  0  0  0  0  0
    4.0897   -6.5871    3.0962 S   0  0  0  0  0  0  0  0  0  0  0  0
    2.9519   -6.1287    1.8322 C   0  0  1  0  0  0  0  0  0  0  0  0
    1.5820   -6.3862    2.3472 C   0  0  0  0  0  0  0  0  0  0  0  0
    1.0188   -5.9460    3.5333 C   0  0  0  0  0  0  0  0  0  0  0  0
   -0.1907   -6.6037    3.8301 N   0  0  0  0  0  0  0  0  0  0  0  0
   -0.6096   -7.4141    2.9145 N   0  0  0  0  0  0  0  0  0  0  0  0
    0.4931   -7.5081    1.6635 S   0  0  0  0  0  0  0  0  0  0  0  0
    3.1210   -4.7769    1.4607 O   0  0  0  0  0  0  0  0  0  0  0  0
    3.4566   -2.9266   -1.2386 C   0  0  2  0  0  0  0  0  0  0  0  0
    3.9249   -3.9177   -2.3030 C   0  0  0  0  0  0  0  0  0  0  0  0
    5.0156   -3.3726   -3.2186 C   0  0  1  0  0  0  0  0  0  0  0  0
    4.4068   -2.1603   -4.0021 C   0  0  0  0  0  0  0  0  0  0  0  0
    3.9750   -1.1438   -2.9163 C   0  0  1  0  0  0  0  0  0  0  0  0
    2.8740   -1.7112   -2.0154 C   0  0  0  0  0  0  0  0  0  0  0  0
    5.1419   -0.7472   -2.0079 C   0  0  0  0  0  0  0  0  0  0  0  0
    5.7432   -1.9591   -1.2605 C   0  0  2  0  0  0  0  0  0  0  0  0
    6.2074   -3.0010   -2.3070 C   0  0  0  0  0  0  0  0  0  0  0  0
    5.6391   -0.2187    0.9125 H   0  0  0  0  0  0  0  0  0  0  0  0
    3.4335   -1.8656    1.4048 H   0  0  0  0  0  0  0  0  0  0  0  0
    3.6900   -0.6016    0.2809 H   0  0  0  0  0  0  0  0  0  0  0  0
    5.3953   -4.6189   -0.1976 H   0  0  0  0  0  0  0  0  0  0  0  0
    6.2167   -3.5099    0.7885 H   0  0  0  0  0  0  0  0  0  0  0  0
    4.4138   -3.5550    2.4355 H   0  0  0  0  0  0  0  0  0  0  0  0
    5.6854   -6.0939    1.4817 H   0  0  0  0  0  0  0  0  0  0  0  0
    6.0469   -5.1822    2.9210 H   0  0  0  0  0  0  0  0  0  0  0  0
    3.1398   -6.7025    0.9323 H   0  0  0  0  0  0  0  0  0  0  0  0
    1.4919   -5.3571    4.2761 H   0  0  0  0  0  0  0  0  0  0  0  0
    2.6478   -3.3673   -0.6643 H   0  0  0  0  0  0  0  0  0  0  0  0
    4.2653   -4.8134   -1.8085 H   0  0  0  0  0  0  0  0  0  0  0  0
    3.0915   -4.1897   -2.9441 H   0  0  0  0  0  0  0  0  0  0  0  0
    5.3267   -4.1730   -3.9037 H   0  0  0  0  0  0  0  0  0  0  0  0
    4.9959   -1.6504   -4.7246 H   0  0  0  0  0  0  0  0  0  0  0  0
    3.5009   -2.5489   -4.5242 H   0  0  0  0  0  0  0  0  0  0  0  0
    3.6120   -0.2717   -3.4310 H   0  0  0  0  0  0  0  0  0  0  0  0
    2.0474   -2.0356   -2.6560 H   0  0  0  0  0  0  0  0  0  0  0  0
    2.6254   -0.9164   -1.3961 H   0  0  0  0  0  0  0  0  0  0  0  0
    5.8384   -0.2630   -2.6306 H   0  0  0  0  0  0  0  0  0  0  0  0
    4.8525    0.0382   -1.3199 H   0  0  0  0  0  0  0  0  0  0  0  0
    6.6234   -1.6669   -0.6800 H   0  0  0  0  0  0  0  0  0  0  0  0
    6.6229   -3.8634   -1.7950 H   0  0  0  0  0  0  0  0  0  0  0  0
    7.0239   -2.6323   -2.9064 H   0  0  0  0  0  0  0  0  0  0  0  0
  1  2  1  0
  1 24  1  0
  3  2  1  1
  2 25  1  0
  2 26  1  0
  3 22  1  0
  3  4  1  0
  3 15  1  0
  4  5  1  0
  4 27  1  0
  4 28  1  0
  5 14  1  0
  5  6  1  0
  5 29  1  1
  6  7  1  0
  6 30  1  0
  6 31  1  0
  7  8  1  0
  8  9  1  0
  8 14  1  0
  8 32  1  6
  9 13  1  0
  9 10  2  0
 10 11  1  0
 10 33  1  0
 11 12  2  0
 12 13  1  0
 15 20  1  0
 15 16  1  0
 15 34  1  1
 16 17  1  0
 16 35  1  0
 16 36  1  0
 17 23  1  0
 17 18  1  0
 17 37  1  6
 18 19  1  0
 18 38  1  0
 18 39  1  0
 19 20  1  0
 19 21  1  0
 19 40  1  6
 20 41  1  0
 20 42  1  0
 21 22  1  0
 21 43  1  0
 21 44  1  0
 22 23  1  0
 22 45  1  1
 23 46  1  0
 23 47  1  0
M  END
>  <i_m_ct_stereo_status>  (47) 
1

>  <s_m_source_file>  (47) 
/var/tmp/pbs.5076255.sched01/tmp361wbqj1/0nt8_y6ui.sdf

>  <i_m_source_file_index>  (47) 
16

>  <i_lp_mmshare_version>  (47) 
48012

>  <i_f3d_flags>  (47) 
0

>  <s_epik_input>  (47) 
W0NIMl0xW0NASF0oW0NIMl0yKVtDSDJdW0NAQEhdKFtDSDJdMylbQ0gyXVtDQEhdMltDQF0oW0NASF0xMykoW0NIMl1bT0hdKVtDSDJdW0NAQEhdNFtDSDJdU1tDQEhdKE80KWM1W2NIXW5uczU=

>  <s_epik_cmdline>  (47) 
J2VwaWtfcHl0aG9uJywgJy1waHQnLCAnMi4wJywgJy1waCcsICc3LjAnLCAnLXRuJywgJzgnLCAnLW1hJywgJzIwMCcsICctaW1hZScsICc8aW5maWxlLm1hZT4nLCAnLW9tYWUnLCAnPG91dGZpbGUubWFlPic=

>  <r_lp_tautomer_probability>  (47) 
1

>  <r_epik_Ionization_Penalty>  (47) 
7.24077e-07

>  <r_epik_Ionization_Penalty_Charging>  (47) 
0

>  <r_epik_Ionization_Penalty_Neutral>  (47) 
7.24077e-07

>  <r_epik_State_Penalty>  (47) 
-0

>  <r_epik_Charging_Adjusted_Penalty>  (47) 
0

>  <i_epik_Tot_Q>  (47) 
0

>  <i_epik_Tot_abs_Q>  (47) 
0

>  <s_epik_Chemistry_Notes>  (47) 
This compound contains an acetal/aminal-like group ( X-CH(R)-Y where X, Y are N, S, or O) that may be acid/base labile, releasing an aldehyde.

>  <s_lp_Force_Field>  (47) 
OPLS3e

>  <r_lp_Energy>  (47) 
11.4462

>  <b_lp_Chiralities_Consistent>  (47) 
1

>  <s_lp_Variant>  (47) 
13:0-1

>  <s_i_glide_gridfile>  (47) 
pfpi4k_grid

>  <i_i_glide_lignum>  (47) 
16

>  <i_i_glide_rotatable_bonds>  (47) 
5

>  <r_i_docking_score>  (47) 
-1.75098

>  <r_i_glide_ligand_efficiency>  (47) 
-0.0761297

>  <r_i_glide_ligand_efficiency_sa>  (47) 
-0.216503

>  <r_i_glide_ligand_efficiency_ln>  (47) 
-0.423404

>  <r_i_glide_gscore>  (47) 
-1.75098

>  <r_i_glide_lipo>  (47) 
-0.460534

>  <r_i_glide_hbond>  (47) 
0

>  <r_i_glide_metal>  (47) 
-0

>  <r_i_glide_rewards>  (47) 
-1.00557

>  <r_i_glide_evdw>  (47) 
-10.2706

>  <r_i_glide_ecoul>  (47) 
-1.70815

>  <r_i_glide_erotb>  (47) 
0.614344

>  <r_i_glide_esite>  (47) 
-0.129473

>  <r_i_glide_emodel>  (47) 
-9.65482

>  <r_i_glide_energy>  (47) 
-11.9788

>  <r_i_glide_einternal>  (47) 
3.01895

>  <r_i_glide_intrahb_reward>  (47) 
-0

>  <i_i_glide_confnum>  (47) 
6

>  <i_i_glide_posenum>  (47) 
27

>  <r_i_glide_eff_state_penalty>  (47) 
0

>  <ligand_id>  (47) 
13

>  <original_smiles>  (47) 
OCC1(CC2CSC(c3cnns3)O2)C2CC3CC(C2)CC1C3

>  <smiles>  (47) 
[H]OC([H])([H])C1(C([H])([H])C2([H])OC([H])(c3snnc3[H])SC2([H])[H])C2([H])C([H])([H])C3([H])C([H])([H])C([H])(C2([H])[H])C([H])([H])C1([H])C3([H])[H]

$$$$
14:0:0
     RDKit          3D

 57 60  0  0  1  0  0  0  0  0999 V2000
    0.6253  -11.3493    2.8912 C   0  0  0  0  0  0  0  0  0  0  0  0
    0.5035  -10.1520    3.1042 C   0  0  0  0  0  0  0  0  0  0  0  0
    0.3557   -8.7036    3.3446 C   0  0  1  0  0  0  0  0  0  0  0  0
    0.6441   -8.0166    2.1359 O   0  0  0  0  0  0  0  0  0  0  0  0
   -1.1073   -8.2731    3.6240 C   0  0  0  0  0  0  0  0  0  0  0  0
   -0.9457   -7.0509    4.4877 C   0  0  0  0  0  0  0  0  0  0  0  0
    0.2778   -6.9585    5.0101 C   0  0  0  0  0  0  0  0  0  0  0  0
    0.8408   -5.9270    5.9876 C   0  0  2  0  0  0  0  0  0  0  0  0
   -0.1554   -4.8771    6.4958 C   0  0  0  0  0  0  0  0  0  0  0  0
   -0.1854   -3.6317    5.6503 C   0  0  0  0  0  0  0  0  0  0  0  0
    0.7538   -3.2682    4.7553 C   0  0  0  0  0  0  0  0  0  0  0  0
    0.5603   -1.9956    4.0821 C   0  0  0  0  0  0  0  0  0  0  0  0
    1.5558   -1.3683    3.4369 C   0  0  0  0  0  0  0  0  0  0  0  0
    1.3474   -0.0553    2.7041 C   0  0  0  0  0  0  0  0  0  0  0  0
    2.9670   -1.9461    3.4004 C   0  0  0  0  0  0  0  0  0  0  0  0
    3.2234   -3.0591    4.4665 C   0  0  0  0  0  0  0  0  0  0  0  0
    4.6100   -3.6618    4.1392 C   0  0  0  0  0  0  0  0  0  0  0  0
    3.3684   -2.3527    5.8485 C   0  0  0  0  0  0  0  0  0  0  0  0
    2.0185   -4.1054    4.4514 C   0  0  2  0  0  0  0  0  0  0  0  0
    1.8138   -4.6735    3.0205 C   0  0  0  0  0  0  0  0  0  0  0  0
    2.1728   -5.3066    5.4908 C   0  0  2  0  0  0  0  0  0  0  0  0
    3.1393   -6.4908    5.1657 C   0  0  0  0  0  0  0  0  0  0  0  0
    2.5942   -7.5825    4.2115 C   0  0  0  0  0  0  0  0  0  0  0  0
    1.1710   -8.0984    4.5649 C   0  0  2  0  0  0  0  0  0  0  0  0
    1.2811   -9.1074    5.7440 C   0  0  0  0  0  0  0  0  0  0  0  0
    0.7402  -12.3936    2.7097 H   0  0  0  0  0  0  0  0  0  0  0  0
    0.6141   -8.6565    1.4375 H   0  0  0  0  0  0  0  0  0  0  0  0
   -1.6944   -8.0828    2.7222 H   0  0  0  0  0  0  0  0  0  0  0  0
   -1.6260   -9.0289    4.2161 H   0  0  0  0  0  0  0  0  0  0  0  0
   -1.7714   -6.3881    4.6916 H   0  0  0  0  0  0  0  0  0  0  0  0
    1.0790   -6.5153    6.8732 H   0  0  0  0  0  0  0  0  0  0  0  0
   -1.1615   -5.2867    6.6039 H   0  0  0  0  0  0  0  0  0  0  0  0
    0.1454   -4.5549    7.4938 H   0  0  0  0  0  0  0  0  0  0  0  0
   -1.0240   -2.9755    5.8336 H   0  0  0  0  0  0  0  0  0  0  0  0
   -0.4225   -1.5460    4.0777 H   0  0  0  0  0  0  0  0  0  0  0  0
    1.6583   -0.1405    1.6610 H   0  0  0  0  0  0  0  0  0  0  0  0
    1.9256    0.7450    3.1701 H   0  0  0  0  0  0  0  0  0  0  0  0
    0.2973    0.2420    2.7183 H   0  0  0  0  0  0  0  0  0  0  0  0
    3.1365   -2.3279    2.3907 H   0  0  0  0  0  0  0  0  0  0  0  0
    3.6832   -1.1327    3.5237 H   0  0  0  0  0  0  0  0  0  0  0  0
    5.0097   -4.2427    4.9686 H   0  0  0  0  0  0  0  0  0  0  0  0
    5.3434   -2.8761    3.9466 H   0  0  0  0  0  0  0  0  0  0  0  0
    4.5961   -4.2901    3.2500 H   0  0  0  0  0  0  0  0  0  0  0  0
    3.6867   -3.0327    6.6376 H   0  0  0  0  0  0  0  0  0  0  0  0
    2.4414   -1.8876    6.1843 H   0  0  0  0  0  0  0  0  0  0  0  0
    4.1108   -1.5537    5.8128 H   0  0  0  0  0  0  0  0  0  0  0  0
    2.7095   -5.1360    2.6118 H   0  0  0  0  0  0  0  0  0  0  0  0
    1.5214   -3.9104    2.3032 H   0  0  0  0  0  0  0  0  0  0  0  0
    1.0187   -5.4131    2.9920 H   0  0  0  0  0  0  0  0  0  0  0  0
    2.5905   -4.8536    6.3877 H   0  0  0  0  0  0  0  0  0  0  0  0
    4.0942   -6.1497    4.7840 H   0  0  0  0  0  0  0  0  0  0  0  0
    3.3851   -6.9780    6.1124 H   0  0  0  0  0  0  0  0  0  0  0  0
    2.6388   -7.1932    3.2038 H   0  0  0  0  0  0  0  0  0  0  0  0
    3.2874   -8.4231    4.1976 H   0  0  0  0  0  0  0  0  0  0  0  0
    1.9033   -9.9676    5.4886 H   0  0  0  0  0  0  0  0  0  0  0  0
    0.2989   -9.4916    6.0321 H   0  0  0  0  0  0  0  0  0  0  0  0
    1.7263   -8.6602    6.6345 H   0  0  0  0  0  0  0  0  0  0  0  0
  1  2  3  0
  1 26  1  0
  3  2  1  6
  3 24  1  0
  3  4  1  0
  3  5  1  0
  4 27  1  0
  5  6  1  0
  5 28  1  0
  5 29  1  0
  6  7  2  0
  6 30  1  0
  7 24  1  0
  7  8  1  0
  8 21  1  0
  8  9  1  0
  8 31  1  1
  9 10  1  0
  9 32  1  0
  9 33  1  0
 10 11  2  0
 10 34  1  0
 11 19  1  0
 11 12  1  0
 12 13  2  0
 12 35  1  0
 13 14  1  0
 13 15  1  0
 14 36  1  0
 14 37  1  0
 14 38  1  0
 15 16  1  0
 15 39  1  0
 15 40  1  0
 16 17  1  0
 16 18  1  0
 16 19  1  0
 17 41  1  0
 17 42  1  0
 17 43  1  0
 18 44  1  0
 18 45  1  0
 18 46  1  0
 19 20  1  6
 19 21  1  0
 20 47  1  0
 20 48  1  0
 20 49  1  0
 21 22  1  0
 21 50  1  1
 22 23  1  0
 22 51  1  0
 22 52  1  0
 23 24  1  0
 23 53  1  0
 23 54  1  0
 24 25  1  1
 25 55  1  0
 25 56  1  0
 25 57  1  0
M  END
>  <i_m_ct_stereo_status>  (48) 
1

>  <s_m_source_file>  (48) 
/var/tmp/pbs.5076255.sched01/tmp361wbqj1/0nt8_y6ui.sdf

>  <i_m_source_file_index>  (48) 
17

>  <i_lp_mmshare_version>  (48) 
48012

>  <i_f3d_flags>  (48) 
0

>  <s_epik_input>  (48) 
W0NIXSNDW0NAQF0oW09IXSkoW0NIMl1bQ0hdPTEpW0NAQF0oW0NIM10pKFtDSDJdW0NIMl1bQ0BIXTIzKUMxW0NAQEhdMltDSDJdW0NIXT1DKFtDQF0zNFtDSDNdKVtDSF09QyhbQ0gzXSlbQ0gyXUM0KFtDSDNdKVtDSDNd

>  <s_epik_cmdline>  (48) 
J2VwaWtfcHl0aG9uJywgJy1waHQnLCAnMi4wJywgJy1waCcsICc3LjAnLCAnLXRuJywgJzgnLCAnLW1hJywgJzIwMCcsICctaW1hZScsICc8aW5maWxlLm1hZT4nLCAnLW9tYWUnLCAnPG91dGZpbGUubWFlPic=

>  <r_lp_tautomer_probability>  (48) 
1

>  <r_epik_Ionization_Penalty>  (48) 
7.89141e-07

>  <r_epik_Ionization_Penalty_Charging>  (48) 
0

>  <r_epik_Ionization_Penalty_Neutral>  (48) 
7.89141e-07

>  <r_epik_State_Penalty>  (48) 
-0

>  <r_epik_Charging_Adjusted_Penalty>  (48) 
0

>  <i_epik_Tot_Q>  (48) 
0

>  <i_epik_Tot_abs_Q>  (48) 
0

>  <s_lp_Force_Field>  (48) 
OPLS3e

>  <r_lp_Energy>  (48) 
46.217

>  <b_lp_Chiralities_Consistent>  (48) 
1

>  <s_lp_Variant>  (48) 
14:0-1

>  <s_i_glide_gridfile>  (48) 
pfpi4k_grid

>  <i_i_glide_lignum>  (48) 
17

>  <i_i_glide_rotatable_bonds>  (48) 
2

>  <r_i_docking_score>  (48) 
-2.83578

>  <r_i_glide_ligand_efficiency>  (48) 
-0.113431

>  <r_i_glide_ligand_efficiency_sa>  (48) 
-0.331675

>  <r_i_glide_ligand_efficiency_ln>  (48) 
-0.672164

>  <r_i_glide_gscore>  (48) 
-2.83578

>  <r_i_glide_lipo>  (48) 
-0.137043

>  <r_i_glide_hbond>  (48) 
-0.204255

>  <r_i_glide_metal>  (48) 
-0

>  <r_i_glide_rewards>  (48) 
-1.1147

>  <r_i_glide_evdw>  (48) 
-23.8394

>  <r_i_glide_ecoul>  (48) 
-2.364

>  <r_i_glide_erotb>  (48) 
0.166791

>  <r_i_glide_esite>  (48) 
0

>  <r_i_glide_emodel>  (48) 
-30.0532

>  <r_i_glide_energy>  (48) 
-26.2034

>  <r_i_glide_einternal>  (48) 
2.04201

>  <r_i_glide_intrahb_reward>  (48) 
-0

>  <i_i_glide_confnum>  (48) 
2

>  <i_i_glide_posenum>  (48) 
7

>  <r_i_glide_eff_state_penalty>  (48) 
0

>  <ligand_id>  (48) 
14

>  <original_smiles>  (48) 
C#CC1(O)CC=C2C3CC=C4C=C(C)CC(C)(C)C4(C)C3CCC21C

>  <smiles>  (48) 
[H]C#CC1(O[H])C([H])([H])C([H])=C2C3([H])C([H])([H])C([H])=C4C([H])=C(C([H])([H])[H])C([H])([H])C(C([H])([H])[H])(C([H])([H])[H])C4(C([H])([H])[H])C3([H])C([H])([H])C([H])([H])C21C([H])([H])[H]

$$$$
14:0:1
     RDKit          3D

 57 60  0  0  1  0  0  0  0  0999 V2000
   -3.1921    3.0073    3.6331 C   0  0  0  0  0  0  0  0  0  0  0  0
   -2.0325    2.6329    3.5735 C   0  0  0  0  0  0  0  0  0  0  0  0
   -0.6217    2.1956    3.4974 C   0  0  1  0  0  0  0  0  0  0  0  0
   -0.3377    1.8149    2.1621 O   0  0  0  0  0  0  0  0  0  0  0  0
    0.3961    3.3335    3.7620 C   0  0  0  0  0  0  0  0  0  0  0  0
    1.5930    2.6000    4.3096 C   0  0  0  0  0  0  0  0  0  0  0  0
    1.2807    1.3722    4.7270 C   0  0  0  0  0  0  0  0  0  0  0  0
    2.1646    0.3257    5.3993 C   0  0  2  0  0  0  0  0  0  0  0  0
    3.6005    0.7713    5.6962 C   0  0  0  0  0  0  0  0  0  0  0  0
    4.5617    0.4505    4.5824 C   0  0  0  0  0  0  0  0  0  0  0  0
    4.3388   -0.4254    3.5839 C   0  0  0  0  0  0  0  0  0  0  0  0
    5.4242   -0.6401    2.6490 C   0  0  0  0  0  0  0  0  0  0  0  0
    5.4695   -1.7003    1.8251 C   0  0  0  0  0  0  0  0  0  0  0  0
    6.5924   -1.9017    0.8238 C   0  0  0  0  0  0  0  0  0  0  0  0
    4.3798   -2.7639    1.8481 C   0  0  0  0  0  0  0  0  0  0  0  0
    3.4860   -2.7242    3.1304 C   0  0  0  0  0  0  0  0  0  0  0  0
    2.3294   -3.7154    2.8814 C   0  0  0  0  0  0  0  0  0  0  0  0
    4.3261   -3.3182    4.3008 C   0  0  0  0  0  0  0  0  0  0  0  0
    3.0260   -1.2222    3.4176 C   0  0  2  0  0  0  0  0  0  0  0  0
    2.3293   -0.6177    2.1669 C   0  0  0  0  0  0  0  0  0  0  0  0
    2.0887   -1.0544    4.6983 C   0  0  2  0  0  0  0  0  0  0  0  0
    0.5791   -1.4438    4.6102 C   0  0  0  0  0  0  0  0  0  0  0  0
   -0.3573   -0.3924    3.9743 C   0  0  0  0  0  0  0  0  0  0  0  0
   -0.1847    1.0533    4.5078 C   0  0  2  0  0  0  0  0  0  0  0  0
   -0.9133    1.1682    5.8751 C   0  0  0  0  0  0  0  0  0  0  0  0
   -4.2048    3.3330    3.6547 H   0  0  0  0  0  0  0  0  0  0  0  0
   -0.1818    2.6102    1.6566 H   0  0  0  0  0  0  0  0  0  0  0  0
    0.6429    3.9270    2.8869 H   0  0  0  0  0  0  0  0  0  0  0  0
    0.0395    4.0136    4.5376 H   0  0  0  0  0  0  0  0  0  0  0  0
    2.5622    3.0692    4.3767 H   0  0  0  0  0  0  0  0  0  0  0  0
    1.7136    0.2089    6.3813 H   0  0  0  0  0  0  0  0  0  0  0  0
    3.6581    1.8300    5.9516 H   0  0  0  0  0  0  0  0  0  0  0  0
    3.9641    0.2314    6.5713 H   0  0  0  0  0  0  0  0  0  0  0  0
    5.5200    0.9458    4.6561 H   0  0  0  0  0  0  0  0  0  0  0  0
    6.2142    0.0889    2.6021 H   0  0  0  0  0  0  0  0  0  0  0  0
    6.1923   -2.0109   -0.1854 H   0  0  0  0  0  0  0  0  0  0  0  0
    7.1633   -2.8013    1.0646 H   0  0  0  0  0  0  0  0  0  0  0  0
    7.2840   -1.0574    0.8342 H   0  0  0  0  0  0  0  0  0  0  0  0
    3.7743   -2.6325    0.9479 H   0  0  0  0  0  0  0  0  0  0  0  0
    4.8473   -3.7436    1.7461 H   0  0  0  0  0  0  0  0  0  0  0  0
    1.8050   -3.9771    3.7992 H   0  0  0  0  0  0  0  0  0  0  0  0
    2.7018   -4.6571    2.4711 H   0  0  0  0  0  0  0  0  0  0  0  0
    1.6076   -3.3324    2.1636 H   0  0  0  0  0  0  0  0  0  0  0  0
    3.7388   -3.4623    5.2078 H   0  0  0  0  0  0  0  0  0  0  0  0
    5.1792   -2.6936    4.5688 H   0  0  0  0  0  0  0  0  0  0  0  0
    4.7355   -4.2958    4.0415 H   0  0  0  0  0  0  0  0  0  0  0  0
    1.4776   -1.2003    1.8266 H   0  0  0  0  0  0  0  0  0  0  0  0
    2.9904   -0.5302    1.3055 H   0  0  0  0  0  0  0  0  0  0  0  0
    1.9822    0.3961    2.3548 H   0  0  0  0  0  0  0  0  0  0  0  0
    2.5011   -1.7347    5.4423 H   0  0  0  0  0  0  0  0  0  0  0  0
    0.4259   -2.3878    4.1017 H   0  0  0  0  0  0  0  0  0  0  0  0
    0.2269   -1.6198    5.6301 H   0  0  0  0  0  0  0  0  0  0  0  0
   -0.2009   -0.4383    2.9066 H   0  0  0  0  0  0  0  0  0  0  0  0
   -1.3952   -0.7019    4.1021 H   0  0  0  0  0  0  0  0  0  0  0  0
   -1.9812    0.9600    5.7826 H   0  0  0  0  0  0  0  0  0  0  0  0
   -0.8015    2.1714    6.2939 H   0  0  0  0  0  0  0  0  0  0  0  0
   -0.5139    0.4648    6.6085 H   0  0  0  0  0  0  0  0  0  0  0  0
  1  2  3  0
  1 26  1  0
  3  2  1  6
  3 24  1  0
  3  4  1  0
  3  5  1  0
  4 27  1  0
  5  6  1  0
  5 28  1  0
  5 29  1  0
  6  7  2  0
  6 30  1  0
  7 24  1  0
  7  8  1  0
  8 21  1  0
  8  9  1  0
  8 31  1  1
  9 10  1  0
  9 32  1  0
  9 33  1  0
 10 11  2  0
 10 34  1  0
 11 19  1  0
 11 12  1  0
 12 13  2  0
 12 35  1  0
 13 14  1  0
 13 15  1  0
 14 36  1  0
 14 37  1  0
 14 38  1  0
 15 16  1  0
 15 39  1  0
 15 40  1  0
 16 17  1  0
 16 18  1  0
 16 19  1  0
 17 41  1  0
 17 42  1  0
 17 43  1  0
 18 44  1  0
 18 45  1  0
 18 46  1  0
 19 20  1  6
 19 21  1  0
 20 47  1  0
 20 48  1  0
 20 49  1  0
 21 22  1  0
 21 50  1  1
 22 23  1  0
 22 51  1  0
 22 52  1  0
 23 24  1  0
 23 53  1  0
 23 54  1  0
 24 25  1  1
 25 55  1  0
 25 56  1  0
 25 57  1  0
M  END
>  <i_m_ct_stereo_status>  (49) 
1

>  <s_m_source_file>  (49) 
/var/tmp/pbs.5076255.sched01/tmp361wbqj1/0nt8_y6ui.sdf

>  <i_m_source_file_index>  (49) 
17

>  <i_lp_mmshare_version>  (49) 
48012

>  <i_f3d_flags>  (49) 
0

>  <s_epik_input>  (49) 
W0NIXSNDW0NAQF0oW09IXSkoW0NIMl1bQ0hdPTEpW0NAQF0oW0NIM10pKFtDSDJdW0NIMl1bQ0BIXTIzKUMxW0NAQEhdMltDSDJdW0NIXT1DKFtDQF0zNFtDSDNdKVtDSF09QyhbQ0gzXSlbQ0gyXUM0KFtDSDNdKVtDSDNd

>  <s_epik_cmdline>  (49) 
J2VwaWtfcHl0aG9uJywgJy1waHQnLCAnMi4wJywgJy1waCcsICc3LjAnLCAnLXRuJywgJzgnLCAnLW1hJywgJzIwMCcsICctaW1hZScsICc8aW5maWxlLm1hZT4nLCAnLW9tYWUnLCAnPG91dGZpbGUubWFlPic=

>  <r_lp_tautomer_probability>  (49) 
1

>  <r_epik_Ionization_Penalty>  (49) 
7.89141e-07

>  <r_epik_Ionization_Penalty_Charging>  (49) 
0

>  <r_epik_Ionization_Penalty_Neutral>  (49) 
7.89141e-07

>  <r_epik_State_Penalty>  (49) 
-0

>  <r_epik_Charging_Adjusted_Penalty>  (49) 
0

>  <i_epik_Tot_Q>  (49) 
0

>  <i_epik_Tot_abs_Q>  (49) 
0

>  <s_lp_Force_Field>  (49) 
OPLS3e

>  <r_lp_Energy>  (49) 
46.217

>  <b_lp_Chiralities_Consistent>  (49) 
1

>  <s_lp_Variant>  (49) 
14:0-1

>  <s_i_glide_gridfile>  (49) 
pfpi4k_grid

>  <i_i_glide_lignum>  (49) 
17

>  <i_i_glide_rotatable_bonds>  (49) 
2

>  <r_i_docking_score>  (49) 
-2.82795

>  <r_i_glide_ligand_efficiency>  (49) 
-0.113118

>  <r_i_glide_ligand_efficiency_sa>  (49) 
-0.330759

>  <r_i_glide_ligand_efficiency_ln>  (49) 
-0.670308

>  <r_i_glide_gscore>  (49) 
-2.82795

>  <r_i_glide_lipo>  (49) 
-0.380642

>  <r_i_glide_hbond>  (49) 
-0.16

>  <r_i_glide_metal>  (49) 
-0

>  <r_i_glide_rewards>  (49) 
-1.1147

>  <r_i_glide_evdw>  (49) 
-23.8452

>  <r_i_glide_ecoul>  (49) 
-0.980891

>  <r_i_glide_erotb>  (49) 
0.166791

>  <r_i_glide_esite>  (49) 
0

>  <r_i_glide_emodel>  (49) 
-28.6792

>  <r_i_glide_energy>  (49) 
-24.8261

>  <r_i_glide_einternal>  (49) 
1.84158

>  <r_i_glide_intrahb_reward>  (49) 
-0

>  <i_i_glide_confnum>  (49) 
2

>  <i_i_glide_posenum>  (49) 
5

>  <r_i_glide_eff_state_penalty>  (49) 
0

>  <ligand_id>  (49) 
14

>  <original_smiles>  (49) 
C#CC1(O)CC=C2C3CC=C4C=C(C)CC(C)(C)C4(C)C3CCC21C

>  <smiles>  (49) 
[H]C#CC1(O[H])C([H])([H])C([H])=C2C3([H])C([H])([H])C([H])=C4C([H])=C(C([H])([H])[H])C([H])([H])C(C([H])([H])[H])(C([H])([H])[H])C4(C([H])([H])[H])C3([H])C([H])([H])C([H])([H])C21C([H])([H])[H]

$$$$
14:0:2
     RDKit          3D

 57 60  0  0  1  0  0  0  0  0999 V2000
    4.9740   -3.8460   -3.2734 C   0  0  0  0  0  0  0  0  0  0  0  0
    4.5488   -3.6800   -2.1377 C   0  0  0  0  0  0  0  0  0  0  0  0
    4.0345   -3.5075   -0.7620 C   0  0  1  0  0  0  0  0  0  0  0  0
    2.6286   -3.2941   -0.8079 O   0  0  0  0  0  0  0  0  0  0  0  0
    4.1370   -4.7991    0.0904 C   0  0  0  0  0  0  0  0  0  0  0  0
    4.2520   -4.2759    1.4990 C   0  0  0  0  0  0  0  0  0  0  0  0
    4.5958   -2.9881    1.5255 C   0  0  0  0  0  0  0  0  0  0  0  0
    4.8812   -2.0854    2.7235 C   0  0  2  0  0  0  0  0  0  0  0  0
    4.8244   -2.7691    4.0943 C   0  0  0  0  0  0  0  0  0  0  0  0
    3.4614   -2.7074    4.7315 C   0  0  0  0  0  0  0  0  0  0  0  0
    2.4670   -1.8724    4.3761 C   0  0  0  0  0  0  0  0  0  0  0  0
    1.2492   -1.9269    5.1667 C   0  0  0  0  0  0  0  0  0  0  0  0
    0.3348   -0.9436    5.1375 C   0  0  0  0  0  0  0  0  0  0  0  0
   -0.9511   -1.0119    5.9373 C   0  0  0  0  0  0  0  0  0  0  0  0
    0.5335    0.3069    4.2863 C   0  0  0  0  0  0  0  0  0  0  0  0
    2.0051    0.5167    3.8039 C   0  0  0  0  0  0  0  0  0  0  0  0
    1.9675    1.6882    2.7929 C   0  0  0  0  0  0  0  0  0  0  0  0
    2.8295    1.0179    5.0289 C   0  0  0  0  0  0  0  0  0  0  0  0
    2.5772   -0.8537    3.2171 C   0  0  2  0  0  0  0  0  0  0  0  0
    1.6448   -1.3930    2.1016 C   0  0  0  0  0  0  0  0  0  0  0  0
    4.0744   -0.7635    2.6716 C   0  0  2  0  0  0  0  0  0  0  0  0
    4.3501   -0.1133    1.2806 C   0  0  0  0  0  0  0  0  0  0  0  0
    4.1138   -0.9987    0.0396 C   0  0  0  0  0  0  0  0  0  0  0  0
    4.7486   -2.4128    0.1307 C   0  0  2  0  0  0  0  0  0  0  0  0
    6.2695   -2.3057   -0.1786 C   0  0  0  0  0  0  0  0  0  0  0  0
    5.3208   -4.0112   -4.2670 H   0  0  0  0  0  0  0  0  0  0  0  0
    2.4427   -2.3626   -0.7814 H   0  0  0  0  0  0  0  0  0  0  0  0
    3.2879   -5.4749   -0.0408 H   0  0  0  0  0  0  0  0  0  0  0  0
    5.0461   -5.3579   -0.1323 H   0  0  0  0  0  0  0  0  0  0  0  0
    4.1099   -4.9159    2.3569 H   0  0  0  0  0  0  0  0  0  0  0  0
    5.9300   -1.8211    2.5987 H   0  0  0  0  0  0  0  0  0  0  0  0
    5.1759   -3.8011    4.0510 H   0  0  0  0  0  0  0  0  0  0  0  0
    5.4983   -2.2520    4.7773 H   0  0  0  0  0  0  0  0  0  0  0  0
    3.3269   -3.3659    5.5781 H   0  0  0  0  0  0  0  0  0  0  0  0
    1.0662   -2.7924    5.7889 H   0  0  0  0  0  0  0  0  0  0  0  0
   -1.8186   -0.8934    5.2861 H   0  0  0  0  0  0  0  0  0  0  0  0
   -0.9706   -0.2203    6.6886 H   0  0  0  0  0  0  0  0  0  0  0  0
   -1.0349   -1.9699    6.4534 H   0  0  0  0  0  0  0  0  0  0  0  0
   -0.1462    0.2331    3.4342 H   0  0  0  0  0  0  0  0  0  0  0  0
    0.1945    1.1765    4.8500 H   0  0  0  0  0  0  0  0  0  0  0  0
    2.9575    2.1011    2.6055 H   0  0  0  0  0  0  0  0  0  0  0  0
    1.3694    2.5181    3.1748 H   0  0  0  0  0  0  0  0  0  0  0  0
    1.5208    1.4118    1.8385 H   0  0  0  0  0  0  0  0  0  0  0  0
    3.8388    1.3256    4.7578 H   0  0  0  0  0  0  0  0  0  0  0  0
    2.9252    0.2636    5.8110 H   0  0  0  0  0  0  0  0  0  0  0  0
    2.3604    1.8837    5.4979 H   0  0  0  0  0  0  0  0  0  0  0  0
    1.4895   -0.6796    1.2947 H   0  0  0  0  0  0  0  0  0  0  0  0
    0.6541   -1.6560    2.4689 H   0  0  0  0  0  0  0  0  0  0  0  0
    2.0329   -2.3088    1.6643 H   0  0  0  0  0  0  0  0  0  0  0  0
    4.5982   -0.1222    3.3779 H   0  0  0  0  0  0  0  0  0  0  0  0
    3.8068    0.8145    1.1435 H   0  0  0  0  0  0  0  0  0  0  0  0
    5.4036    0.1747    1.2611 H   0  0  0  0  0  0  0  0  0  0  0  0
    3.0463   -1.0302   -0.1242 H   0  0  0  0  0  0  0  0  0  0  0  0
    4.4962   -0.4885   -0.8451 H   0  0  0  0  0  0  0  0  0  0  0  0
    6.4488   -1.9143   -1.1809 H   0  0  0  0  0  0  0  0  0  0  0  0
    6.7527   -3.2843   -0.1139 H   0  0  0  0  0  0  0  0  0  0  0  0
    6.7864   -1.6437    0.5198 H   0  0  0  0  0  0  0  0  0  0  0  0
  1  2  3  0
  1 26  1  0
  3  2  1  6
  3 24  1  0
  3  4  1  0
  3  5  1  0
  4 27  1  0
  5  6  1  0
  5 28  1  0
  5 29  1  0
  6  7  2  0
  6 30  1  0
  7 24  1  0
  7  8  1  0
  8 21  1  0
  8  9  1  0
  8 31  1  6
  9 10  1  0
  9 32  1  0
  9 33  1  0
 10 11  2  0
 10 34  1  0
 11 19  1  0
 11 12  1  0
 12 13  2  0
 12 35  1  0
 13 14  1  0
 13 15  1  0
 14 36  1  0
 14 37  1  0
 14 38  1  0
 15 16  1  0
 15 39  1  0
 15 40  1  0
 16 17  1  0
 16 18  1  0
 16 19  1  0
 17 41  1  0
 17 42  1  0
 17 43  1  0
 18 44  1  0
 18 45  1  0
 18 46  1  0
 19 20  1  6
 19 21  1  0
 20 47  1  0
 20 48  1  0
 20 49  1  0
 21 22  1  0
 21 50  1  1
 22 23  1  0
 22 51  1  0
 22 52  1  0
 23 24  1  0
 23 53  1  0
 23 54  1  0
 24 25  1  6
 25 55  1  0
 25 56  1  0
 25 57  1  0
M  END
>  <i_m_ct_stereo_status>  (50) 
1

>  <s_m_source_file>  (50) 
/var/tmp/pbs.5076255.sched01/tmp361wbqj1/0nt8_y6ui.sdf

>  <i_m_source_file_index>  (50) 
17

>  <i_lp_mmshare_version>  (50) 
48012

>  <i_f3d_flags>  (50) 
0

>  <s_epik_input>  (50) 
W0NIXSNDW0NAQF0oW09IXSkoW0NIMl1bQ0hdPTEpW0NAQF0oW0NIM10pKFtDSDJdW0NIMl1bQ0BIXTIzKUMxW0NAQEhdMltDSDJdW0NIXT1DKFtDQF0zNFtDSDNdKVtDSF09QyhbQ0gzXSlbQ0gyXUM0KFtDSDNdKVtDSDNd

>  <s_epik_cmdline>  (50) 
J2VwaWtfcHl0aG9uJywgJy1waHQnLCAnMi4wJywgJy1waCcsICc3LjAnLCAnLXRuJywgJzgnLCAnLW1hJywgJzIwMCcsICctaW1hZScsICc8aW5maWxlLm1hZT4nLCAnLW9tYWUnLCAnPG91dGZpbGUubWFlPic=

>  <r_lp_tautomer_probability>  (50) 
1

>  <r_epik_Ionization_Penalty>  (50) 
7.89141e-07

>  <r_epik_Ionization_Penalty_Charging>  (50) 
0

>  <r_epik_Ionization_Penalty_Neutral>  (50) 
7.89141e-07

>  <r_epik_State_Penalty>  (50) 
-0

>  <r_epik_Charging_Adjusted_Penalty>  (50) 
0

>  <i_epik_Tot_Q>  (50) 
0

>  <i_epik_Tot_abs_Q>  (50) 
0

>  <s_lp_Force_Field>  (50) 
OPLS3e

>  <r_lp_Energy>  (50) 
46.217

>  <b_lp_Chiralities_Consistent>  (50) 
1

>  <s_lp_Variant>  (50) 
14:0-1

>  <s_i_glide_gridfile>  (50) 
pfpi4k_grid

>  <i_i_glide_lignum>  (50) 
17

>  <i_i_glide_rotatable_bonds>  (50) 
2

>  <r_i_docking_score>  (50) 
-2.64255

>  <r_i_glide_ligand_efficiency>  (50) 
-0.105702

>  <r_i_glide_ligand_efficiency_sa>  (50) 
-0.309075

>  <r_i_glide_ligand_efficiency_ln>  (50) 
-0.626365

>  <r_i_glide_gscore>  (50) 
-2.64255

>  <r_i_glide_lipo>  (50) 
-0.318356

>  <r_i_glide_hbond>  (50) 
-0.0763424

>  <r_i_glide_metal>  (50) 
-0

>  <r_i_glide_rewards>  (50) 
-1.1147

>  <r_i_glide_evdw>  (50) 
-27.0506

>  <r_i_glide_ecoul>  (50) 
0.350566

>  <r_i_glide_erotb>  (50) 
0.166791

>  <r_i_glide_esite>  (50) 
0

>  <r_i_glide_emodel>  (50) 
-30.4898

>  <r_i_glide_energy>  (50) 
-26.7

>  <r_i_glide_einternal>  (50) 
1.42083

>  <r_i_glide_intrahb_reward>  (50) 
-0

>  <i_i_glide_confnum>  (50) 
2

>  <i_i_glide_posenum>  (50) 
15

>  <r_i_glide_eff_state_penalty>  (50) 
0

>  <ligand_id>  (50) 
14

>  <original_smiles>  (50) 
C#CC1(O)CC=C2C3CC=C4C=C(C)CC(C)(C)C4(C)C3CCC21C

>  <smiles>  (50) 
[H]C#CC1(O[H])C([H])([H])C([H])=C2C3([H])C([H])([H])C([H])=C4C([H])=C(C([H])([H])[H])C([H])([H])C(C([H])([H])[H])(C([H])([H])[H])C4(C([H])([H])[H])C3([H])C([H])([H])C([H])([H])C21C([H])([H])[H]

$$$$
15:0:0
     RDKit          3D

 69 73  0  0  1  0  0  0  0  0999 V2000
    5.1221   -4.8579   -0.4610 C   0  0  0  0  0  0  0  0  0  0  0  0
    5.1192   -3.3206   -0.3452 C   0  0  0  0  0  0  0  0  0  0  0  0
    6.1513   -2.8365   -1.3862 C   0  0  0  0  0  0  0  0  0  0  0  0
    3.7472   -2.8160   -0.7640 C   0  0  0  0  0  0  0  0  0  0  0  0
    2.7131   -3.2114    0.2672 C   0  0  0  0  0  0  0  0  0  0  0  0
    3.0255   -2.6454    1.6471 C   0  0  1  0  0  0  0  0  0  0  0  0
    1.8759   -2.9346    2.4049 O   0  0  0  0  0  0  0  0  0  0  0  0
    4.4126   -3.1082    2.2575 C   0  0  2  0  0  0  0  0  0  0  0  0
    4.3685   -4.5523    2.9378 C   0  0  2  0  0  0  0  0  0  0  0  0
    3.4703   -4.6006    4.2335 C   0  0  2  0  0  0  0  0  0  0  0  0
    3.7194   -3.3883    5.2018 C   0  0  0  0  0  0  0  0  0  0  0  0
    3.5425   -3.5210    6.4127 O   0  0  0  0  0  0  0  0  0  0  0  0
    4.0848   -1.9802    4.6493 C   0  0  1  0  0  0  0  0  0  0  0  0
    2.9203   -1.2215    4.4173 O   0  0  0  0  0  0  0  0  0  0  0  0
    4.9957   -1.4126    5.6078 O   0  0  0  0  0  0  0  0  0  0  0  0
    4.2797   -0.8393    6.7444 O   0  0  0  0  0  0  0  0  0  0  0  0
    4.9017   -2.1193    3.3477 C   0  0  2  0  0  0  0  0  0  0  0  0
    5.2814   -0.8294    2.5912 C   0  0  1  0  0  0  0  0  0  0  0  0
    6.2092   -0.0756    3.3477 O   0  0  0  0  0  0  0  0  0  0  0  0
    5.7672   -1.3103    1.2068 C   0  0  1  0  0  0  0  0  0  0  0  0
    7.1517   -1.1168    0.9629 O   0  0  0  0  0  0  0  0  0  0  0  0
    5.4690   -2.8322    1.1172 C   0  0  2  0  0  0  0  0  0  0  0  0
    3.4441   -6.0290    4.8959 C   0  0  1  0  0  0  0  0  0  0  0  0
    2.4042   -6.1849    6.0317 C   0  0  0  0  0  0  0  0  0  0  0  0
    3.1289   -7.0788    3.7962 C   0  0  0  0  0  0  0  0  0  0  0  0
    4.4930   -7.5920    3.3002 C   0  0  1  0  0  0  0  0  0  0  0  0
    4.5636   -7.6623    1.8947 O   0  0  0  0  0  0  0  0  0  0  0  0
    5.5508   -6.6846    3.9819 C   0  0  1  0  0  0  0  0  0  0  0  0
    6.8887   -7.4258    4.1812 C   0  0  0  0  0  0  0  0  0  0  0  0
    5.7278   -5.2807    3.2927 C   0  0  1  0  0  0  0  0  0  0  0  0
    6.5635   -5.4805    2.1802 O   0  0  0  0  0  0  0  0  0  0  0  0
    4.8495   -6.4885    5.3292 C   0  0  1  0  0  0  0  0  0  0  0  0
    5.5599   -5.6288    6.1951 O   0  0  0  0  0  0  0  0  0  0  0  0
    4.8102   -5.1611   -1.4625 H   0  0  0  0  0  0  0  0  0  0  0  0
    4.4390   -5.3592    0.2225 H   0  0  0  0  0  0  0  0  0  0  0  0
    6.1138   -5.2750   -0.2880 H   0  0  0  0  0  0  0  0  0  0  0  0
    6.1369   -1.7551   -1.4968 H   0  0  0  0  0  0  0  0  0  0  0  0
    5.9284   -3.2496   -2.3704 H   0  0  0  0  0  0  0  0  0  0  0  0
    7.1630   -3.1458   -1.1250 H   0  0  0  0  0  0  0  0  0  0  0  0
    3.7390   -1.7303   -0.8651 H   0  0  0  0  0  0  0  0  0  0  0  0
    3.4538   -3.2000   -1.7357 H   0  0  0  0  0  0  0  0  0  0  0  0
    1.7927   -2.7625   -0.0727 H   0  0  0  0  0  0  0  0  0  0  0  0
    2.5507   -4.2855    0.3082 H   0  0  0  0  0  0  0  0  0  0  0  0
    3.0260   -1.5679    1.5259 H   0  0  0  0  0  0  0  0  0  0  0  0
    1.1860   -2.3661    2.1079 H   0  0  0  0  0  0  0  0  0  0  0  0
    3.8712   -5.1566    2.1934 H   0  0  0  0  0  0  0  0  0  0  0  0
    2.4471   -4.4502    3.9435 H   0  0  0  0  0  0  0  0  0  0  0  0
    3.1774   -0.3728    4.1114 H   0  0  0  0  0  0  0  0  0  0  0  0
    4.0788   -1.6146    7.2604 H   0  0  0  0  0  0  0  0  0  0  0  0
    5.8522   -2.5182    3.7091 H   0  0  0  0  0  0  0  0  0  0  0  0
    4.4093   -0.1839    2.4490 H   0  0  0  0  0  0  0  0  0  0  0  0
    6.8753    0.2934    2.7782 H   0  0  0  0  0  0  0  0  0  0  0  0
    5.2396   -0.7392    0.4480 H   0  0  0  0  0  0  0  0  0  0  0  0
    7.3906   -0.2054    1.1514 H   0  0  0  0  0  0  0  0  0  0  0  0
    6.4025   -3.2965    1.4002 H   0  0  0  0  0  0  0  0  0  0  0  0
    2.2310   -7.2346    6.2750 H   0  0  0  0  0  0  0  0  0  0  0  0
    1.4433   -5.7546    5.7531 H   0  0  0  0  0  0  0  0  0  0  0  0
    2.7236   -5.7259    6.9672 H   0  0  0  0  0  0  0  0  0  0  0  0
    2.5812   -7.9302    4.2113 H   0  0  0  0  0  0  0  0  0  0  0  0
    2.4942   -6.6783    3.0063 H   0  0  0  0  0  0  0  0  0  0  0  0
    4.6222   -8.6122    3.6676 H   0  0  0  0  0  0  0  0  0  0  0  0
    4.0111   -8.3723    1.6083 H   0  0  0  0  0  0  0  0  0  0  0  0
    7.6307   -6.8015    4.6807 H   0  0  0  0  0  0  0  0  0  0  0  0
    7.3133   -7.7629    3.2336 H   0  0  0  0  0  0  0  0  0  0  0  0
    6.7520   -8.3206    4.7948 H   0  0  0  0  0  0  0  0  0  0  0  0
    6.2791   -4.6531    3.9862 H   0  0  0  0  0  0  0  0  0  0  0  0
    7.3453   -5.9179    2.4704 H   0  0  0  0  0  0  0  0  0  0  0  0
    4.7623   -7.4518    5.8449 H   0  0  0  0  0  0  0  0  0  0  0  0
    6.3503   -6.0667    6.4669 H   0  0  0  0  0  0  0  0  0  0  0  0
  1  2  1  0
  1 34  1  0
  1 35  1  0
  1 36  1  0
  2 22  1  0
  2  3  1  0
  2  4  1  0
  3 37  1  0
  3 38  1  0
  3 39  1  0
  4  5  1  0
  4 40  1  0
  4 41  1  0
  5  6  1  0
  5 42  1  0
  5 43  1  0
  6  7  1  0
  8  6  1  6
  6 44  1  6
  7 45  1  0
  8 17  1  0
  8 22  1  0
  8  9  1  0
  9 30  1  0
  9 10  1  0
  9 46  1  6
 10 11  1  0
 10 23  1  0
 10 47  1  6
 11 12  2  0
 11 13  1  0
 13 14  1  6
 13 15  1  0
 13 17  1  0
 14 48  1  0
 15 16  1  0
 16 49  1  0
 17 18  1  0
 17 50  1  1
 18 19  1  0
 18 20  1  0
 18 51  1  6
 19 52  1  0
 20 21  1  0
 20 22  1  0
 20 53  1  6
 21 54  1  0
 22 55  1  1
 23 32  1  0
 23 24  1  1
 23 25  1  0
 24 56  1  0
 24 57  1  0
 24 58  1  0
 25 26  1  0
 25 59  1  0
 25 60  1  0
 26 27  1  0
 26 28  1  0
 26 61  1  1
 27 62  1  0
 28 29  1  1
 28 30  1  0
 28 32  1  0
 29 63  1  0
 29 64  1  0
 29 65  1  0
 30 31  1  0
 30 66  1  1
 31 67  1  0
 32 33  1  0
 32 68  1  1
 33 69  1  0
M  END
>  <i_m_ct_stereo_status>  (51) 
1

>  <s_m_source_file>  (51) 
/var/tmp/pbs.5076255.sched01/tmp361wbqj1/0nt8_y6ui.sdf

>  <i_m_source_file_index>  (51) 
18

>  <i_lp_mmshare_version>  (51) 
48012

>  <i_f3d_flags>  (51) 
0

>  <s_epik_input>  (51) 
W09IXVtDQEBIXTFbQ0gyXVtDSDJdQyhbQ0gzXSkoW0NIM10pW0NASF0yW0NASF0oW09IXSlbQ0BIXShbT0hdKVtDQEhdM1tDQF0oW09IXSkoT1tPSF0pQyg9TylbQ0BASF0oW0NASF00W0NAXTEyMylbQ0BAXTUoW0NIM10pW0NIMl1bQ0BASF0oW09IXSlbQ0BAXShbQ0gzXSkoW0NASF00W09IXSlbQ0BIXTVbT0hd

>  <s_epik_cmdline>  (51) 
J2VwaWtfcHl0aG9uJywgJy1waHQnLCAnMi4wJywgJy1waCcsICc3LjAnLCAnLXRuJywgJzgnLCAnLW1hJywgJzIwMCcsICctaW1hZScsICc8aW5maWxlLm1hZT4nLCAnLW9tYWUnLCAnPG91dGZpbGUubWFlPic=

>  <r_lp_tautomer_probability>  (51) 
1

>  <r_epik_Ionization_Penalty>  (51) 
0.000115527

>  <r_epik_Ionization_Penalty_Charging>  (51) 
0

>  <r_epik_Ionization_Penalty_Neutral>  (51) 
0.000115527

>  <r_epik_State_Penalty>  (51) 
-0

>  <r_epik_Charging_Adjusted_Penalty>  (51) 
0

>  <i_epik_Tot_Q>  (51) 
0

>  <i_epik_Tot_abs_Q>  (51) 
0

>  <s_lp_Force_Field>  (51) 
OPLS3e

>  <r_lp_Energy>  (51) 
85.7862

>  <b_lp_Chiralities_Consistent>  (51) 
1

>  <s_lp_Variant>  (51) 
15:0-1

>  <s_i_glide_gridfile>  (51) 
pfpi4k_grid

>  <i_i_glide_lignum>  (51) 
18

>  <i_i_glide_rotatable_bonds>  (51) 
9

>  <r_i_docking_score>  (51) 
-3.40943

>  <r_i_glide_ligand_efficiency>  (51) 
-0.103316

>  <r_i_glide_ligand_efficiency_sa>  (51) 
-0.33139

>  <r_i_glide_ligand_efficiency_ln>  (51) 
-0.758239

>  <r_i_glide_gscore>  (51) 
-3.40943

>  <r_i_glide_lipo>  (51) 
-0.460058

>  <r_i_glide_hbond>  (51) 
0

>  <r_i_glide_metal>  (51) 
-0

>  <r_i_glide_rewards>  (51) 
-0.687323

>  <r_i_glide_evdw>  (51) 
-18.937

>  <r_i_glide_ecoul>  (51) 
-9.37172

>  <r_i_glide_erotb>  (51) 
0.0905618

>  <r_i_glide_esite>  (51) 
0

>  <r_i_glide_emodel>  (51) 
-35.0694

>  <r_i_glide_energy>  (51) 
-28.3088

>  <r_i_glide_einternal>  (51) 
5.95243

>  <r_i_glide_intrahb_reward>  (51) 
-0.5

>  <i_i_glide_confnum>  (51) 
3

>  <i_i_glide_posenum>  (51) 
11

>  <r_i_glide_eff_state_penalty>  (51) 
0

>  <ligand_id>  (51) 
15

>  <original_smiles>  (51) 
CC1(C)CCC(O)C23C4C(C(=O)C(O)(OO)C2C(O)C(O)C13)C1(C)CC(O)C(C)(C4O)C1O

>  <smiles>  (51) 
[H]OOC1(O[H])C(=O)C2([H])C([H])(C([H])(O[H])C3(C([H])([H])[H])C([H])(O[H])C([H])([H])C2(C([H])([H])[H])C3([H])O[H])C23C([H])(O[H])C([H])([H])C([H])([H])C(C([H])([H])[H])(C([H])([H])[H])C2([H])C([H])(O[H])C([H])(O[H])C13[H]

$$$$
15:0:1
     RDKit          3D

 69 73  0  0  1  0  0  0  0  0999 V2000
    5.4115   -5.0635   -0.2984 C   0  0  0  0  0  0  0  0  0  0  0  0
    5.2420   -3.5341   -0.1864 C   0  0  0  0  0  0  0  0  0  0  0  0
    6.2566   -2.9387   -1.1890 C   0  0  0  0  0  0  0  0  0  0  0  0
    3.8309   -3.1771   -0.6537 C   0  0  0  0  0  0  0  0  0  0  0  0
    2.7887   -3.6729    0.3311 C   0  0  0  0  0  0  0  0  0  0  0  0
    3.0196   -3.0835    1.7274 C   0  0  1  0  0  0  0  0  0  0  0  0
    1.8893   -3.4713    2.4773 O   0  0  0  0  0  0  0  0  0  0  0  0
    4.4315   -3.3860    2.3922 C   0  0  2  0  0  0  0  0  0  0  0  0
    4.5140   -4.8263    3.0845 C   0  0  2  0  0  0  0  0  0  0  0  0
    3.5846   -4.9595    4.3556 C   0  0  2  0  0  0  0  0  0  0  0  0
    3.6636   -3.7314    5.3227 C   0  0  0  0  0  0  0  0  0  0  0  0
    3.4227   -3.8420    6.5234 O   0  0  0  0  0  0  0  0  0  0  0  0
    3.9394   -2.3101    4.7628 C   0  0  1  0  0  0  0  0  0  0  0  0
    2.6943   -1.7182    4.4693 O   0  0  0  0  0  0  0  0  0  0  0  0
    4.5940   -1.5351    5.7838 O   0  0  0  0  0  0  0  0  0  0  0  0
    5.8455   -2.1561    6.2234 O   0  0  0  0  0  0  0  0  0  0  0  0
    4.8175   -2.3509    3.4817 C   0  0  2  0  0  0  0  0  0  0  0  0
    5.0275   -1.0266    2.7286 C   0  0  1  0  0  0  0  0  0  0  0  0
    5.8424   -0.1123    3.4318 O   0  0  0  0  0  0  0  0  0  0  0  0
    5.6164   -1.4497    1.3663 C   0  0  1  0  0  0  0  0  0  0  0  0
    6.9700   -1.0732    1.1778 O   0  0  0  0  0  0  0  0  0  0  0  0
    5.4895   -3.0020    1.2811 C   0  0  2  0  0  0  0  0  0  0  0  0
    3.6800   -6.3958    5.0157 C   0  0  1  0  0  0  0  0  0  0  0  0
    2.6192   -6.6650    6.1111 C   0  0  0  0  0  0  0  0  0  0  0  0
    3.5279   -7.4784    3.9058 C   0  0  0  0  0  0  0  0  0  0  0  0
    4.9633   -7.8302    3.4564 C   0  0  1  0  0  0  0  0  0  0  0  0
    5.1402   -7.8710    2.0538 O   0  0  0  0  0  0  0  0  0  0  0  0
    5.8789   -6.8197    4.1865 C   0  0  1  0  0  0  0  0  0  0  0  0
    7.2816   -7.4179    4.4411 C   0  0  0  0  0  0  0  0  0  0  0  0
    5.9266   -5.4092    3.4883 C   0  0  1  0  0  0  0  0  0  0  0  0
    6.8220   -5.5170    2.4037 O   0  0  0  0  0  0  0  0  0  0  0  0
    5.1081   -6.7011    5.5076 C   0  0  1  0  0  0  0  0  0  0  0  0
    5.6804   -5.7686    6.4026 O   0  0  0  0  0  0  0  0  0  0  0  0
    5.1307   -5.4053   -1.2979 H   0  0  0  0  0  0  0  0  0  0  0  0
    4.7754   -5.6237    0.3773 H   0  0  0  0  0  0  0  0  0  0  0  0
    6.4441   -5.3744   -0.1194 H   0  0  0  0  0  0  0  0  0  0  0  0
    6.1334   -1.8640   -1.3045 H   0  0  0  0  0  0  0  0  0  0  0  0
    6.1197   -3.3780   -2.1775 H   0  0  0  0  0  0  0  0  0  0  0  0
    7.2860   -3.1344   -0.8875 H   0  0  0  0  0  0  0  0  0  0  0  0
    3.7278   -2.1019   -0.7617 H   0  0  0  0  0  0  0  0  0  0  0  0
    3.6341   -3.5914   -1.6399 H   0  0  0  0  0  0  0  0  0  0  0  0
    1.8252   -3.3426   -0.0493 H   0  0  0  0  0  0  0  0  0  0  0  0
    2.7530   -4.7576    0.3685 H   0  0  0  0  0  0  0  0  0  0  0  0
    2.9099   -2.0101    1.5962 H   0  0  0  0  0  0  0  0  0  0  0  0
    1.2252   -2.8077    2.3632 H   0  0  0  0  0  0  0  0  0  0  0  0
    4.0904   -5.4846    2.3338 H   0  0  0  0  0  0  0  0  0  0  0  0
    2.5583   -4.9392    4.0271 H   0  0  0  0  0  0  0  0  0  0  0  0
    2.8455   -0.8385    4.1537 H   0  0  0  0  0  0  0  0  0  0  0  0
    5.5413   -2.6871    6.9501 H   0  0  0  0  0  0  0  0  0  0  0  0
    5.8178   -2.6462    3.8068 H   0  0  0  0  0  0  0  0  0  0  0  0
    4.0788   -0.5163    2.5581 H   0  0  0  0  0  0  0  0  0  0  0  0
    5.4104    0.1359    4.2352 H   0  0  0  0  0  0  0  0  0  0  0  0
    5.0437   -0.9440    0.5921 H   0  0  0  0  0  0  0  0  0  0  0  0
    7.0998   -0.1840    1.5194 H   0  0  0  0  0  0  0  0  0  0  0  0
    6.4641   -3.3538    1.5999 H   0  0  0  0  0  0  0  0  0  0  0  0
    2.5499   -7.7276    6.3541 H   0  0  0  0  0  0  0  0  0  0  0  0
    1.6276   -6.3490    5.7928 H   0  0  0  0  0  0  0  0  0  0  0  0
    2.8540   -6.1653    7.0517 H   0  0  0  0  0  0  0  0  0  0  0  0
    3.0689   -8.3864    4.2988 H   0  0  0  0  0  0  0  0  0  0  0  0
    2.8752   -7.1571    3.0920 H   0  0  0  0  0  0  0  0  0  0  0  0
    5.1850   -8.8347    3.8233 H   0  0  0  0  0  0  0  0  0  0  0  0
    4.7374   -7.1051    1.6790 H   0  0  0  0  0  0  0  0  0  0  0  0
    7.9318   -6.7119    4.9591 H   0  0  0  0  0  0  0  0  0  0  0  0
    7.7750   -7.6950    3.5086 H   0  0  0  0  0  0  0  0  0  0  0  0
    7.2248   -8.3218    5.0489 H   0  0  0  0  0  0  0  0  0  0  0  0
    6.3865   -4.7245    4.1948 H   0  0  0  0  0  0  0  0  0  0  0  0
    6.5387   -6.2196    1.8385 H   0  0  0  0  0  0  0  0  0  0  0  0
    5.1051   -7.6671    6.0219 H   0  0  0  0  0  0  0  0  0  0  0  0
    6.5092   -6.1149    6.6928 H   0  0  0  0  0  0  0  0  0  0  0  0
  1  2  1  0
  1 34  1  0
  1 35  1  0
  1 36  1  0
  2 22  1  0
  2  3  1  0
  2  4  1  0
  3 37  1  0
  3 38  1  0
  3 39  1  0
  4  5  1  0
  4 40  1  0
  4 41  1  0
  5  6  1  0
  5 42  1  0
  5 43  1  0
  6  7  1  0
  8  6  1  6
  6 44  1  6
  7 45  1  0
  8 17  1  0
  8 22  1  0
  8  9  1  0
  9 30  1  0
  9 10  1  0
  9 46  1  6
 10 11  1  0
 10 23  1  0
 10 47  1  6
 11 12  2  0
 11 13  1  0
 13 14  1  6
 13 15  1  0
 13 17  1  0
 14 48  1  0
 15 16  1  0
 16 49  1  0
 17 18  1  0
 17 50  1  1
 18 19  1  0
 18 20  1  0
 18 51  1  6
 19 52  1  0
 20 21  1  0
 20 22  1  0
 20 53  1  6
 21 54  1  0
 22 55  1  1
 23 32  1  0
 23 24  1  1
 23 25  1  0
 24 56  1  0
 24 57  1  0
 24 58  1  0
 25 26  1  0
 25 59  1  0
 25 60  1  0
 26 27  1  0
 26 28  1  0
 26 61  1  1
 27 62  1  0
 28 29  1  1
 28 30  1  0
 28 32  1  0
 29 63  1  0
 29 64  1  0
 29 65  1  0
 30 31  1  0
 30 66  1  1
 31 67  1  0
 32 33  1  0
 32 68  1  1
 33 69  1  0
M  END
>  <i_m_ct_stereo_status>  (52) 
1

>  <s_m_source_file>  (52) 
/var/tmp/pbs.5076255.sched01/tmp361wbqj1/0nt8_y6ui.sdf

>  <i_m_source_file_index>  (52) 
18

>  <i_lp_mmshare_version>  (52) 
48012

>  <i_f3d_flags>  (52) 
0

>  <s_epik_input>  (52) 
W09IXVtDQEBIXTFbQ0gyXVtDSDJdQyhbQ0gzXSkoW0NIM10pW0NASF0yW0NASF0oW09IXSlbQ0BIXShbT0hdKVtDQEhdM1tDQF0oW09IXSkoT1tPSF0pQyg9TylbQ0BASF0oW0NASF00W0NAXTEyMylbQ0BAXTUoW0NIM10pW0NIMl1bQ0BASF0oW09IXSlbQ0BAXShbQ0gzXSkoW0NASF00W09IXSlbQ0BIXTVbT0hd

>  <s_epik_cmdline>  (52) 
J2VwaWtfcHl0aG9uJywgJy1waHQnLCAnMi4wJywgJy1waCcsICc3LjAnLCAnLXRuJywgJzgnLCAnLW1hJywgJzIwMCcsICctaW1hZScsICc8aW5maWxlLm1hZT4nLCAnLW9tYWUnLCAnPG91dGZpbGUubWFlPic=

>  <r_lp_tautomer_probability>  (52) 
1

>  <r_epik_Ionization_Penalty>  (52) 
0.000115527

>  <r_epik_Ionization_Penalty_Charging>  (52) 
0

>  <r_epik_Ionization_Penalty_Neutral>  (52) 
0.000115527

>  <r_epik_State_Penalty>  (52) 
-0

>  <r_epik_Charging_Adjusted_Penalty>  (52) 
0

>  <i_epik_Tot_Q>  (52) 
0

>  <i_epik_Tot_abs_Q>  (52) 
0

>  <s_lp_Force_Field>  (52) 
OPLS3e

>  <r_lp_Energy>  (52) 
85.7862

>  <b_lp_Chiralities_Consistent>  (52) 
1

>  <s_lp_Variant>  (52) 
15:0-1

>  <s_i_glide_gridfile>  (52) 
pfpi4k_grid

>  <i_i_glide_lignum>  (52) 
18

>  <i_i_glide_rotatable_bonds>  (52) 
9

>  <r_i_docking_score>  (52) 
-3.01206

>  <r_i_glide_ligand_efficiency>  (52) 
-0.0912746

>  <r_i_glide_ligand_efficiency_sa>  (52) 
-0.292767

>  <r_i_glide_ligand_efficiency_ln>  (52) 
-0.669867

>  <r_i_glide_gscore>  (52) 
-3.01206

>  <r_i_glide_lipo>  (52) 
-0.492694

>  <r_i_glide_hbond>  (52) 
0

>  <r_i_glide_metal>  (52) 
-0

>  <r_i_glide_rewards>  (52) 
-0.687323

>  <r_i_glide_evdw>  (52) 
-19.7451

>  <r_i_glide_ecoul>  (52) 
-6.2357

>  <r_i_glide_erotb>  (52) 
0.0905618

>  <r_i_glide_esite>  (52) 
0

>  <r_i_glide_emodel>  (52) 
-34.494

>  <r_i_glide_energy>  (52) 
-25.9808

>  <r_i_glide_einternal>  (52) 
2.12744

>  <r_i_glide_intrahb_reward>  (52) 
-0.5

>  <i_i_glide_confnum>  (52) 
4

>  <i_i_glide_posenum>  (52) 
3

>  <r_i_glide_eff_state_penalty>  (52) 
0

>  <ligand_id>  (52) 
15

>  <original_smiles>  (52) 
CC1(C)CCC(O)C23C4C(C(=O)C(O)(OO)C2C(O)C(O)C13)C1(C)CC(O)C(C)(C4O)C1O

>  <smiles>  (52) 
[H]OOC1(O[H])C(=O)C2([H])C([H])(C([H])(O[H])C3(C([H])([H])[H])C([H])(O[H])C([H])([H])C2(C([H])([H])[H])C3([H])O[H])C23C([H])(O[H])C([H])([H])C([H])([H])C(C([H])([H])[H])(C([H])([H])[H])C2([H])C([H])(O[H])C([H])(O[H])C13[H]

$$$$
15:0:2
     RDKit          3D

 69 73  0  0  1  0  0  0  0  0999 V2000
    4.8330   -4.2612   -1.2426 C   0  0  0  0  0  0  0  0  0  0  0  0
    4.7723   -2.8170   -0.7838 C   0  0  0  0  0  0  0  0  0  0  0  0
    5.5719   -2.0413   -1.8490 C   0  0  0  0  0  0  0  0  0  0  0  0
    3.3223   -2.3802   -0.8680 C   0  0  0  0  0  0  0  0  0  0  0  0
    2.5235   -3.0775    0.2072 C   0  0  0  0  0  0  0  0  0  0  0  0
    3.0112   -2.7830    1.6132 C   0  0  1  0  0  0  0  0  0  0  0  0
    2.0105   -3.2863    2.4544 O   0  0  0  0  0  0  0  0  0  0  0  0
    4.5047   -3.2185    1.8893 C   0  0  2  0  0  0  0  0  0  0  0  0
    4.6477   -4.7691    2.2222 C   0  0  2  0  0  0  0  0  0  0  0  0
    3.9852   -5.1652    3.5954 C   0  0  2  0  0  0  0  0  0  0  0  0
    4.3257   -4.1701    4.7543 C   0  0  0  0  0  0  0  0  0  0  0  0
    4.4202   -4.5723    5.8971 O   0  0  0  0  0  0  0  0  0  0  0  0
    4.4995   -2.6520    4.4671 C   0  0  1  0  0  0  0  0  0  0  0  0
    3.2578   -1.9792    4.5813 O   0  0  0  0  0  0  0  0  0  0  0  0
    5.5096   -2.2015    5.3998 O   0  0  0  0  0  0  0  0  0  0  0  0
    4.9338   -1.9508    6.7255 O   0  0  0  0  0  0  0  0  0  0  0  0
    5.1116   -2.4280    3.0709 C   0  0  2  0  0  0  0  0  0  0  0  0
    5.2560   -0.9847    2.5559 C   0  0  1  0  0  0  0  0  0  0  0  0
    6.2087   -0.2519    3.2980 O   0  0  0  0  0  0  0  0  0  0  0  0
    5.5347   -1.1203    1.0453 C   0  0  1  0  0  0  0  0  0  0  0  0
    6.8569   -0.8239    0.6455 O   0  0  0  0  0  0  0  0  0  0  0  0
    5.3256   -2.6171    0.6818 C   0  0  2  0  0  0  0  0  0  0  0  0
    4.1523   -6.6950    3.9331 C   0  0  1  0  0  0  0  0  0  0  0  0
    3.3253   -7.1831    5.1510 C   0  0  0  0  0  0  0  0  0  0  0  0
    3.7154   -7.5235    2.6897 C   0  0  0  0  0  0  0  0  0  0  0  0
    4.9987   -7.7867    1.8847 C   0  0  1  0  0  0  0  0  0  0  0  0
    4.8273   -7.5580    0.5000 O   0  0  0  0  0  0  0  0  0  0  0  0
    6.1069   -6.9559    2.5806 C   0  0  1  0  0  0  0  0  0  0  0  0
    7.4982   -7.5995    2.4070 C   0  0  0  0  0  0  0  0  0  0  0  0
    6.0867   -5.4329    2.1789 C   0  0  1  0  0  0  0  0  0  0  0  0
    6.7304   -5.3192    0.9390 O   0  0  0  0  0  0  0  0  0  0  0  0
    5.6382   -7.1064    4.0340 C   0  0  1  0  0  0  0  0  0  0  0  0
    6.4413   -6.4412    4.9795 O   0  0  0  0  0  0  0  0  0  0  0  0
    4.3828   -4.3507   -2.2248 H   0  0  0  0  0  0  0  0  0  0  0  0
    4.3135   -4.9643   -0.6043 H   0  0  0  0  0  0  0  0  0  0  0  0
    5.8546   -4.5962   -1.3433 H   0  0  0  0  0  0  0  0  0  0  0  0
    5.4701   -0.9667   -1.7237 H   0  0  0  0  0  0  0  0  0  0  0  0
    5.1996   -2.2708   -2.8465 H   0  0  0  0  0  0  0  0  0  0  0  0
    6.6254   -2.3111   -1.8234 H   0  0  0  0  0  0  0  0  0  0  0  0
    3.2306   -1.2993   -0.7297 H   0  0  0  0  0  0  0  0  0  0  0  0
    2.8880   -2.5844   -1.8495 H   0  0  0  0  0  0  0  0  0  0  0  0
    1.5352   -2.6890    0.1568 H   0  0  0  0  0  0  0  0  0  0  0  0
    2.4239   -4.1573    0.0200 H   0  0  0  0  0  0  0  0  0  0  0  0
    2.9163   -1.7011    1.7013 H   0  0  0  0  0  0  0  0  0  0  0  0
    2.0775   -4.2410    2.4849 H   0  0  0  0  0  0  0  0  0  0  0  0
    4.0486   -5.2475    1.4490 H   0  0  0  0  0  0  0  0  0  0  0  0
    2.9162   -5.0699    3.5247 H   0  0  0  0  0  0  0  0  0  0  0  0
    3.4100   -1.0529    4.4131 H   0  0  0  0  0  0  0  0  0  0  0  0
    4.9346   -2.8377    7.0935 H   0  0  0  0  0  0  0  0  0  0  0  0
    6.1353   -2.7788    3.1596 H   0  0  0  0  0  0  0  0  0  0  0  0
    4.3151   -0.4453    2.6836 H   0  0  0  0  0  0  0  0  0  0  0  0
    6.9804   -0.0649    2.7843 H   0  0  0  0  0  0  0  0  0  0  0  0
    4.8562   -0.4517    0.5105 H   0  0  0  0  0  0  0  0  0  0  0  0
    7.1252    0.0260    0.9908 H   0  0  0  0  0  0  0  0  0  0  0  0
    6.3239   -3.0369    0.7014 H   0  0  0  0  0  0  0  0  0  0  0  0
    3.2574   -8.2710    5.1802 H   0  0  0  0  0  0  0  0  0  0  0  0
    2.3061   -6.7987    5.1232 H   0  0  0  0  0  0  0  0  0  0  0  0
    3.7693   -6.9013    6.1039 H   0  0  0  0  0  0  0  0  0  0  0  0
    3.3036   -8.4908    2.9856 H   0  0  0  0  0  0  0  0  0  0  0  0
    2.9250   -7.0420    2.1126 H   0  0  0  0  0  0  0  0  0  0  0  0
    5.2444   -8.8487    1.9888 H   0  0  0  0  0  0  0  0  0  0  0  0
    4.4789   -6.6760    0.3789 H   0  0  0  0  0  0  0  0  0  0  0  0
    8.2746   -7.0263    2.9137 H   0  0  0  0  0  0  0  0  0  0  0  0
    7.7785   -7.6849    1.3578 H   0  0  0  0  0  0  0  0  0  0  0  0
    7.5184   -8.6070    2.8243 H   0  0  0  0  0  0  0  0  0  0  0  0
    6.7348   -4.9052    2.8769 H   0  0  0  0  0  0  0  0  0  0  0  0
    6.2691   -5.8587    0.2947 H   0  0  0  0  0  0  0  0  0  0  0  0
    5.6862   -8.1624    4.3254 H   0  0  0  0  0  0  0  0  0  0  0  0
    6.4062   -5.4980    4.8146 H   0  0  0  0  0  0  0  0  0  0  0  0
  1  2  1  0
  1 34  1  0
  1 35  1  0
  1 36  1  0
  2 22  1  0
  2  3  1  0
  2  4  1  0
  3 37  1  0
  3 38  1  0
  3 39  1  0
  4  5  1  0
  4 40  1  0
  4 41  1  0
  5  6  1  0
  5 42  1  0
  5 43  1  0
  6  7  1  0
  8  6  1  6
  6 44  1  6
  7 45  1  0
  8 17  1  0
  8 22  1  0
  8  9  1  0
  9 30  1  0
  9 10  1  0
  9 46  1  6
 10 11  1  0
 10 23  1  0
 10 47  1  6
 11 12  2  0
 11 13  1  0
 13 14  1  6
 13 15  1  0
 13 17  1  0
 14 48  1  0
 15 16  1  0
 16 49  1  0
 17 18  1  0
 17 50  1  1
 18 19  1  0
 18 20  1  0
 18 51  1  6
 19 52  1  0
 20 21  1  0
 20 22  1  0
 20 53  1  6
 21 54  1  0
 22 55  1  6
 23 32  1  0
 23 24  1  1
 23 25  1  0
 24 56  1  0
 24 57  1  0
 24 58  1  0
 25 26  1  0
 25 59  1  0
 25 60  1  0
 26 27  1  0
 26 28  1  0
 26 61  1  6
 27 62  1  0
 28 29  1  1
 28 30  1  0
 28 32  1  0
 29 63  1  0
 29 64  1  0
 29 65  1  0
 30 31  1  0
 30 66  1  1
 31 67  1  0
 32 33  1  0
 32 68  1  1
 33 69  1  0
M  END
>  <i_m_ct_stereo_status>  (53) 
1

>  <s_m_source_file>  (53) 
/var/tmp/pbs.5076255.sched01/tmp361wbqj1/0nt8_y6ui.sdf

>  <i_m_source_file_index>  (53) 
18

>  <i_lp_mmshare_version>  (53) 
48012

>  <i_f3d_flags>  (53) 
0

>  <s_epik_input>  (53) 
W09IXVtDQEBIXTFbQ0gyXVtDSDJdQyhbQ0gzXSkoW0NIM10pW0NASF0yW0NASF0oW09IXSlbQ0BIXShbT0hdKVtDQEhdM1tDQF0oW09IXSkoT1tPSF0pQyg9TylbQ0BASF0oW0NASF00W0NAXTEyMylbQ0BAXTUoW0NIM10pW0NIMl1bQ0BASF0oW09IXSlbQ0BAXShbQ0gzXSkoW0NASF00W09IXSlbQ0BIXTVbT0hd

>  <s_epik_cmdline>  (53) 
J2VwaWtfcHl0aG9uJywgJy1waHQnLCAnMi4wJywgJy1waCcsICc3LjAnLCAnLXRuJywgJzgnLCAnLW1hJywgJzIwMCcsICctaW1hZScsICc8aW5maWxlLm1hZT4nLCAnLW9tYWUnLCAnPG91dGZpbGUubWFlPic=

>  <r_lp_tautomer_probability>  (53) 
1

>  <r_epik_Ionization_Penalty>  (53) 
0.000115527

>  <r_epik_Ionization_Penalty_Charging>  (53) 
0

>  <r_epik_Ionization_Penalty_Neutral>  (53) 
0.000115527

>  <r_epik_State_Penalty>  (53) 
-0

>  <r_epik_Charging_Adjusted_Penalty>  (53) 
0

>  <i_epik_Tot_Q>  (53) 
0

>  <i_epik_Tot_abs_Q>  (53) 
0

>  <s_lp_Force_Field>  (53) 
OPLS3e

>  <r_lp_Energy>  (53) 
85.7862

>  <b_lp_Chiralities_Consistent>  (53) 
1

>  <s_lp_Variant>  (53) 
15:0-1

>  <s_i_glide_gridfile>  (53) 
pfpi4k_grid

>  <i_i_glide_lignum>  (53) 
18

>  <i_i_glide_rotatable_bonds>  (53) 
9

>  <r_i_docking_score>  (53) 
-2.98841

>  <r_i_glide_ligand_efficiency>  (53) 
-0.0905579

>  <r_i_glide_ligand_efficiency_sa>  (53) 
-0.290467

>  <r_i_glide_ligand_efficiency_ln>  (53) 
-0.664607

>  <r_i_glide_gscore>  (53) 
-2.98841

>  <r_i_glide_lipo>  (53) 
-0.466496

>  <r_i_glide_hbond>  (53) 
0

>  <r_i_glide_metal>  (53) 
-0

>  <r_i_glide_rewards>  (53) 
-0.711259

>  <r_i_glide_evdw>  (53) 
-17.6262

>  <r_i_glide_ecoul>  (53) 
-6.79938

>  <r_i_glide_erotb>  (53) 
0.0905618

>  <r_i_glide_esite>  (53) 
0

>  <r_i_glide_emodel>  (53) 
-31.1543

>  <r_i_glide_energy>  (53) 
-24.4256

>  <r_i_glide_einternal>  (53) 
4.76402

>  <r_i_glide_intrahb_reward>  (53) 
-0.5

>  <i_i_glide_confnum>  (53) 
3

>  <i_i_glide_posenum>  (53) 
1

>  <r_i_glide_eff_state_penalty>  (53) 
0

>  <ligand_id>  (53) 
15

>  <original_smiles>  (53) 
CC1(C)CCC(O)C23C4C(C(=O)C(O)(OO)C2C(O)C(O)C13)C1(C)CC(O)C(C)(C4O)C1O

>  <smiles>  (53) 
[H]OOC1(O[H])C(=O)C2([H])C([H])(C([H])(O[H])C3(C([H])([H])[H])C([H])(O[H])C([H])([H])C2(C([H])([H])[H])C3([H])O[H])C23C([H])(O[H])C([H])([H])C([H])([H])C(C([H])([H])[H])(C([H])([H])[H])C2([H])C([H])(O[H])C([H])(O[H])C13[H]

$$$$
16:0:0
     RDKit          3D

 40 42  0  0  1  0  0  0  0  0999 V2000
   -0.8502    4.3427    4.7169 C   0  0  0  0  0  0  0  0  0  0  0  0
   -1.1710    2.8664    4.3597 C   0  0  0  0  0  0  0  0  0  0  0  0
   -1.8776    2.1967    5.5506 C   0  0  0  0  0  0  0  0  0  0  0  0
   -2.0392    2.8739    3.0793 C   0  0  0  0  0  0  0  0  0  0  0  0
    0.0825    2.2058    4.1406 O   0  0  0  0  0  0  0  0  0  0  0  0
    0.1943    0.9361    3.6612 C   0  0  0  0  0  0  0  0  0  0  0  0
   -0.7119    0.1043    3.6262 O   0  0  0  0  0  0  0  0  0  0  0  0
    1.4837    0.7417    3.1922 N   0  0  0  0  0  0  0  0  0  0  0  0
    2.3663    1.8263    2.7585 C   0  0  0  0  0  0  0  0  0  0  0  0
    3.0670    0.7763    1.9245 C   0  0  0  0  0  0  0  0  0  0  0  0
    1.8671   -0.1525    2.0986 C   0  0  1  0  0  0  0  0  0  0  0  0
    2.1184   -1.6253    2.4761 C   0  0  0  0  0  0  0  0  0  0  0  0
    2.5300   -2.3913    1.3300 O   0  0  0  0  0  0  0  0  0  0  0  0
    3.7650   -2.1538    0.7754 C   0  0  0  0  0  0  0  0  0  0  0  0
    4.7589   -1.6260    1.5094 N   0  0  0  0  0  0  0  0  0  0  0  0
    5.8900   -1.3453    0.8799 C   0  0  0  0  0  0  0  0  0  0  0  0
    6.1923   -1.4749   -0.4133 N   0  0  0  0  0  0  0  0  0  0  0  0
    5.2372   -2.0410   -1.1511 C   0  0  0  0  0  0  0  0  0  0  0  0
    5.4070   -2.3353   -2.5024 N   0  0  0  0  0  0  0  0  0  0  0  0
    4.2872   -2.8936   -2.9702 C   0  0  0  0  0  0  0  0  0  0  0  0
    2.9359   -3.0537   -1.8583 S   0  0  0  0  0  0  0  0  0  0  0  0
    3.9928   -2.4028   -0.5839 C   0  0  0  0  0  0  0  0  0  0  0  0
   -1.7767    4.8956    4.8819 H   0  0  0  0  0  0  0  0  0  0  0  0
   -0.3008    4.8511    3.9203 H   0  0  0  0  0  0  0  0  0  0  0  0
   -0.2583    4.4160    5.6276 H   0  0  0  0  0  0  0  0  0  0  0  0
   -1.2529    2.2686    6.4417 H   0  0  0  0  0  0  0  0  0  0  0  0
   -2.0732    1.1373    5.3732 H   0  0  0  0  0  0  0  0  0  0  0  0
   -2.8406    2.6674    5.7493 H   0  0  0  0  0  0  0  0  0  0  0  0
   -2.9869    3.3911    3.2320 H   0  0  0  0  0  0  0  0  0  0  0  0
   -2.2883    1.8708    2.7260 H   0  0  0  0  0  0  0  0  0  0  0  0
   -1.5232    3.3686    2.2540 H   0  0  0  0  0  0  0  0  0  0  0  0
    1.8852    2.6361    2.1743 H   0  0  0  0  0  0  0  0  0  0  0  0
    3.0199    2.2021    3.5412 H   0  0  0  0  0  0  0  0  0  0  0  0
    3.2621    1.0456    0.8858 H   0  0  0  0  0  0  0  0  0  0  0  0
    3.9724    0.4535    2.4431 H   0  0  0  0  0  0  0  0  0  0  0  0
    1.1465   -0.0649    1.2779 H   0  0  0  0  0  0  0  0  0  0  0  0
    2.8381   -1.7232    3.2970 H   0  0  0  0  0  0  0  0  0  0  0  0
    1.2050   -2.0801    2.8400 H   0  0  0  0  0  0  0  0  0  0  0  0
    6.6293   -0.8231    1.4823 H   0  0  0  0  0  0  0  0  0  0  0  0
    4.2300   -3.2170   -3.9990 H   0  0  0  0  0  0  0  0  0  0  0  0
  1  2  1  0
  1 23  1  0
  1 24  1  0
  1 25  1  0
  2  3  1  0
  2  4  1  0
  2  5  1  0
  3 26  1  0
  3 27  1  0
  3 28  1  0
  4 29  1  0
  4 30  1  0
  4 31  1  0
  5  6  1  0
  6  7  2  0
  6  8  1  0
  8 11  1  0
  8  9  1  0
  9 10  1  0
  9 32  1  0
  9 33  1  0
 10 11  1  0
 10 34  1  0
 10 35  1  0
 11 12  1  0
 11 36  1  6
 12 13  1  0
 12 37  1  0
 12 38  1  0
 13 14  1  0
 14 22  1  0
 14 15  2  0
 15 16  1  0
 16 17  2  0
 16 39  1  0
 17 18  1  0
 18 22  2  0
 18 19  1  0
 19 20  2  0
 20 21  1  0
 20 40  1  0
 21 22  1  0
M  END
>  <i_m_ct_stereo_status>  (54) 
1

>  <s_m_source_file>  (54) 
/var/tmp/pbs.5076255.sched01/tmp361wbqj1/0nt8_y6ui.sdf

>  <i_m_source_file_index>  (54) 
19

>  <i_lp_mmshare_version>  (54) 
48012

>  <i_f3d_flags>  (54) 
0

>  <s_epik_input>  (54) 
W0NIM11DKFtDSDNdKShbQ0gzXSlPQyg9TylOMVtDSDJdW0NIMl1bQ0BIXTFbQ0gyXU9jKG5bY0hdbjIpYyhjMjMpc1tjSF1uMw==

>  <s_epik_cmdline>  (54) 
J2VwaWtfcHl0aG9uJywgJy1waHQnLCAnMi4wJywgJy1waCcsICc3LjAnLCAnLXRuJywgJzgnLCAnLW1hJywgJzIwMCcsICctaW1hZScsICc8aW5maWxlLm1hZT4nLCAnLW9tYWUnLCAnPG91dGZpbGUubWFlPic=

>  <r_lp_tautomer_probability>  (54) 
1

>  <r_epik_Ionization_Penalty>  (54) 
2.10662e-06

>  <r_epik_Ionization_Penalty_Charging>  (54) 
0

>  <r_epik_Ionization_Penalty_Neutral>  (54) 
2.10662e-06

>  <r_epik_State_Penalty>  (54) 
-0

>  <r_epik_Charging_Adjusted_Penalty>  (54) 
0

>  <i_epik_Tot_Q>  (54) 
0

>  <i_epik_Tot_abs_Q>  (54) 
0

>  <s_epik_Chemistry_Notes>  (54) 
This compound has an ester and may undergo hydrolysis at high or low pH.

>  <s_lp_Force_Field>  (54) 
OPLS3e

>  <r_lp_Energy>  (54) 
8.92858

>  <b_lp_Chiralities_Consistent>  (54) 
1

>  <s_lp_Variant>  (54) 
16:0-1

>  <s_i_glide_gridfile>  (54) 
pfpi4k_grid

>  <i_i_glide_lignum>  (54) 
19

>  <i_i_glide_rotatable_bonds>  (54) 
6

>  <r_i_docking_score>  (54) 
-2.45225

>  <r_i_glide_ligand_efficiency>  (54) 
-0.111466

>  <r_i_glide_ligand_efficiency_sa>  (54) 
-0.312331

>  <r_i_glide_ligand_efficiency_ln>  (54) 
-0.599418

>  <r_i_glide_gscore>  (54) 
-2.45225

>  <r_i_glide_lipo>  (54) 
-0.196294

>  <r_i_glide_hbond>  (54) 
-0.0661448

>  <r_i_glide_metal>  (54) 
-0

>  <r_i_glide_rewards>  (54) 
-1.40645

>  <r_i_glide_evdw>  (54) 
-28.1228

>  <r_i_glide_ecoul>  (54) 
-1.42302

>  <r_i_glide_erotb>  (54) 
0.899613

>  <r_i_glide_esite>  (54) 
-0.0633823

>  <r_i_glide_emodel>  (54) 
-32.4651

>  <r_i_glide_energy>  (54) 
-29.5458

>  <r_i_glide_einternal>  (54) 
2.74663

>  <r_i_glide_intrahb_reward>  (54) 
-0

>  <i_i_glide_confnum>  (54) 
6

>  <i_i_glide_posenum>  (54) 
24

>  <r_i_glide_eff_state_penalty>  (54) 
0

>  <ligand_id>  (54) 
16

>  <original_smiles>  (54) 
CC(C)(C)OC(=O)N1CCC1COc1ncnc2ncsc12

>  <smiles>  (54) 
[H]c1nc(OC([H])([H])C2([H])N(C(=O)OC(C([H])([H])[H])(C([H])([H])[H])C([H])([H])[H])C([H])([H])C2([H])[H])c2sc([H])nc2n1

$$$$
16:0:1
     RDKit          3D

 40 42  0  0  1  0  0  0  0  0999 V2000
   -1.2681   -4.7214    7.5721 C   0  0  0  0  0  0  0  0  0  0  0  0
   -0.0548   -5.2965    6.7960 C   0  0  0  0  0  0  0  0  0  0  0  0
    0.9452   -4.1346    6.5657 C   0  0  0  0  0  0  0  0  0  0  0  0
    0.5578   -6.4256    7.6475 C   0  0  0  0  0  0  0  0  0  0  0  0
   -0.5788   -5.8288    5.5610 O   0  0  0  0  0  0  0  0  0  0  0  0
    0.2103   -6.3156    4.5511 C   0  0  0  0  0  0  0  0  0  0  0  0
    1.4316   -6.2244    4.4847 O   0  0  0  0  0  0  0  0  0  0  0  0
   -0.5820   -6.9774    3.6162 N   0  0  0  0  0  0  0  0  0  0  0  0
   -1.6366   -7.9206    3.9805 C   0  0  0  0  0  0  0  0  0  0  0  0
   -1.3494   -8.6146    2.6515 C   0  0  0  0  0  0  0  0  0  0  0  0
   -0.0256   -7.8734    2.6049 C   0  0  1  0  0  0  0  0  0  0  0  0
    0.3906   -7.1475    1.3164 C   0  0  0  0  0  0  0  0  0  0  0  0
    1.6260   -6.4479    1.4026 O   0  0  0  0  0  0  0  0  0  0  0  0
    2.8044   -7.1619    1.4571 C   0  0  0  0  0  0  0  0  0  0  0  0
    2.7908   -8.5044    1.6047 N   0  0  0  0  0  0  0  0  0  0  0  0
    3.9591   -9.1293    1.6685 C   0  0  0  0  0  0  0  0  0  0  0  0
    5.1932   -8.6085    1.5918 N   0  0  0  0  0  0  0  0  0  0  0  0
    5.2152   -7.2759    1.4217 C   0  0  0  0  0  0  0  0  0  0  0  0
    6.4028   -6.5634    1.2855 N   0  0  0  0  0  0  0  0  0  0  0  0
    6.1061   -5.2666    1.1090 C   0  0  0  0  0  0  0  0  0  0  0  0
    4.4032   -4.8017    1.0976 S   0  0  0  0  0  0  0  0  0  0  0  0
    4.0291   -6.5062    1.3441 C   0  0  0  0  0  0  0  0  0  0  0  0
   -0.9652   -4.3344    8.5474 H   0  0  0  0  0  0  0  0  0  0  0  0
   -2.0461   -5.4566    7.7725 H   0  0  0  0  0  0  0  0  0  0  0  0
   -1.7480   -3.9083    7.0311 H   0  0  0  0  0  0  0  0  0  0  0  0
    0.4621   -3.3477    5.9816 H   0  0  0  0  0  0  0  0  0  0  0  0
    1.8498   -4.4321    6.0398 H   0  0  0  0  0  0  0  0  0  0  0  0
    1.2760   -3.7031    7.5158 H   0  0  0  0  0  0  0  0  0  0  0  0
    0.9257   -6.0524    8.6012 H   0  0  0  0  0  0  0  0  0  0  0  0
    1.3997   -6.9013    7.1494 H   0  0  0  0  0  0  0  0  0  0  0  0
   -0.1673   -7.2062    7.8753 H   0  0  0  0  0  0  0  0  0  0  0  0
   -1.3940   -8.5417    4.8514 H   0  0  0  0  0  0  0  0  0  0  0  0
   -2.6275   -7.4801    4.0483 H   0  0  0  0  0  0  0  0  0  0  0  0
   -1.2181   -9.7015    2.7015 H   0  0  0  0  0  0  0  0  0  0  0  0
   -2.0244   -8.3237    1.8415 H   0  0  0  0  0  0  0  0  0  0  0  0
    0.7363   -8.5142    3.0471 H   0  0  0  0  0  0  0  0  0  0  0  0
    0.4447   -7.8403    0.4831 H   0  0  0  0  0  0  0  0  0  0  0  0
   -0.3678   -6.4159    1.0219 H   0  0  0  0  0  0  0  0  0  0  0  0
    3.9009  -10.1940    1.8510 H   0  0  0  0  0  0  0  0  0  0  0  0
    6.9037   -4.5466    0.9785 H   0  0  0  0  0  0  0  0  0  0  0  0
  1  2  1  0
  1 23  1  0
  1 24  1  0
  1 25  1  0
  2  3  1  0
  2  4  1  0
  2  5  1  0
  3 26  1  0
  3 27  1  0
  3 28  1  0
  4 29  1  0
  4 30  1  0
  4 31  1  0
  5  6  1  0
  6  7  2  0
  6  8  1  0
  8 11  1  0
  8  9  1  0
  9 10  1  0
  9 32  1  0
  9 33  1  0
 10 11  1  0
 10 34  1  0
 10 35  1  0
 11 12  1  0
 11 36  1  1
 12 13  1  0
 12 37  1  0
 12 38  1  0
 13 14  1  0
 14 22  1  0
 14 15  2  0
 15 16  1  0
 16 17  2  0
 16 39  1  0
 17 18  1  0
 18 22  2  0
 18 19  1  0
 19 20  2  0
 20 21  1  0
 20 40  1  0
 21 22  1  0
M  END
>  <i_m_ct_stereo_status>  (55) 
1

>  <s_m_source_file>  (55) 
/var/tmp/pbs.5076255.sched01/tmp361wbqj1/0nt8_y6ui.sdf

>  <i_m_source_file_index>  (55) 
19

>  <i_lp_mmshare_version>  (55) 
48012

>  <i_f3d_flags>  (55) 
0

>  <s_epik_input>  (55) 
W0NIM11DKFtDSDNdKShbQ0gzXSlPQyg9TylOMVtDSDJdW0NIMl1bQ0BIXTFbQ0gyXU9jKG5bY0hdbjIpYyhjMjMpc1tjSF1uMw==

>  <s_epik_cmdline>  (55) 
J2VwaWtfcHl0aG9uJywgJy1waHQnLCAnMi4wJywgJy1waCcsICc3LjAnLCAnLXRuJywgJzgnLCAnLW1hJywgJzIwMCcsICctaW1hZScsICc8aW5maWxlLm1hZT4nLCAnLW9tYWUnLCAnPG91dGZpbGUubWFlPic=

>  <r_lp_tautomer_probability>  (55) 
1

>  <r_epik_Ionization_Penalty>  (55) 
2.10662e-06

>  <r_epik_Ionization_Penalty_Charging>  (55) 
0

>  <r_epik_Ionization_Penalty_Neutral>  (55) 
2.10662e-06

>  <r_epik_State_Penalty>  (55) 
-0

>  <r_epik_Charging_Adjusted_Penalty>  (55) 
0

>  <i_epik_Tot_Q>  (55) 
0

>  <i_epik_Tot_abs_Q>  (55) 
0

>  <s_epik_Chemistry_Notes>  (55) 
This compound has an ester and may undergo hydrolysis at high or low pH.

>  <s_lp_Force_Field>  (55) 
OPLS3e

>  <r_lp_Energy>  (55) 
8.92858

>  <b_lp_Chiralities_Consistent>  (55) 
1

>  <s_lp_Variant>  (55) 
16:0-1

>  <s_i_glide_gridfile>  (55) 
pfpi4k_grid

>  <i_i_glide_lignum>  (55) 
19

>  <i_i_glide_rotatable_bonds>  (55) 
6

>  <r_i_docking_score>  (55) 
-2.22887

>  <r_i_glide_ligand_efficiency>  (55) 
-0.101312

>  <r_i_glide_ligand_efficiency_sa>  (55) 
-0.283881

>  <r_i_glide_ligand_efficiency_ln>  (55) 
-0.544818

>  <r_i_glide_gscore>  (55) 
-2.22887

>  <r_i_glide_lipo>  (55) 
-0.258016

>  <r_i_glide_hbond>  (55) 
0

>  <r_i_glide_metal>  (55) 
-0

>  <r_i_glide_rewards>  (55) 
-1.33577

>  <r_i_glide_evdw>  (55) 
-25.6247

>  <r_i_glide_ecoul>  (55) 
-0.721515

>  <r_i_glide_erotb>  (55) 
0.899613

>  <r_i_glide_esite>  (55) 
-0.145236

>  <r_i_glide_emodel>  (55) 
-29.3348

>  <r_i_glide_energy>  (55) 
-26.3462

>  <r_i_glide_einternal>  (55) 
2.28681

>  <r_i_glide_intrahb_reward>  (55) 
-0

>  <i_i_glide_confnum>  (55) 
5

>  <i_i_glide_posenum>  (55) 
4

>  <r_i_glide_eff_state_penalty>  (55) 
0

>  <ligand_id>  (55) 
16

>  <original_smiles>  (55) 
CC(C)(C)OC(=O)N1CCC1COc1ncnc2ncsc12

>  <smiles>  (55) 
[H]c1nc(OC([H])([H])C2([H])N(C(=O)OC(C([H])([H])[H])(C([H])([H])[H])C([H])([H])[H])C([H])([H])C2([H])[H])c2sc([H])nc2n1

$$$$
16:0:2
     RDKit          3D

 40 42  0  0  1  0  0  0  0  0999 V2000
   -2.7586    2.9406    5.0206 C   0  0  0  0  0  0  0  0  0  0  0  0
   -1.6800    2.3140    5.9206 C   0  0  0  0  0  0  0  0  0  0  0  0
   -1.4612    3.2727    7.1261 C   0  0  0  0  0  0  0  0  0  0  0  0
   -2.0973    0.9409    6.5136 C   0  0  0  0  0  0  0  0  0  0  0  0
   -0.4469    2.2924    5.1809 O   0  0  0  0  0  0  0  0  0  0  0  0
   -0.1996    1.4485    4.1417 C   0  0  0  0  0  0  0  0  0  0  0  0
   -0.9662    0.5610    3.7546 O   0  0  0  0  0  0  0  0  0  0  0  0
    1.0386    1.7301    3.6021 N   0  0  0  0  0  0  0  0  0  0  0  0
    1.5351    3.0869    3.3676 C   0  0  0  0  0  0  0  0  0  0  0  0
    2.3073    2.5049    2.2046 C   0  0  0  0  0  0  0  0  0  0  0  0
    1.4953    1.2299    2.3031 C   0  0  1  0  0  0  0  0  0  0  0  0
    2.1979   -0.1229    2.4048 C   0  0  0  0  0  0  0  0  0  0  0  0
    2.6719   -0.4384    1.0820 O   0  0  0  0  0  0  0  0  0  0  0  0
    3.9710   -0.8118    0.8262 C   0  0  0  0  0  0  0  0  0  0  0  0
    4.9023   -0.6730    1.7943 N   0  0  0  0  0  0  0  0  0  0  0  0
    6.1304   -1.0588    1.5021 C   0  0  0  0  0  0  0  0  0  0  0  0
    6.6217   -1.5819    0.3651 N   0  0  0  0  0  0  0  0  0  0  0  0
    5.7078   -1.7294   -0.5879 C   0  0  0  0  0  0  0  0  0  0  0  0
    6.0378   -2.2779   -1.8373 N   0  0  0  0  0  0  0  0  0  0  0  0
    4.9231   -2.3150   -2.5970 C   0  0  0  0  0  0  0  0  0  0  0  0
    3.4420   -1.6619   -1.9078 S   0  0  0  0  0  0  0  0  0  0  0  0
    4.3547   -1.3437   -0.4237 C   0  0  0  0  0  0  0  0  0  0  0  0
   -3.7174    2.9781    5.5397 H   0  0  0  0  0  0  0  0  0  0  0  0
   -2.9040    2.3742    4.0944 H   0  0  0  0  0  0  0  0  0  0  0  0
   -2.4862    3.9574    4.7407 H   0  0  0  0  0  0  0  0  0  0  0  0
   -1.2353    4.2964    6.8186 H   0  0  0  0  0  0  0  0  0  0  0  0
   -0.6544    2.9393    7.7822 H   0  0  0  0  0  0  0  0  0  0  0  0
   -2.3626    3.3212    7.7456 H   0  0  0  0  0  0  0  0  0  0  0  0
   -2.9743    1.0453    7.1589 H   0  0  0  0  0  0  0  0  0  0  0  0
   -1.2864    0.5553    7.1337 H   0  0  0  0  0  0  0  0  0  0  0  0
   -2.3480    0.1810    5.7721 H   0  0  0  0  0  0  0  0  0  0  0  0
    0.7408    3.7719    3.0454 H   0  0  0  0  0  0  0  0  0  0  0  0
    2.1553    3.5056    4.1625 H   0  0  0  0  0  0  0  0  0  0  0  0
    2.1496    3.0731    1.2839 H   0  0  0  0  0  0  0  0  0  0  0  0
    3.3664    2.3307    2.4516 H   0  0  0  0  0  0  0  0  0  0  0  0
    0.6910    1.2475    1.5562 H   0  0  0  0  0  0  0  0  0  0  0  0
    2.9207   -0.1097    3.2244 H   0  0  0  0  0  0  0  0  0  0  0  0
    1.4971   -0.9162    2.6590 H   0  0  0  0  0  0  0  0  0  0  0  0
    6.8403   -0.9274    2.3241 H   0  0  0  0  0  0  0  0  0  0  0  0
    4.9839   -2.7226   -3.5883 H   0  0  0  0  0  0  0  0  0  0  0  0
  1  2  1  0
  1 23  1  0
  1 24  1  0
  1 25  1  0
  2  3  1  0
  2  4  1  0
  2  5  1  0
  3 26  1  0
  3 27  1  0
  3 28  1  0
  4 29  1  0
  4 30  1  0
  4 31  1  0
  5  6  1  0
  6  7  2  0
  6  8  1  0
  8 11  1  0
  8  9  1  0
  9 10  1  0
  9 32  1  0
  9 33  1  0
 10 11  1  0
 10 34  1  0
 10 35  1  0
 11 12  1  0
 11 36  1  6
 12 13  1  0
 12 37  1  0
 12 38  1  0
 13 14  1  0
 14 22  1  0
 14 15  2  0
 15 16  1  0
 16 17  2  0
 16 39  1  0
 17 18  1  0
 18 22  2  0
 18 19  1  0
 19 20  2  0
 20 21  1  0
 20 40  1  0
 21 22  1  0
M  END
>  <i_m_ct_stereo_status>  (56) 
1

>  <s_m_source_file>  (56) 
/var/tmp/pbs.5076255.sched01/tmp361wbqj1/0nt8_y6ui.sdf

>  <i_m_source_file_index>  (56) 
19

>  <i_lp_mmshare_version>  (56) 
48012

>  <i_f3d_flags>  (56) 
0

>  <s_epik_input>  (56) 
W0NIM11DKFtDSDNdKShbQ0gzXSlPQyg9TylOMVtDSDJdW0NIMl1bQ0BIXTFbQ0gyXU9jKG5bY0hdbjIpYyhjMjMpc1tjSF1uMw==

>  <s_epik_cmdline>  (56) 
J2VwaWtfcHl0aG9uJywgJy1waHQnLCAnMi4wJywgJy1waCcsICc3LjAnLCAnLXRuJywgJzgnLCAnLW1hJywgJzIwMCcsICctaW1hZScsICc8aW5maWxlLm1hZT4nLCAnLW9tYWUnLCAnPG91dGZpbGUubWFlPic=

>  <r_lp_tautomer_probability>  (56) 
1

>  <r_epik_Ionization_Penalty>  (56) 
2.10662e-06

>  <r_epik_Ionization_Penalty_Charging>  (56) 
0

>  <r_epik_Ionization_Penalty_Neutral>  (56) 
2.10662e-06

>  <r_epik_State_Penalty>  (56) 
-0

>  <r_epik_Charging_Adjusted_Penalty>  (56) 
0

>  <i_epik_Tot_Q>  (56) 
0

>  <i_epik_Tot_abs_Q>  (56) 
0

>  <s_epik_Chemistry_Notes>  (56) 
This compound has an ester and may undergo hydrolysis at high or low pH.

>  <s_lp_Force_Field>  (56) 
OPLS3e

>  <r_lp_Energy>  (56) 
8.92858

>  <b_lp_Chiralities_Consistent>  (56) 
1

>  <s_lp_Variant>  (56) 
16:0-1

>  <s_i_glide_gridfile>  (56) 
pfpi4k_grid

>  <i_i_glide_lignum>  (56) 
19

>  <i_i_glide_rotatable_bonds>  (56) 
6

>  <r_i_docking_score>  (56) 
-2.16012

>  <r_i_glide_ligand_efficiency>  (56) 
-0.0981874

>  <r_i_glide_ligand_efficiency_sa>  (56) 
-0.275125

>  <r_i_glide_ligand_efficiency_ln>  (56) 
-0.528013

>  <r_i_glide_gscore>  (56) 
-2.16012

>  <r_i_glide_lipo>  (56) 
-0.198921

>  <r_i_glide_hbond>  (56) 
-0.014438

>  <r_i_glide_metal>  (56) 
-0

>  <r_i_glide_rewards>  (56) 
-1.39732

>  <r_i_glide_evdw>  (56) 
-26.861

>  <r_i_glide_ecoul>  (56) 
-0.165099

>  <r_i_glide_erotb>  (56) 
0.899613

>  <r_i_glide_esite>  (56) 
-0.0812472

>  <r_i_glide_emodel>  (56) 
-29.1773

>  <r_i_glide_energy>  (56) 
-27.0261

>  <r_i_glide_einternal>  (56) 
3.33021

>  <r_i_glide_intrahb_reward>  (56) 
-0

>  <i_i_glide_confnum>  (56) 
6

>  <i_i_glide_posenum>  (56) 
19

>  <r_i_glide_eff_state_penalty>  (56) 
0

>  <ligand_id>  (56) 
16

>  <original_smiles>  (56) 
CC(C)(C)OC(=O)N1CCC1COc1ncnc2ncsc12

>  <smiles>  (56) 
[H]c1nc(OC([H])([H])C2([H])N(C(=O)OC(C([H])([H])[H])(C([H])([H])[H])C([H])([H])[H])C([H])([H])C2([H])[H])c2sc([H])nc2n1

$$$$
17:0:0
     RDKit          3D

 43 45  0  0  1  0  0  0  0  0999 V2000
    0.4268   -8.2755    2.8269 C   0  0  0  0  0  0  0  0  0  0  0  0
    0.6888   -6.9024    2.2031 C   0  0  2  0  0  0  0  0  0  0  0  0
    0.1687   -6.9048    0.8782 O   0  0  0  0  0  0  0  0  0  0  0  0
    2.1670   -6.5257    2.1683 C   0  0  2  0  0  0  0  0  0  0  0  0
    2.6398   -5.9389    3.5301 C   0  0  0  0  0  0  0  0  0  0  0  0
    2.8265   -6.3563    4.6552 O   0  0  0  0  0  0  0  0  0  0  0  0
    2.8735   -4.7240    2.9332 N   0  0  0  0  0  0  0  0  0  0  0  0
    3.9641   -3.8675    2.9691 C   0  0  0  0  0  0  0  0  0  0  0  0
    4.3216   -3.0581    4.2725 C   0  0  0  0  0  0  0  0  0  0  0  0
    3.4802   -3.1062    5.1963 O   0  0  0  0  0  0  0  0  0  0  0  0
    5.4060   -2.4389    4.2552 O   0  0  0  0  0  0  0  0  0  0  0  0
    4.5556   -3.8965    1.7698 C   0  0  0  0  0  0  0  0  0  0  0  0
    5.9509   -2.9662    1.2457 S   0  0  0  0  0  0  0  0  0  0  0  0
    5.3437   -1.9009   -0.0988 C   0  0  2  0  0  0  0  0  0  0  0  0
    3.8806   -1.4442    0.0308 C   0  0  0  0  0  0  0  0  0  0  0  0
    3.3987   -1.4100   -1.3590 N   0  0  0  0  0  0  0  0  0  0  0  0
    4.0261   -2.5454   -2.0633 C   0  0  1  0  0  0  0  0  0  0  0  0
    4.0268   -2.3469   -3.5735 C   0  0  0  0  0  0  0  0  0  0  0  0
    4.2187   -1.2005   -4.0345 O   0  0  0  0  0  0  0  0  0  0  0  0
    3.8523   -3.3657   -4.2631 O   0  0  0  0  0  0  0  0  0  0  0  0
    5.4508   -2.5976   -1.4711 C   0  0  0  0  0  0  0  0  0  0  0  0
    3.8374   -4.8244    0.8089 C   0  0  1  0  0  0  0  0  0  0  0  0
    4.6733   -6.0360    0.3612 C   0  0  0  0  0  0  0  0  0  0  0  0
    2.5765   -5.1677    1.5837 C   0  0  1  0  0  0  0  0  0  0  0  0
    0.7481   -8.2931    3.8668 H   0  0  0  0  0  0  0  0  0  0  0  0
    0.9705   -9.0597    2.2976 H   0  0  0  0  0  0  0  0  0  0  0  0
   -0.6333   -8.5137    2.7938 H   0  0  0  0  0  0  0  0  0  0  0  0
    0.1296   -6.1468    2.7610 H   0  0  0  0  0  0  0  0  0  0  0  0
    0.4087   -7.7284    0.4772 H   0  0  0  0  0  0  0  0  0  0  0  0
    2.8077   -7.3336    1.7920 H   0  0  0  0  0  0  0  0  0  0  0  0
    5.9711   -1.0063   -0.1270 H   0  0  0  0  0  0  0  0  0  0  0  0
    3.2182   -2.1534    0.5345 H   0  0  0  0  0  0  0  0  0  0  0  0
    3.7554   -0.4955    0.5583 H   0  0  0  0  0  0  0  0  0  0  0  0
    2.3838   -1.4416   -1.3732 H   0  0  0  0  0  0  0  0  0  0  0  0
    3.4434   -3.4459   -1.8586 H   0  0  0  0  0  0  0  0  0  0  0  0
    6.1776   -2.0786   -2.0919 H   0  0  0  0  0  0  0  0  0  0  0  0
    5.8113   -3.6242   -1.3996 H   0  0  0  0  0  0  0  0  0  0  0  0
    3.5235   -4.2910   -0.0830 H   0  0  0  0  0  0  0  0  0  0  0  0
    5.5064   -5.7095   -0.2624 H   0  0  0  0  0  0  0  0  0  0  0  0
    4.0629   -6.7112   -0.2461 H   0  0  0  0  0  0  0  0  0  0  0  0
    5.0695   -6.5772    1.2150 H   0  0  0  0  0  0  0  0  0  0  0  0
    1.7194   -4.6310    1.1782 H   0  0  0  0  0  0  0  0  0  0  0  0
    3.7247   -0.5766   -1.8326 H   0  0  0  0  0  0  0  0  0  0  0  0
  1  2  1  0
  1 25  1  0
  1 26  1  0
  1 27  1  0
  2  3  1  0
  2  4  1  0
  2 28  1  1
  3 29  1  0
  4 24  1  0
  4  5  1  0
  4 30  1  6
  5  6  2  0
  5  7  1  0
  7 24  1  0
  7  8  1  0
  8  9  1  0
  8 12  2  0
  9 10  2  0
  9 11  1  0
 12 13  1  0
 12 22  1  0
 13 14  1  0
 14 21  1  0
 14 15  1  0
 14 31  1  6
 15 16  1  0
 15 32  1  0
 15 33  1  0
 16 17  1  0
 16 34  1  0
 16 43  1  0
 17 18  1  0
 17 21  1  0
 17 35  1  6
 18 19  2  0
 18 20  1  0
 21 36  1  0
 21 37  1  0
 22 23  1  0
 22 24  1  0
 22 38  1  6
 23 39  1  0
 23 40  1  0
 23 41  1  0
 24 42  1  6
M  CHG  3  11  -1  16   1  20  -1
M  END
>  <i_m_ct_stereo_status>  (57) 
1

>  <s_m_source_file>  (57) 
/var/tmp/pbs.5076255.sched01/tmp361wbqj1/0nt8_y6ui.sdf

>  <i_m_source_file_index>  (57) 
20

>  <i_lp_mmshare_version>  (57) 
48012

>  <i_f3d_flags>  (57) 
0

>  <s_epik_input>  (57) 
W0NIM11bQ0BIXShbT0hdKVtDQEhdKEMxPU8pW0NAQEhdKE4xMilbQ0BIXShbQ0gzXSlDKD1DMkMoPU8pW09IXSlTW0NAQEhdM1tDSDJdW05IXVtDQEhdKFtDSDJdMylDKD1PKVtPSF0=

>  <s_epik_cmdline>  (57) 
J2VwaWtfcHl0aG9uJywgJy1waHQnLCAnMi4wJywgJy1waCcsICc3LjAnLCAnLXRuJywgJzgnLCAnLW1hJywgJzIwMCcsICctaW1hZScsICc8aW5maWxlLm1hZT4nLCAnLW9tYWUnLCAnPG91dGZpbGUubWFlPic=

>  <r_lp_tautomer_probability>  (57) 
1

>  <r_epik_Ionization_Penalty>  (57) 
0.00162491

>  <r_epik_Ionization_Penalty_Charging>  (57) 
0.0016248

>  <r_epik_Ionization_Penalty_Neutral>  (57) 
1.19164e-07

>  <r_epik_State_Penalty>  (57) 
-0

>  <r_epik_Charging_Adjusted_Penalty>  (57) 
0.0016248

>  <i_epik_Tot_Q>  (57) 
-1

>  <i_epik_Tot_abs_Q>  (57) 
3

>  <s_lp_Force_Field>  (57) 
OPLS3e

>  <r_lp_Energy>  (57) 
16.7912

>  <b_lp_Chiralities_Consistent>  (57) 
1

>  <s_lp_Variant>  (57) 
17:0-1

>  <s_i_glide_gridfile>  (57) 
pfpi4k_grid

>  <i_i_glide_lignum>  (57) 
20

>  <i_i_glide_rotatable_bonds>  (57) 
6

>  <r_i_docking_score>  (57) 
-4.45644

>  <r_i_glide_ligand_efficiency>  (57) 
-0.185685

>  <r_i_glide_ligand_efficiency_sa>  (57) 
-0.535608

>  <r_i_glide_ligand_efficiency_ln>  (57) 
-1.06663

>  <r_i_glide_gscore>  (57) 
-4.45644

>  <r_i_glide_lipo>  (57) 
-0.25018

>  <r_i_glide_hbond>  (57) 
-0.499959

>  <r_i_glide_metal>  (57) 
-0

>  <r_i_glide_rewards>  (57) 
-1.28584

>  <r_i_glide_evdw>  (57) 
-25.8523

>  <r_i_glide_ecoul>  (57) 
-9.86826

>  <r_i_glide_erotb>  (57) 
0.454156

>  <r_i_glide_esite>  (57) 
-0.101756

>  <r_i_glide_emodel>  (57) 
-48.2464

>  <r_i_glide_energy>  (57) 
-35.7206

>  <r_i_glide_einternal>  (57) 
5.57417

>  <r_i_glide_intrahb_reward>  (57) 
-0

>  <i_i_glide_confnum>  (57) 
5

>  <i_i_glide_posenum>  (57) 
40

>  <r_i_glide_eff_state_penalty>  (57) 
0

>  <ligand_id>  (57) 
17

>  <original_smiles>  (57) 
CC(O)C1C(=O)N2C(C(=O)O)=C(SC3CNC(C(=O)O)C3)C(C)C12

>  <smiles>  (57) 
[H]OC([H])(C([H])([H])[H])C1([H])C(=O)N2C(C(=O)[O-])=C(SC3([H])C([H])([H])C([H])(C(=O)[O-])[N+]([H])([H])C3([H])[H])C([H])(C([H])([H])[H])C21[H]

$$$$
17:0:1
     RDKit          3D

 43 45  0  0  1  0  0  0  0  0999 V2000
    6.8976   -3.1316   -1.0439 C   0  0  0  0  0  0  0  0  0  0  0  0
    5.4733   -2.5731   -1.0470 C   0  0  2  0  0  0  0  0  0  0  0  0
    5.4363   -1.4097   -1.8503 O   0  0  0  0  0  0  0  0  0  0  0  0
    4.9616   -2.1948    0.3294 C   0  0  2  0  0  0  0  0  0  0  0  0
    4.5758   -3.4332    1.1757 C   0  0  0  0  0  0  0  0  0  0  0  0
    5.1644   -4.3354    1.7135 O   0  0  0  0  0  0  0  0  0  0  0  0
    3.2599   -3.0327    1.1816 N   0  0  0  0  0  0  0  0  0  0  0  0
    2.3519   -2.8981    2.2169 C   0  0  0  0  0  0  0  0  0  0  0  0
    1.7958   -4.1567    2.9498 C   0  0  0  0  0  0  0  0  0  0  0  0
    1.7614   -5.1972    2.2666 O   0  0  0  0  0  0  0  0  0  0  0  0
    1.3828   -3.9707    4.1122 O   0  0  0  0  0  0  0  0  0  0  0  0
    2.1232   -1.5965    2.3917 C   0  0  0  0  0  0  0  0  0  0  0  0
    1.0481   -0.8688    3.5726 S   0  0  0  0  0  0  0  0  0  0  0  0
    0.3975    0.6167    2.7526 C   0  0  2  0  0  0  0  0  0  0  0  0
    1.3689    1.7955    2.7732 C   0  0  0  0  0  0  0  0  0  0  0  0
    0.5459    2.9810    2.8919 N   0  0  0  0  0  0  0  0  0  0  0  0
   -0.5239    2.5931    3.8278 C   0  0  1  0  0  0  0  0  0  0  0  0
   -1.6832    3.5896    3.7648 C   0  0  0  0  0  0  0  0  0  0  0  0
   -1.3828    4.7996    3.6706 O   0  0  0  0  0  0  0  0  0  0  0  0
   -2.8463    3.1430    3.8292 O   0  0  0  0  0  0  0  0  0  0  0  0
   -0.8652    1.1436    3.4539 C   0  0  0  0  0  0  0  0  0  0  0  0
    2.9175   -0.7400    1.4292 C   0  0  1  0  0  0  0  0  0  0  0  0
    4.0176    0.0814    2.1379 C   0  0  0  0  0  0  0  0  0  0  0  0
    3.4786   -1.7819    0.4678 C   0  0  1  0  0  0  0  0  0  0  0  0
    6.9453   -4.0515   -0.4616 H   0  0  0  0  0  0  0  0  0  0  0  0
    7.6085   -2.4289   -0.6080 H   0  0  0  0  0  0  0  0  0  0  0  0
    7.2168   -3.3664   -2.0570 H   0  0  0  0  0  0  0  0  0  0  0  0
    4.8036   -3.3078   -1.5007 H   0  0  0  0  0  0  0  0  0  0  0  0
    4.5478   -1.0908   -1.8588 H   0  0  0  0  0  0  0  0  0  0  0  0
    5.6433   -1.5109    0.8520 H   0  0  0  0  0  0  0  0  0  0  0  0
    0.1319    0.3592    1.7254 H   0  0  0  0  0  0  0  0  0  0  0  0
    1.9915    1.7583    3.6715 H   0  0  0  0  0  0  0  0  0  0  0  0
    2.0091    1.8772    1.8954 H   0  0  0  0  0  0  0  0  0  0  0  0
    1.0556    3.7722    3.2301 H   0  0  0  0  0  0  0  0  0  0  0  0
   -0.0931    2.6174    4.8271 H   0  0  0  0  0  0  0  0  0  0  0  0
   -1.6953    1.0661    2.7527 H   0  0  0  0  0  0  0  0  0  0  0  0
   -1.1368    0.5604    4.3333 H   0  0  0  0  0  0  0  0  0  0  0  0
    2.2519   -0.0827    0.8593 H   0  0  0  0  0  0  0  0  0  0  0  0
    3.6493    0.8585    2.8142 H   0  0  0  0  0  0  0  0  0  0  0  0
    4.6333    0.5516    1.3713 H   0  0  0  0  0  0  0  0  0  0  0  0
    4.6582   -0.5872    2.7180 H   0  0  0  0  0  0  0  0  0  0  0  0
    2.9791   -1.7916   -0.5144 H   0  0  0  0  0  0  0  0  0  0  0  0
    0.1659    3.2489    1.9740 H   0  0  0  0  0  0  0  0  0  0  0  0
  1  2  1  0
  1 25  1  0
  1 26  1  0
  1 27  1  0
  2  3  1  0
  2  4  1  0
  2 28  1  6
  3 29  1  0
  4 24  1  0
  4  5  1  0
  4 30  1  1
  5  6  2  0
  5  7  1  0
  7 24  1  0
  7  8  1  0
  8  9  1  0
  8 12  2  0
  9 10  2  0
  9 11  1  0
 12 13  1  0
 12 22  1  0
 13 14  1  0
 14 21  1  0
 14 15  1  0
 14 31  1  6
 15 16  1  0
 15 32  1  0
 15 33  1  0
 16 17  1  0
 16 34  1  0
 16 43  1  0
 17 18  1  0
 17 21  1  0
 17 35  1  1
 18 19  2  0
 18 20  1  0
 21 36  1  0
 21 37  1  0
 22 23  1  0
 22 24  1  0
 22 38  1  6
 23 39  1  0
 23 40  1  0
 23 41  1  0
 24 42  1  6
M  CHG  3  11  -1  16   1  20  -1
M  END
>  <i_m_ct_stereo_status>  (58) 
1

>  <s_m_source_file>  (58) 
/var/tmp/pbs.5076255.sched01/tmp361wbqj1/0nt8_y6ui.sdf

>  <i_m_source_file_index>  (58) 
20

>  <i_lp_mmshare_version>  (58) 
48012

>  <i_f3d_flags>  (58) 
0

>  <s_epik_input>  (58) 
W0NIM11bQ0BIXShbT0hdKVtDQEhdKEMxPU8pW0NAQEhdKE4xMilbQ0BIXShbQ0gzXSlDKD1DMkMoPU8pW09IXSlTW0NAQEhdM1tDSDJdW05IXVtDQEhdKFtDSDJdMylDKD1PKVtPSF0=

>  <s_epik_cmdline>  (58) 
J2VwaWtfcHl0aG9uJywgJy1waHQnLCAnMi4wJywgJy1waCcsICc3LjAnLCAnLXRuJywgJzgnLCAnLW1hJywgJzIwMCcsICctaW1hZScsICc8aW5maWxlLm1hZT4nLCAnLW9tYWUnLCAnPG91dGZpbGUubWFlPic=

>  <r_lp_tautomer_probability>  (58) 
1

>  <r_epik_Ionization_Penalty>  (58) 
0.00162491

>  <r_epik_Ionization_Penalty_Charging>  (58) 
0.0016248

>  <r_epik_Ionization_Penalty_Neutral>  (58) 
1.19164e-07

>  <r_epik_State_Penalty>  (58) 
-0

>  <r_epik_Charging_Adjusted_Penalty>  (58) 
0.0016248

>  <i_epik_Tot_Q>  (58) 
-1

>  <i_epik_Tot_abs_Q>  (58) 
3

>  <s_lp_Force_Field>  (58) 
OPLS3e

>  <r_lp_Energy>  (58) 
16.7912

>  <b_lp_Chiralities_Consistent>  (58) 
1

>  <s_lp_Variant>  (58) 
17:0-1

>  <s_i_glide_gridfile>  (58) 
pfpi4k_grid

>  <i_i_glide_lignum>  (58) 
20

>  <i_i_glide_rotatable_bonds>  (58) 
6

>  <r_i_docking_score>  (58) 
-3.93433

>  <r_i_glide_ligand_efficiency>  (58) 
-0.16393

>  <r_i_glide_ligand_efficiency_sa>  (58) 
-0.472857

>  <r_i_glide_ligand_efficiency_ln>  (58) 
-0.941665

>  <r_i_glide_gscore>  (58) 
-3.93433

>  <r_i_glide_lipo>  (58) 
-0.110007

>  <r_i_glide_hbond>  (58) 
-0.397828

>  <r_i_glide_metal>  (58) 
-0

>  <r_i_glide_rewards>  (58) 
-1.01699

>  <r_i_glide_evdw>  (58) 
-23.4366

>  <r_i_glide_ecoul>  (58) 
-10.1273

>  <r_i_glide_erotb>  (58) 
0.454156

>  <r_i_glide_esite>  (58) 
-0.172727

>  <r_i_glide_emodel>  (58) 
-46.4049

>  <r_i_glide_energy>  (58) 
-33.564

>  <r_i_glide_einternal>  (58) 
1.09018

>  <r_i_glide_intrahb_reward>  (58) 
-0

>  <i_i_glide_confnum>  (58) 
5

>  <i_i_glide_posenum>  (58) 
14

>  <r_i_glide_eff_state_penalty>  (58) 
0

>  <ligand_id>  (58) 
17

>  <original_smiles>  (58) 
CC(O)C1C(=O)N2C(C(=O)O)=C(SC3CNC(C(=O)O)C3)C(C)C12

>  <smiles>  (58) 
[H]OC([H])(C([H])([H])[H])C1([H])C(=O)N2C(C(=O)[O-])=C(SC3([H])C([H])([H])C([H])(C(=O)[O-])[N+]([H])([H])C3([H])[H])C([H])(C([H])([H])[H])C21[H]

$$$$
17:0:2
     RDKit          3D

 43 45  0  0  1  0  0  0  0  0999 V2000
    5.1905   -3.5305   -0.3970 C   0  0  0  0  0  0  0  0  0  0  0  0
    4.2344   -4.6966   -0.1765 C   0  0  2  0  0  0  0  0  0  0  0  0
    2.8973   -4.2422   -0.2654 O   0  0  0  0  0  0  0  0  0  0  0  0
    4.4288   -5.3678    1.1621 C   0  0  2  0  0  0  0  0  0  0  0  0
    5.7079   -6.2213    1.2164 C   0  0  0  0  0  0  0  0  0  0  0  0
    6.9041   -6.0315    1.2924 O   0  0  0  0  0  0  0  0  0  0  0  0
    4.9587   -7.3835    1.3044 N   0  0  0  0  0  0  0  0  0  0  0  0
    5.0411   -8.4417    2.2043 C   0  0  0  0  0  0  0  0  0  0  0  0
    6.2042   -9.4269    2.1559 C   0  0  0  0  0  0  0  0  0  0  0  0
    6.7702   -9.5198    1.0506 O   0  0  0  0  0  0  0  0  0  0  0  0
    6.5029   -9.9969    3.2277 O   0  0  0  0  0  0  0  0  0  0  0  0
    4.0021   -8.3620    3.0582 C   0  0  0  0  0  0  0  0  0  0  0  0
    3.5676   -9.5224    4.3399 S   0  0  0  0  0  0  0  0  0  0  0  0
    1.7683   -9.8712    4.1248 C   0  0  2  0  0  0  0  0  0  0  0  0
    1.3968  -10.4024    2.7181 C   0  0  0  0  0  0  0  0  0  0  0  0
    0.0498   -9.8594    2.4728 N   0  0  0  0  0  0  0  0  0  0  0  0
    0.0986   -8.4876    2.9952 C   0  0  1  0  0  0  0  0  0  0  0  0
   -1.2185   -7.8200    3.2448 C   0  0  0  0  0  0  0  0  0  0  0  0
   -1.2001   -6.7135    3.8313 O   0  0  0  0  0  0  0  0  0  0  0  0
   -2.1983   -8.3184    2.6653 O   0  0  0  0  0  0  0  0  0  0  0  0
    0.8876   -8.6178    4.3054 C   0  0  0  0  0  0  0  0  0  0  0  0
    3.1106   -7.1972    2.7149 C   0  0  1  0  0  0  0  0  0  0  0  0
    3.0688   -6.0981    3.8170 C   0  0  0  0  0  0  0  0  0  0  0  0
    3.6788   -6.6937    1.3919 C   0  0  1  0  0  0  0  0  0  0  0  0
    6.2305   -3.8656   -0.3845 H   0  0  0  0  0  0  0  0  0  0  0  0
    5.0713   -2.7727    0.3804 H   0  0  0  0  0  0  0  0  0  0  0  0
    5.0021   -3.0677   -1.3649 H   0  0  0  0  0  0  0  0  0  0  0  0
    4.3887   -5.4420   -0.9605 H   0  0  0  0  0  0  0  0  0  0  0  0
    2.7181   -4.0717   -1.1825 H   0  0  0  0  0  0  0  0  0  0  0  0
    4.2776   -4.6971    2.0051 H   0  0  0  0  0  0  0  0  0  0  0  0
    1.5101  -10.6173    4.9159 H   0  0  0  0  0  0  0  0  0  0  0  0
    2.0988  -10.0104    1.9744 H   0  0  0  0  0  0  0  0  0  0  0  0
    1.4430  -11.4869    2.6897 H   0  0  0  0  0  0  0  0  0  0  0  0
   -0.1655   -9.8499    1.4598 H   0  0  0  0  0  0  0  0  0  0  0  0
    0.4543   -7.8963    2.1689 H   0  0  0  0  0  0  0  0  0  0  0  0
    0.2517   -8.7344    5.1970 H   0  0  0  0  0  0  0  0  0  0  0  0
    1.4567   -7.7760    4.4934 H   0  0  0  0  0  0  0  0  0  0  0  0
    2.1999   -7.6003    2.4499 H   0  0  0  0  0  0  0  0  0  0  0  0
    2.6622   -6.3966    4.7879 H   0  0  0  0  0  0  0  0  0  0  0  0
    2.4473   -5.2680    3.4374 H   0  0  0  0  0  0  0  0  0  0  0  0
    4.1103   -5.7674    4.0593 H   0  0  0  0  0  0  0  0  0  0  0  0
    3.0492   -6.9648    0.5432 H   0  0  0  0  0  0  0  0  0  0  0  0
   -0.6463  -10.3488    3.0124 H   0  0  0  0  0  0  0  0  0  0  0  0
  1  2  1  0
  1 25  1  0
  1 26  1  0
  1 27  1  0
  2  3  1  0
  2  4  1  0
  2 28  1  6
  3 29  1  0
  4 24  1  0
  4  5  1  0
  4 30  1  1
  5  6  2  0
  5  7  1  0
  7 24  1  0
  7  8  1  0
  8  9  1  0
  8 12  2  0
  9 10  2  0
  9 11  1  0
 12 13  1  0
 12 22  1  0
 13 14  1  0
 14 21  1  0
 14 15  1  0
 14 31  1  1
 15 16  1  0
 15 32  1  0
 15 33  1  0
 16 17  1  0
 16 34  1  0
 16 43  1  0
 17 18  1  0
 17 21  1  0
 17 35  1  6
 18 19  2  0
 18 20  1  0
 21 36  1  0
 21 37  1  0
 22 23  1  0
 22 24  1  0
 22 38  1  6
 23 39  1  0
 23 40  1  0
 23 41  1  0
 24 42  1  6
M  CHG  3  11  -1  16   1  20  -1
M  END
>  <i_m_ct_stereo_status>  (59) 
1

>  <s_m_source_file>  (59) 
/var/tmp/pbs.5076255.sched01/tmp361wbqj1/0nt8_y6ui.sdf

>  <i_m_source_file_index>  (59) 
20

>  <i_lp_mmshare_version>  (59) 
48012

>  <i_f3d_flags>  (59) 
0

>  <s_epik_input>  (59) 
W0NIM11bQ0BIXShbT0hdKVtDQEhdKEMxPU8pW0NAQEhdKE4xMilbQ0BIXShbQ0gzXSlDKD1DMkMoPU8pW09IXSlTW0NAQEhdM1tDSDJdW05IXVtDQEhdKFtDSDJdMylDKD1PKVtPSF0=

>  <s_epik_cmdline>  (59) 
J2VwaWtfcHl0aG9uJywgJy1waHQnLCAnMi4wJywgJy1waCcsICc3LjAnLCAnLXRuJywgJzgnLCAnLW1hJywgJzIwMCcsICctaW1hZScsICc8aW5maWxlLm1hZT4nLCAnLW9tYWUnLCAnPG91dGZpbGUubWFlPic=

>  <r_lp_tautomer_probability>  (59) 
1

>  <r_epik_Ionization_Penalty>  (59) 
0.00162491

>  <r_epik_Ionization_Penalty_Charging>  (59) 
0.0016248

>  <r_epik_Ionization_Penalty_Neutral>  (59) 
1.19164e-07

>  <r_epik_State_Penalty>  (59) 
-0

>  <r_epik_Charging_Adjusted_Penalty>  (59) 
0.0016248

>  <i_epik_Tot_Q>  (59) 
-1

>  <i_epik_Tot_abs_Q>  (59) 
3

>  <s_lp_Force_Field>  (59) 
OPLS3e

>  <r_lp_Energy>  (59) 
16.7912

>  <b_lp_Chiralities_Consistent>  (59) 
1

>  <s_lp_Variant>  (59) 
17:0-1

>  <s_i_glide_gridfile>  (59) 
pfpi4k_grid

>  <i_i_glide_lignum>  (59) 
20

>  <i_i_glide_rotatable_bonds>  (59) 
6

>  <r_i_docking_score>  (59) 
-3.57941

>  <r_i_glide_ligand_efficiency>  (59) 
-0.149142

>  <r_i_glide_ligand_efficiency_sa>  (59) 
-0.4302

>  <r_i_glide_ligand_efficiency_ln>  (59) 
-0.856717

>  <r_i_glide_gscore>  (59) 
-3.57941

>  <r_i_glide_lipo>  (59) 
-0.30816

>  <r_i_glide_hbond>  (59) 
-0.11044

>  <r_i_glide_metal>  (59) 
-0

>  <r_i_glide_rewards>  (59) 
-1.22933

>  <r_i_glide_evdw>  (59) 
-22.8362

>  <r_i_glide_ecoul>  (59) 
-9.28205

>  <r_i_glide_erotb>  (59) 
0.454156

>  <r_i_glide_esite>  (59) 
-0.0670142

>  <r_i_glide_emodel>  (59) 
-39.6208

>  <r_i_glide_energy>  (59) 
-32.1183

>  <r_i_glide_einternal>  (59) 
2.96448

>  <r_i_glide_intrahb_reward>  (59) 
-0

>  <i_i_glide_confnum>  (59) 
5

>  <i_i_glide_posenum>  (59) 
21

>  <r_i_glide_eff_state_penalty>  (59) 
0

>  <ligand_id>  (59) 
17

>  <original_smiles>  (59) 
CC(O)C1C(=O)N2C(C(=O)O)=C(SC3CNC(C(=O)O)C3)C(C)C12

>  <smiles>  (59) 
[H]OC([H])(C([H])([H])[H])C1([H])C(=O)N2C(C(=O)[O-])=C(SC3([H])C([H])([H])C([H])(C(=O)[O-])[N+]([H])([H])C3([H])[H])C([H])(C([H])([H])[H])C21[H]

$$$$
18:0:0
     RDKit          3D

 49 52  0  0  1  0  0  0  0  0999 V2000
   -1.5754   -9.3174    2.4861 C   0  0  0  0  0  0  0  0  0  0  0  0
   -0.8877   -8.1105    3.1262 C   0  0  2  0  0  0  0  0  0  0  0  0
    0.1341   -7.4796    2.1745 C   0  0  0  0  0  0  0  0  0  0  0  0
    1.0015   -6.4249    2.8327 C   0  0  0  0  0  0  0  0  0  0  0  0
    1.6247   -5.5363    1.9653 N   0  0  0  0  0  0  0  0  0  0  0  0
    2.5711   -4.7673    2.3318 C   0  0  0  0  0  0  0  0  0  0  0  0
    3.2789   -3.8803    1.3103 C   0  0  0  0  0  0  0  0  0  0  0  0
    3.6959   -2.4737    1.8066 C   0  0  0  0  0  0  0  0  0  0  0  0
    4.5348   -1.7945    0.7180 C   0  0  0  0  0  0  0  0  0  0  0  0
    2.4864   -1.5427    2.1018 C   0  0  0  0  0  0  0  0  0  0  0  0
    4.5552   -2.6536    3.0721 C   0  0  0  0  0  0  0  0  0  0  0  0
    3.8675   -3.4834    4.1749 C   0  0  0  0  0  0  0  0  0  0  0  0
    4.0084   -3.1640    5.3535 O   0  0  0  0  0  0  0  0  0  0  0  0
    3.0888   -4.7528    3.7854 C   0  0  1  0  0  0  0  0  0  0  0  0
    2.0126   -5.2508    4.8187 C   0  0  1  0  0  0  0  0  0  0  0  0
    1.0938   -4.1713    5.4245 C   0  0  0  0  0  0  0  0  0  0  0  0
    0.4567   -3.2272    4.5955 C   0  0  0  0  0  0  0  0  0  0  0  0
   -0.2600   -2.1762    5.1964 C   0  0  0  0  0  0  0  0  0  0  0  0
   -0.5199   -2.1269    6.5219 N   0  0  0  0  0  0  0  0  0  0  0  0
   -0.0381   -3.1284    7.3000 C   0  0  0  0  0  0  0  0  0  0  0  0
    0.8028   -4.1440    6.8018 C   0  0  0  0  0  0  0  0  0  0  0  0
    1.1563   -6.3395    4.1992 C   0  0  0  0  0  0  0  0  0  0  0  0
    0.5445   -7.3501    5.0758 C   0  0  0  0  0  0  0  0  0  0  0  0
    0.6568   -7.3283    6.3060 O   0  0  0  0  0  0  0  0  0  0  0  0
   -0.2236   -8.5179    4.4508 C   0  0  0  0  0  0  0  0  0  0  0  0
   -0.8631  -10.1139    2.2634 H   0  0  0  0  0  0  0  0  0  0  0  0
   -2.0622   -9.0497    1.5496 H   0  0  0  0  0  0  0  0  0  0  0  0
   -2.3350   -9.7305    3.1468 H   0  0  0  0  0  0  0  0  0  0  0  0
   -1.6551   -7.3697    3.3536 H   0  0  0  0  0  0  0  0  0  0  0  0
    0.7962   -8.2490    1.7756 H   0  0  0  0  0  0  0  0  0  0  0  0
    2.6440   -3.7947    0.4291 H   0  0  0  0  0  0  0  0  0  0  0  0
   -0.3895   -7.0425    1.3222 H   0  0  0  0  0  0  0  0  0  0  0  0
    4.8473   -0.7989    1.0475 H   0  0  0  0  0  0  0  0  0  0  0  0
    3.9444   -1.6697   -0.1959 H   0  0  0  0  0  0  0  0  0  0  0  0
    5.4291   -2.3732    0.4743 H   0  0  0  0  0  0  0  0  0  0  0  0
    2.8149   -0.5074    2.3024 H   0  0  0  0  0  0  0  0  0  0  0  0
    1.9330   -1.8992    2.9555 H   0  0  0  0  0  0  0  0  0  0  0  0
    1.8118   -1.5012    1.2342 H   0  0  0  0  0  0  0  0  0  0  0  0
    5.4908   -3.1589    2.8296 H   0  0  0  0  0  0  0  0  0  0  0  0
    4.8246   -1.6806    3.4817 H   0  0  0  0  0  0  0  0  0  0  0  0
    3.8533   -5.5316    3.7870 H   0  0  0  0  0  0  0  0  0  0  0  0
    2.5867   -5.6956    5.6336 H   0  0  0  0  0  0  0  0  0  0  0  0
    0.5089   -3.2984    3.5145 H   0  0  0  0  0  0  0  0  0  0  0  0
   -0.6529   -1.3645    4.6063 H   0  0  0  0  0  0  0  0  0  0  0  0
   -0.3547   -3.1151    8.3349 H   0  0  0  0  0  0  0  0  0  0  0  0
    1.1591   -4.9152    7.4623 H   0  0  0  0  0  0  0  0  0  0  0  0
    4.1636   -4.4371    0.9882 H   0  0  0  0  0  0  0  0  0  0  0  0
   -0.9815   -8.8402    5.1642 H   0  0  0  0  0  0  0  0  0  0  0  0
    0.4626   -9.3606    4.3184 H   0  0  0  0  0  0  0  0  0  0  0  0
  1  2  1  0
  1 26  1  0
  1 27  1  0
  1 28  1  0
  2 25  1  0
  2 29  1  1
  2  3  1  0
  3 30  1  0
  3 32  1  0
  3  4  1  0
  4  5  1  0
  4 22  2  0
  5  6  2  0
  6  7  1  0
  6 14  1  0
  7  8  1  0
  7 31  1  0
  7 47  1  0
  8  9  1  0
  8 10  1  0
  8 11  1  0
  9 33  1  0
  9 34  1  0
  9 35  1  0
 10 36  1  0
 10 37  1  0
 10 38  1  0
 11 12  1  0
 11 39  1  0
 11 40  1  0
 12 13  2  0
 12 14  1  0
 14 15  1  0
 14 41  1  6
 15 16  1  0
 15 42  1  1
 15 22  1  0
 16 21  1  0
 16 17  2  0
 17 18  1  0
 17 43  1  0
 18 19  2  0
 18 44  1  0
 19 20  1  0
 20 21  2  0
 20 45  1  0
 21 46  1  0
 22 23  1  0
 23 24  2  0
 23 25  1  0
 25 48  1  0
 25 49  1  0
M  END
>  <i_m_ct_stereo_status>  (60) 
1

>  <s_m_source_file>  (60) 
/var/tmp/pbs.5076255.sched01/tmp361wbqj1/0nt8_y6ui.sdf

>  <i_m_source_file_index>  (60) 
21

>  <i_lp_mmshare_version>  (60) 
48012

>  <i_f3d_flags>  (60) 
0

>  <s_epik_input>  (60) 
W2NIXTFbY0hdbltjSF1bY0hdYzFbQ0BASF0oW0NAQEhdKEMyMylDKD1PKVtDSDJdW0NASF0oW0NIM10pW0NIXT0yKVtDQEhdNEMoPU4zKVtDSDJdQyhbQ0gzXSkoW0NIM10pW0NIMl1DND1P

>  <s_epik_cmdline>  (60) 
J2VwaWtfcHl0aG9uJywgJy1waHQnLCAnMi4wJywgJy1waCcsICc3LjAnLCAnLXRuJywgJzgnLCAnLW1hJywgJzIwMCcsICctaW1hZScsICc8aW5maWxlLm1hZT4nLCAnLW9tYWUnLCAnPG91dGZpbGUubWFlPic=

>  <r_lp_tautomer_probability>  (60) 
0.499981

>  <r_epik_Ionization_Penalty>  (60) 
0.00165103

>  <r_epik_Ionization_Penalty_Charging>  (60) 
0

>  <r_epik_Ionization_Penalty_Neutral>  (60) 
0.00165103

>  <r_epik_State_Penalty>  (60) 
0.470098

>  <r_epik_Charging_Adjusted_Penalty>  (60) 
0.470098

>  <i_epik_Tot_Q>  (60) 
0

>  <i_epik_Tot_abs_Q>  (60) 
0

>  <s_epik_Chemistry_Notes>  (60) 
This compound has an imine and may undergo hydrolysis.

>  <s_lp_Force_Field>  (60) 
OPLS3e

>  <r_lp_Energy>  (60) 
31.4781

>  <b_lp_Chiralities_Consistent>  (60) 
1

>  <s_lp_Variant>  (60) 
18:0-1

>  <s_i_glide_gridfile>  (60) 
pfpi4k_grid

>  <i_i_glide_lignum>  (60) 
21

>  <i_i_glide_rotatable_bonds>  (60) 
1

>  <r_i_docking_score>  (60) 
-3.06521

>  <r_i_glide_ligand_efficiency>  (60) 
-0.122608

>  <r_i_glide_ligand_efficiency_sa>  (60) 
-0.358509

>  <r_i_glide_ligand_efficiency_ln>  (60) 
-0.726546

>  <r_i_glide_gscore>  (60) 
-3.06521

>  <r_i_glide_lipo>  (60) 
-0.294509

>  <r_i_glide_hbond>  (60) 
-0.0352813

>  <r_i_glide_metal>  (60) 
-0

>  <r_i_glide_rewards>  (60) 
-1.11527

>  <r_i_glide_evdw>  (60) 
-23.9625

>  <r_i_glide_ecoul>  (60) 
-3.76972

>  <r_i_glide_erotb>  (60) 
0.166864

>  <r_i_glide_esite>  (60) 
-0.0234338

>  <r_i_glide_emodel>  (60) 
-32.4032

>  <r_i_glide_energy>  (60) 
-27.7322

>  <r_i_glide_einternal>  (60) 
0.530662

>  <r_i_glide_intrahb_reward>  (60) 
-0

>  <i_i_glide_confnum>  (60) 
1

>  <i_i_glide_posenum>  (60) 
3

>  <r_i_glide_eff_state_penalty>  (60) 
0

>  <ligand_id>  (60) 
18

>  <original_smiles>  (60) 
CC1C=C2N=C3CC(C)(C)CC(=O)C3C(c3ccncc3)C2C(=O)C1

>  <smiles>  (60) 
[H]c1nc([H])c([H])c(C2([H])C3=C(N=C4C([H])([H])C(C([H])([H])[H])(C([H])([H])[H])C([H])([H])C(=O)C42[H])C([H])([H])C([H])(C([H])([H])[H])C([H])([H])C3=O)c1[H]

$$$$
18:0:1
     RDKit          3D

 49 52  0  0  1  0  0  0  0  0999 V2000
    3.9574   -3.0401   -0.6759 C   0  0  0  0  0  0  0  0  0  0  0  0
    3.6473   -3.6959    0.6774 C   0  0  2  0  0  0  0  0  0  0  0  0
    3.0587   -5.1041    0.4875 C   0  0  0  0  0  0  0  0  0  0  0  0
    2.5269   -5.7027    1.7768 C   0  0  0  0  0  0  0  0  0  0  0  0
    2.3901   -7.0943    1.7674 N   0  0  0  0  0  0  0  0  0  0  0  0
    1.7319   -7.7192    2.6604 C   0  0  0  0  0  0  0  0  0  0  0  0
    1.5352   -9.2229    2.5451 C   0  0  0  0  0  0  0  0  0  0  0  0
    1.5895   -9.9822    3.8876 C   0  0  0  0  0  0  0  0  0  0  0  0
    1.2230  -11.4548    3.6274 C   0  0  0  0  0  0  0  0  0  0  0  0
    3.0050   -9.9291    4.5100 C   0  0  0  0  0  0  0  0  0  0  0  0
    0.5360   -9.3818    4.8391 C   0  0  0  0  0  0  0  0  0  0  0  0
    0.7062   -7.8759    5.0505 C   0  0  0  0  0  0  0  0  0  0  0  0
    0.4920   -7.3851    6.1582 O   0  0  0  0  0  0  0  0  0  0  0  0
    1.0388   -6.9913    3.8287 C   0  0  1  0  0  0  0  0  0  0  0  0
    1.7168   -5.6229    4.1585 C   0  0  1  0  0  0  0  0  0  0  0  0
    2.8408   -5.6946    5.1926 C   0  0  0  0  0  0  0  0  0  0  0  0
    2.7290   -5.0373    6.4356 C   0  0  0  0  0  0  0  0  0  0  0  0
    3.7993   -5.1236    7.3468 C   0  0  0  0  0  0  0  0  0  0  0  0
    4.9397   -5.8018    7.0925 N   0  0  0  0  0  0  0  0  0  0  0  0
    5.0459   -6.4231    5.9007 C   0  0  0  0  0  0  0  0  0  0  0  0
    4.0400   -6.3876    4.9195 C   0  0  0  0  0  0  0  0  0  0  0  0
    2.2168   -4.9673    2.8728 C   0  0  0  0  0  0  0  0  0  0  0  0
    2.3032   -3.4878    2.8343 C   0  0  0  0  0  0  0  0  0  0  0  0
    2.0087   -2.7700    3.7894 O   0  0  0  0  0  0  0  0  0  0  0  0
    2.7114   -2.8135    1.5195 C   0  0  0  0  0  0  0  0  0  0  0  0
    3.0514   -2.8956   -1.2645 H   0  0  0  0  0  0  0  0  0  0  0  0
    4.6382   -3.6553   -1.2638 H   0  0  0  0  0  0  0  0  0  0  0  0
    4.4202   -2.0641   -0.5428 H   0  0  0  0  0  0  0  0  0  0  0  0
    4.5864   -3.7962    1.2228 H   0  0  0  0  0  0  0  0  0  0  0  0
    2.2405   -5.0850   -0.2318 H   0  0  0  0  0  0  0  0  0  0  0  0
    2.2756   -9.6314    1.8539 H   0  0  0  0  0  0  0  0  0  0  0  0
    3.8237   -5.7642    0.0756 H   0  0  0  0  0  0  0  0  0  0  0  0
    1.2177  -12.0369    4.5508 H   0  0  0  0  0  0  0  0  0  0  0  0
    1.9288  -11.9249    2.9378 H   0  0  0  0  0  0  0  0  0  0  0  0
    0.2290  -11.5341    3.1816 H   0  0  0  0  0  0  0  0  0  0  0  0
    3.0523  -10.4962    5.4412 H   0  0  0  0  0  0  0  0  0  0  0  0
    3.2990   -8.9117    4.7519 H   0  0  0  0  0  0  0  0  0  0  0  0
    3.7581  -10.3260    3.8261 H   0  0  0  0  0  0  0  0  0  0  0  0
   -0.4646   -9.5437    4.4343 H   0  0  0  0  0  0  0  0  0  0  0  0
    0.5657   -9.8938    5.8017 H   0  0  0  0  0  0  0  0  0  0  0  0
    0.0593   -6.7403    3.4277 H   0  0  0  0  0  0  0  0  0  0  0  0
    0.9260   -4.9932    4.5713 H   0  0  0  0  0  0  0  0  0  0  0  0
    1.8436   -4.4740    6.6929 H   0  0  0  0  0  0  0  0  0  0  0  0
    3.7459   -4.6294    8.3073 H   0  0  0  0  0  0  0  0  0  0  0  0
    5.9655   -6.9645    5.7262 H   0  0  0  0  0  0  0  0  0  0  0  0
    4.1951   -6.8977    3.9813 H   0  0  0  0  0  0  0  0  0  0  0  0
    0.5592   -9.3816    2.0798 H   0  0  0  0  0  0  0  0  0  0  0  0
    3.1943   -1.8644    1.7474 H   0  0  0  0  0  0  0  0  0  0  0  0
    1.8143   -2.5727    0.9508 H   0  0  0  0  0  0  0  0  0  0  0  0
  1  2  1  0
  1 26  1  0
  1 27  1  0
  1 28  1  0
  2 25  1  0
  2 29  1  1
  2  3  1  0
  3 30  1  0
  3 32  1  0
  3  4  1  0
  4  5  1  0
  4 22  2  0
  5  6  2  0
  6  7  1  0
  6 14  1  0
  7  8  1  0
  7 31  1  0
  7 47  1  0
  8  9  1  0
  8 10  1  0
  8 11  1  0
  9 33  1  0
  9 34  1  0
  9 35  1  0
 10 36  1  0
 10 37  1  0
 10 38  1  0
 11 12  1  0
 11 39  1  0
 11 40  1  0
 12 13  2  0
 12 14  1  0
 14 15  1  0
 14 41  1  6
 15 16  1  0
 15 42  1  1
 15 22  1  0
 16 21  1  0
 16 17  2  0
 17 18  1  0
 17 43  1  0
 18 19  2  0
 18 44  1  0
 19 20  1  0
 20 21  2  0
 20 45  1  0
 21 46  1  0
 22 23  1  0
 23 24  2  0
 23 25  1  0
 25 48  1  0
 25 49  1  0
M  END
>  <i_m_ct_stereo_status>  (61) 
1

>  <s_m_source_file>  (61) 
/var/tmp/pbs.5076255.sched01/tmp361wbqj1/0nt8_y6ui.sdf

>  <i_m_source_file_index>  (61) 
21

>  <i_lp_mmshare_version>  (61) 
48012

>  <i_f3d_flags>  (61) 
0

>  <s_epik_input>  (61) 
W2NIXTFbY0hdbltjSF1bY0hdYzFbQ0BASF0oW0NAQEhdKEMyMylDKD1PKVtDSDJdW0NASF0oW0NIM10pW0NIXT0yKVtDQEhdNEMoPU4zKVtDSDJdQyhbQ0gzXSkoW0NIM10pW0NIMl1DND1P

>  <s_epik_cmdline>  (61) 
J2VwaWtfcHl0aG9uJywgJy1waHQnLCAnMi4wJywgJy1waCcsICc3LjAnLCAnLXRuJywgJzgnLCAnLW1hJywgJzIwMCcsICctaW1hZScsICc8aW5maWxlLm1hZT4nLCAnLW9tYWUnLCAnPG91dGZpbGUubWFlPic=

>  <r_lp_tautomer_probability>  (61) 
0.499981

>  <r_epik_Ionization_Penalty>  (61) 
0.00165103

>  <r_epik_Ionization_Penalty_Charging>  (61) 
0

>  <r_epik_Ionization_Penalty_Neutral>  (61) 
0.00165103

>  <r_epik_State_Penalty>  (61) 
0.470098

>  <r_epik_Charging_Adjusted_Penalty>  (61) 
0.470098

>  <i_epik_Tot_Q>  (61) 
0

>  <i_epik_Tot_abs_Q>  (61) 
0

>  <s_epik_Chemistry_Notes>  (61) 
This compound has an imine and may undergo hydrolysis.

>  <s_lp_Force_Field>  (61) 
OPLS3e

>  <r_lp_Energy>  (61) 
31.4781

>  <b_lp_Chiralities_Consistent>  (61) 
1

>  <s_lp_Variant>  (61) 
18:0-1

>  <s_i_glide_gridfile>  (61) 
pfpi4k_grid

>  <i_i_glide_lignum>  (61) 
21

>  <i_i_glide_rotatable_bonds>  (61) 
1

>  <r_i_docking_score>  (61) 
-2.6595

>  <r_i_glide_ligand_efficiency>  (61) 
-0.10638

>  <r_i_glide_ligand_efficiency_sa>  (61) 
-0.311057

>  <r_i_glide_ligand_efficiency_ln>  (61) 
-0.630381

>  <r_i_glide_gscore>  (61) 
-2.6595

>  <r_i_glide_lipo>  (61) 
-0.23479

>  <r_i_glide_hbond>  (61) 
0

>  <r_i_glide_metal>  (61) 
-0

>  <r_i_glide_rewards>  (61) 
-1.11527

>  <r_i_glide_evdw>  (61) 
-22.7361

>  <r_i_glide_ecoul>  (61) 
-2.01299

>  <r_i_glide_erotb>  (61) 
0.166864

>  <r_i_glide_esite>  (61) 
-0.0375514

>  <r_i_glide_emodel>  (61) 
-29.6967

>  <r_i_glide_energy>  (61) 
-24.7491

>  <r_i_glide_einternal>  (61) 
0.0239483

>  <r_i_glide_intrahb_reward>  (61) 
-0

>  <i_i_glide_confnum>  (61) 
4

>  <i_i_glide_posenum>  (61) 
31

>  <r_i_glide_eff_state_penalty>  (61) 
0

>  <ligand_id>  (61) 
18

>  <original_smiles>  (61) 
CC1C=C2N=C3CC(C)(C)CC(=O)C3C(c3ccncc3)C2C(=O)C1

>  <smiles>  (61) 
[H]c1nc([H])c([H])c(C2([H])C3=C(N=C4C([H])([H])C(C([H])([H])[H])(C([H])([H])[H])C([H])([H])C(=O)C42[H])C([H])([H])C([H])(C([H])([H])[H])C([H])([H])C3=O)c1[H]

$$$$
18:0:2
     RDKit          3D

 49 52  0  0  1  0  0  0  0  0999 V2000
    4.2369   -2.3423   -0.9217 C   0  0  0  0  0  0  0  0  0  0  0  0
    3.8757   -3.0130    0.4108 C   0  0  2  0  0  0  0  0  0  0  0  0
    3.0408   -4.2840    0.1854 C   0  0  0  0  0  0  0  0  0  0  0  0
    2.4785   -4.8589    1.4725 C   0  0  0  0  0  0  0  0  0  0  0  0
    2.0827   -6.1989    1.3963 N   0  0  0  0  0  0  0  0  0  0  0  0
    1.3732   -6.7494    2.2973 C   0  0  0  0  0  0  0  0  0  0  0  0
    0.8961   -8.1784    2.1132 C   0  0  0  0  0  0  0  0  0  0  0  0
    0.8725   -9.0137    3.4092 C   0  0  0  0  0  0  0  0  0  0  0  0
    0.2343  -10.3757    3.0948 C   0  0  0  0  0  0  0  0  0  0  0  0
    2.3039   -9.2506    3.9519 C   0  0  0  0  0  0  0  0  0  0  0  0
   -0.0101   -8.2986    4.4515 C   0  0  0  0  0  0  0  0  0  0  0  0
    0.4481   -6.8669    4.7342 C   0  0  0  0  0  0  0  0  0  0  0  0
    0.3661   -6.4128    5.8743 O   0  0  0  0  0  0  0  0  0  0  0  0
    0.8877   -5.9870    3.5446 C   0  0  1  0  0  0  0  0  0  0  0  0
    1.8061   -4.7763    3.8965 C   0  0  1  0  0  0  0  0  0  0  0  0
    2.9428   -5.0958    4.8635 C   0  0  0  0  0  0  0  0  0  0  0  0
    3.9980   -5.9575    4.4954 C   0  0  0  0  0  0  0  0  0  0  0  0
    5.0266   -6.2066    5.4221 C   0  0  0  0  0  0  0  0  0  0  0  0
    5.0701   -5.6455    6.6482 N   0  0  0  0  0  0  0  0  0  0  0  0
    4.0667   -4.8106    6.9921 C   0  0  0  0  0  0  0  0  0  0  0  0
    2.9884   -4.5025    6.1416 C   0  0  0  0  0  0  0  0  0  0  0  0
    2.3541   -4.1458    2.6190 C   0  0  0  0  0  0  0  0  0  0  0  0
    2.6927   -2.7030    2.6471 C   0  0  0  0  0  0  0  0  0  0  0  0
    2.5822   -2.0051    3.6546 O   0  0  0  0  0  0  0  0  0  0  0  0
    3.1464   -2.0325    1.3471 C   0  0  0  0  0  0  0  0  0  0  0  0
    3.3436   -2.0052   -1.4476 H   0  0  0  0  0  0  0  0  0  0  0  0
    4.7662   -3.0330   -1.5776 H   0  0  0  0  0  0  0  0  0  0  0  0
    4.8754   -1.4755   -0.7645 H   0  0  0  0  0  0  0  0  0  0  0  0
    4.8047   -3.3122    0.8968 H   0  0  0  0  0  0  0  0  0  0  0  0
    2.2035   -4.0749   -0.4812 H   0  0  0  0  0  0  0  0  0  0  0  0
    1.5185   -8.6707    1.3641 H   0  0  0  0  0  0  0  0  0  0  0  0
    3.6523   -5.0429   -0.3073 H   0  0  0  0  0  0  0  0  0  0  0  0
    0.1719  -11.0030    3.9853 H   0  0  0  0  0  0  0  0  0  0  0  0
    0.8061  -10.9219    2.3452 H   0  0  0  0  0  0  0  0  0  0  0  0
   -0.7784  -10.2539    2.7066 H   0  0  0  0  0  0  0  0  0  0  0  0
    2.2937   -9.8721    4.8497 H   0  0  0  0  0  0  0  0  0  0  0  0
    2.7942   -8.3187    4.2253 H   0  0  0  0  0  0  0  0  0  0  0  0
    2.9400   -9.7366    3.2092 H   0  0  0  0  0  0  0  0  0  0  0  0
   -1.0409   -8.2584    4.0971 H   0  0  0  0  0  0  0  0  0  0  0  0
   -0.0265   -8.8678    5.3819 H   0  0  0  0  0  0  0  0  0  0  0  0
   -0.0492   -5.5440    3.2215 H   0  0  0  0  0  0  0  0  0  0  0  0
    1.1551   -4.0444    4.3802 H   0  0  0  0  0  0  0  0  0  0  0  0
    4.0290   -6.4294    3.5237 H   0  0  0  0  0  0  0  0  0  0  0  0
    5.8407   -6.8727    5.1739 H   0  0  0  0  0  0  0  0  0  0  0  0
    4.1310   -4.3691    7.9767 H   0  0  0  0  0  0  0  0  0  0  0  0
    2.2177   -3.8194    6.4678 H   0  0  0  0  0  0  0  0  0  0  0  0
   -0.1085   -8.1321    1.6880 H   0  0  0  0  0  0  0  0  0  0  0  0
    3.8040   -1.2009    1.5959 H   0  0  0  0  0  0  0  0  0  0  0  0
    2.2690   -1.6058    0.8565 H   0  0  0  0  0  0  0  0  0  0  0  0
  1  2  1  0
  1 26  1  0
  1 27  1  0
  1 28  1  0
  2 25  1  0
  2 29  1  1
  2  3  1  0
  3 30  1  0
  3 32  1  0
  3  4  1  0
  4  5  1  0
  4 22  2  0
  5  6  2  0
  6  7  1  0
  6 14  1  0
  7  8  1  0
  7 31  1  0
  7 47  1  0
  8  9  1  0
  8 10  1  0
  8 11  1  0
  9 33  1  0
  9 34  1  0
  9 35  1  0
 10 36  1  0
 10 37  1  0
 10 38  1  0
 11 12  1  0
 11 39  1  0
 11 40  1  0
 12 13  2  0
 12 14  1  0
 14 15  1  0
 14 41  1  6
 15 16  1  0
 15 42  1  1
 15 22  1  0
 16 21  1  0
 16 17  2  0
 17 18  1  0
 17 43  1  0
 18 19  2  0
 18 44  1  0
 19 20  1  0
 20 21  2  0
 20 45  1  0
 21 46  1  0
 22 23  1  0
 23 24  2  0
 23 25  1  0
 25 48  1  0
 25 49  1  0
M  END
>  <i_m_ct_stereo_status>  (62) 
1

>  <s_m_source_file>  (62) 
/var/tmp/pbs.5076255.sched01/tmp361wbqj1/0nt8_y6ui.sdf

>  <i_m_source_file_index>  (62) 
21

>  <i_lp_mmshare_version>  (62) 
48012

>  <i_f3d_flags>  (62) 
0

>  <s_epik_input>  (62) 
W2NIXTFbY0hdbltjSF1bY0hdYzFbQ0BASF0oW0NAQEhdKEMyMylDKD1PKVtDSDJdW0NASF0oW0NIM10pW0NIXT0yKVtDQEhdNEMoPU4zKVtDSDJdQyhbQ0gzXSkoW0NIM10pW0NIMl1DND1P

>  <s_epik_cmdline>  (62) 
J2VwaWtfcHl0aG9uJywgJy1waHQnLCAnMi4wJywgJy1waCcsICc3LjAnLCAnLXRuJywgJzgnLCAnLW1hJywgJzIwMCcsICctaW1hZScsICc8aW5maWxlLm1hZT4nLCAnLW9tYWUnLCAnPG91dGZpbGUubWFlPic=

>  <r_lp_tautomer_probability>  (62) 
0.499981

>  <r_epik_Ionization_Penalty>  (62) 
0.00165103

>  <r_epik_Ionization_Penalty_Charging>  (62) 
0

>  <r_epik_Ionization_Penalty_Neutral>  (62) 
0.00165103

>  <r_epik_State_Penalty>  (62) 
0.470098

>  <r_epik_Charging_Adjusted_Penalty>  (62) 
0.470098

>  <i_epik_Tot_Q>  (62) 
0

>  <i_epik_Tot_abs_Q>  (62) 
0

>  <s_epik_Chemistry_Notes>  (62) 
This compound has an imine and may undergo hydrolysis.

>  <s_lp_Force_Field>  (62) 
OPLS3e

>  <r_lp_Energy>  (62) 
31.4781

>  <b_lp_Chiralities_Consistent>  (62) 
1

>  <s_lp_Variant>  (62) 
18:0-1

>  <s_i_glide_gridfile>  (62) 
pfpi4k_grid

>  <i_i_glide_lignum>  (62) 
21

>  <i_i_glide_rotatable_bonds>  (62) 
1

>  <r_i_docking_score>  (62) 
-2.43897

>  <r_i_glide_ligand_efficiency>  (62) 
-0.0975587

>  <r_i_glide_ligand_efficiency_sa>  (62) 
-0.285263

>  <r_i_glide_ligand_efficiency_ln>  (62) 
-0.578109

>  <r_i_glide_gscore>  (62) 
-2.43897

>  <r_i_glide_lipo>  (62) 
-0.00193022

>  <r_i_glide_hbond>  (62) 
0

>  <r_i_glide_metal>  (62) 
-0

>  <r_i_glide_rewards>  (62) 
-1.11527

>  <r_i_glide_evdw>  (62) 
-22.6463

>  <r_i_glide_ecoul>  (62) 
-2.00554

>  <r_i_glide_erotb>  (62) 
0.166864

>  <r_i_glide_esite>  (62) 
-0.0554891

>  <r_i_glide_emodel>  (62) 
-29.2059

>  <r_i_glide_energy>  (62) 
-24.6518

>  <r_i_glide_einternal>  (62) 
0.000593462

>  <r_i_glide_intrahb_reward>  (62) 
-0

>  <i_i_glide_confnum>  (62) 
1

>  <i_i_glide_posenum>  (62) 
6

>  <r_i_glide_eff_state_penalty>  (62) 
0

>  <ligand_id>  (62) 
18

>  <original_smiles>  (62) 
CC1C=C2N=C3CC(C)(C)CC(=O)C3C(c3ccncc3)C2C(=O)C1

>  <smiles>  (62) 
[H]c1nc([H])c([H])c(C2([H])C3=C(N=C4C([H])([H])C(C([H])([H])[H])(C([H])([H])[H])C([H])([H])C(=O)C42[H])C([H])([H])C([H])(C([H])([H])[H])C([H])([H])C3=O)c1[H]

$$$$
18:1:0
     RDKit          3D

 49 52  0  0  1  0  0  0  0  0999 V2000
   -0.6138   -9.3147    2.7389 C   0  0  0  0  0  0  0  0  0  0  0  0
    0.6446   -8.4443    2.9004 C   0  0  2  0  0  0  0  0  0  0  0  0
    0.4787   -7.0852    2.1791 C   0  0  0  0  0  0  0  0  0  0  0  0
    1.7941   -6.4086    1.8199 C   0  0  0  0  0  0  0  0  0  0  0  0
    1.8462   -5.5954    0.8358 N   0  0  0  0  0  0  0  0  0  0  0  0
    3.0477   -5.0020    0.4431 C   0  0  0  0  0  0  0  0  0  0  0  0
    2.9906   -3.8875   -0.3215 C   0  0  0  0  0  0  0  0  0  0  0  0
    4.2045   -3.0815   -0.7660 C   0  0  0  0  0  0  0  0  0  0  0  0
    4.5797   -3.5363   -2.1905 C   0  0  0  0  0  0  0  0  0  0  0  0
    3.8481   -1.5830   -0.7737 C   0  0  0  0  0  0  0  0  0  0  0  0
    5.3806   -3.2926    0.2117 C   0  0  0  0  0  0  0  0  0  0  0  0
    5.5992   -4.7610    0.5700 C   0  0  0  0  0  0  0  0  0  0  0  0
    6.7279   -5.2400    0.5940 O   0  0  0  0  0  0  0  0  0  0  0  0
    4.3662   -5.6036    0.9325 C   0  0  1  0  0  0  0  0  0  0  0  0
    4.2677   -5.9777    2.4278 C   0  0  1  0  0  0  0  0  0  0  0  0
    4.3897   -4.8008    3.4019 C   0  0  0  0  0  0  0  0  0  0  0  0
    5.3182   -4.8482    4.4632 C   0  0  0  0  0  0  0  0  0  0  0  0
    5.4166   -3.7459    5.3362 C   0  0  0  0  0  0  0  0  0  0  0  0
    4.6748   -2.6274    5.2149 N   0  0  0  0  0  0  0  0  0  0  0  0
    3.7777   -2.5842    4.2062 C   0  0  0  0  0  0  0  0  0  0  0  0
    3.5897   -3.6378    3.2951 C   0  0  0  0  0  0  0  0  0  0  0  0
    2.9853   -6.8140    2.7071 C   0  0  2  0  0  0  0  0  0  0  0  0
    3.1764   -8.3351    2.5328 C   0  0  0  0  0  0  0  0  0  0  0  0
    4.2882   -8.8538    2.4762 O   0  0  0  0  0  0  0  0  0  0  0  0
    1.9143   -9.2140    2.4661 C   0  0  0  0  0  0  0  0  0  0  0  0
   -0.7873   -9.5802    1.6951 H   0  0  0  0  0  0  0  0  0  0  0  0
   -1.5011   -8.7968    3.1033 H   0  0  0  0  0  0  0  0  0  0  0  0
   -0.5169  -10.2408    3.3065 H   0  0  0  0  0  0  0  0  0  0  0  0
    0.7571   -8.2351    3.9652 H   0  0  0  0  0  0  0  0  0  0  0  0
   -0.0879   -7.2181    1.2569 H   0  0  0  0  0  0  0  0  0  0  0  0
    2.0302   -3.4886   -0.6218 H   0  0  0  0  0  0  0  0  0  0  0  0
   -0.0932   -6.4092    2.8147 H   0  0  0  0  0  0  0  0  0  0  0  0
    5.4659   -3.0287   -2.5726 H   0  0  0  0  0  0  0  0  0  0  0  0
    3.7531   -3.3689   -2.8846 H   0  0  0  0  0  0  0  0  0  0  0  0
    4.7807   -4.6099   -2.2074 H   0  0  0  0  0  0  0  0  0  0  0  0
    4.6978   -0.9722   -1.0772 H   0  0  0  0  0  0  0  0  0  0  0  0
    3.5459   -1.2509    0.2198 H   0  0  0  0  0  0  0  0  0  0  0  0
    3.0202   -1.3672   -1.4506 H   0  0  0  0  0  0  0  0  0  0  0  0
    6.2977   -2.8767   -0.2038 H   0  0  0  0  0  0  0  0  0  0  0  0
    5.1932   -2.7554    1.1407 H   0  0  0  0  0  0  0  0  0  0  0  0
    4.4707   -6.5311    0.3666 H   0  0  0  0  0  0  0  0  0  0  0  0
    5.1489   -6.5861    2.6307 H   0  0  0  0  0  0  0  0  0  0  0  0
    5.9568   -5.7078    4.6112 H   0  0  0  0  0  0  0  0  0  0  0  0
    6.1273   -3.7499    6.1512 H   0  0  0  0  0  0  0  0  0  0  0  0
    3.1929   -1.6763    4.1250 H   0  0  0  0  0  0  0  0  0  0  0  0
    2.8406   -3.5151    2.5262 H   0  0  0  0  0  0  0  0  0  0  0  0
    2.7160   -6.6767    3.7558 H   0  0  0  0  0  0  0  0  0  0  0  0
    2.0622  -10.0776    3.1151 H   0  0  0  0  0  0  0  0  0  0  0  0
    1.8108   -9.5985    1.4491 H   0  0  0  0  0  0  0  0  0  0  0  0
  1  2  1  0
  1 26  1  0
  1 27  1  0
  1 28  1  0
  2 25  1  0
  2 29  1  1
  2  3  1  0
  3 30  1  0
  3 32  1  0
  3  4  1  0
  4 22  1  0
  4  5  2  0
  5  6  1  0
  6 14  1  0
  6  7  2  0
  7  8  1  0
  7 31  1  0
  8  9  1  0
  8 10  1  0
  8 11  1  0
  9 33  1  0
  9 34  1  0
  9 35  1  0
 10 36  1  0
 10 37  1  0
 10 38  1  0
 11 12  1  0
 11 39  1  0
 11 40  1  0
 12 13  2  0
 12 14  1  0
 14 15  1  0
 14 41  1  6
 15 16  1  0
 15 22  1  0
 15 42  1  1
 16 21  1  0
 16 17  2  0
 17 18  1  0
 17 43  1  0
 18 19  2  0
 18 44  1  0
 19 20  1  0
 20 21  2  0
 20 45  1  0
 21 46  1  0
 22 23  1  0
 22 47  1  1
 23 24  2  0
 23 25  1  0
 25 48  1  0
 25 49  1  0
M  END
>  <i_m_ct_stereo_status>  (63) 
1

>  <s_m_source_file>  (63) 
/var/tmp/pbs.5076255.sched01/tmp361wbqj1/0nt8_y6ui.sdf

>  <i_m_source_file_index>  (63) 
22

>  <i_lp_mmshare_version>  (63) 
48012

>  <i_f3d_flags>  (63) 
0

>  <s_epik_input>  (63) 
W2NIXTFbY0hdbltjSF1bY0hdYzFbQ0BASF0oW0NAQEhdKEMyMylDKD1PKVtDSDJdW0NASF0oW0NIM10pW0NIXT0yKVtDQEhdNEMoPU4zKVtDSDJdQyhbQ0gzXSkoW0NIM10pW0NIMl1DND1P

>  <s_epik_cmdline>  (63) 
J2VwaWtfcHl0aG9uJywgJy1waHQnLCAnMi4wJywgJy1waCcsICc3LjAnLCAnLXRuJywgJzgnLCAnLW1hJywgJzIwMCcsICctaW1hZScsICc8aW5maWxlLm1hZT4nLCAnLW9tYWUnLCAnPG91dGZpbGUubWFlPic=

>  <r_lp_tautomer_probability>  (63) 
0.499981

>  <r_epik_Ionization_Penalty>  (63) 
0.00461527

>  <r_epik_Ionization_Penalty_Charging>  (63) 
0

>  <r_epik_Ionization_Penalty_Neutral>  (63) 
0.00461527

>  <r_epik_State_Penalty>  (63) 
0.632971

>  <r_epik_Charging_Adjusted_Penalty>  (63) 
0.632971

>  <i_epik_Tot_Q>  (63) 
0

>  <i_epik_Tot_abs_Q>  (63) 
0

>  <s_epik_Chemistry_Notes>  (63) 
This compound has an imine and may undergo hydrolysis.

>  <s_lp_Force_Field>  (63) 
OPLS3e

>  <r_lp_Energy>  (63) 
24.1074

>  <b_lp_Chiralities_Consistent>  (63) 
1

>  <s_lp_Variant>  (63) 
18:0-2

>  <s_i_glide_gridfile>  (63) 
pfpi4k_grid

>  <i_i_glide_lignum>  (63) 
22

>  <i_i_glide_rotatable_bonds>  (63) 
1

>  <r_i_docking_score>  (63) 
-3.07589

>  <r_i_glide_ligand_efficiency>  (63) 
-0.123035

>  <r_i_glide_ligand_efficiency_sa>  (63) 
-0.359758

>  <r_i_glide_ligand_efficiency_ln>  (63) 
-0.729077

>  <r_i_glide_gscore>  (63) 
-3.07589

>  <r_i_glide_lipo>  (63) 
-0.183783

>  <r_i_glide_hbond>  (63) 
-0.0857161

>  <r_i_glide_metal>  (63) 
-0

>  <r_i_glide_rewards>  (63) 
-1.23334

>  <r_i_glide_evdw>  (63) 
-27.1624

>  <r_i_glide_ecoul>  (63) 
-2.27687

>  <r_i_glide_erotb>  (63) 
0.166864

>  <r_i_glide_esite>  (63) 
-0.0402605

>  <r_i_glide_emodel>  (63) 
-34.6256

>  <r_i_glide_energy>  (63) 
-29.4393

>  <r_i_glide_einternal>  (63) 
0.477431

>  <r_i_glide_intrahb_reward>  (63) 
-0

>  <i_i_glide_confnum>  (63) 
3

>  <i_i_glide_posenum>  (63) 
6

>  <r_i_glide_eff_state_penalty>  (63) 
0

>  <ligand_id>  (63) 
18

>  <original_smiles>  (63) 
CC1C=C2N=C3CC(C)(C)CC(=O)C3C(c3ccncc3)C2C(=O)C1

>  <smiles>  (63) 
[H]C1=C2N=C3C([H])([H])C([H])(C([H])([H])[H])C([H])([H])C(=O)C3([H])C([H])(c3c([H])c([H])nc([H])c3[H])C2([H])C(=O)C([H])([H])C1(C([H])([H])[H])C([H])([H])[H]

$$$$
18:1:1
     RDKit          3D

 49 52  0  0  1  0  0  0  0  0999 V2000
    3.8259   -2.1260   -1.3447 C   0  0  0  0  0  0  0  0  0  0  0  0
    3.8264   -2.9475   -0.0470 C   0  0  2  0  0  0  0  0  0  0  0  0
    3.1513   -4.3222   -0.2633 C   0  0  0  0  0  0  0  0  0  0  0  0
    2.6258   -4.9694    1.0116 C   0  0  0  0  0  0  0  0  0  0  0  0
    1.6703   -5.8176    0.9627 N   0  0  0  0  0  0  0  0  0  0  0  0
    1.1259   -6.3623    2.1238 C   0  0  0  0  0  0  0  0  0  0  0  0
    0.3743   -7.4709    1.9951 C   0  0  0  0  0  0  0  0  0  0  0  0
   -0.2356   -8.2349    3.1600 C   0  0  0  0  0  0  0  0  0  0  0  0
   -1.7018   -7.7848    3.3042 C   0  0  0  0  0  0  0  0  0  0  0  0
   -0.1742   -9.7445    2.8716 C   0  0  0  0  0  0  0  0  0  0  0  0
    0.5654   -7.9699    4.4567 C   0  0  0  0  0  0  0  0  0  0  0  0
    0.8775   -6.4899    4.6738 C   0  0  0  0  0  0  0  0  0  0  0  0
    0.7062   -5.9527    5.7674 O   0  0  0  0  0  0  0  0  0  0  0  0
    1.4068   -5.6924    3.4696 C   0  0  1  0  0  0  0  0  0  0  0  0
    2.8930   -5.2867    3.5696 C   0  0  1  0  0  0  0  0  0  0  0  0
    3.8445   -6.4537    3.8468 C   0  0  0  0  0  0  0  0  0  0  0  0
    4.1139   -7.4385    2.8684 C   0  0  0  0  0  0  0  0  0  0  0  0
    5.0022   -8.4829    3.1731 C   0  0  0  0  0  0  0  0  0  0  0  0
    5.6271   -8.5961    4.3608 N   0  0  0  0  0  0  0  0  0  0  0  0
    5.3700   -7.6585    5.2984 C   0  0  0  0  0  0  0  0  0  0  0  0
    4.4925   -6.5762    5.0928 C   0  0  0  0  0  0  0  0  0  0  0  0
    3.3279   -4.4906    2.3013 C   0  0  2  0  0  0  0  0  0  0  0  0
    3.1120   -2.9671    2.4073 C   0  0  0  0  0  0  0  0  0  0  0  0
    2.8845   -2.4082    3.4794 O   0  0  0  0  0  0  0  0  0  0  0  0
    3.2115   -2.1395    1.1179 C   0  0  0  0  0  0  0  0  0  0  0  0
    2.8095   -1.8874   -1.6614 H   0  0  0  0  0  0  0  0  0  0  0  0
    4.3049   -2.6742   -2.1564 H   0  0  0  0  0  0  0  0  0  0  0  0
    4.3559   -1.1835   -1.2136 H   0  0  0  0  0  0  0  0  0  0  0  0
    4.8705   -3.1336    0.2143 H   0  0  0  0  0  0  0  0  0  0  0  0
    2.3178   -4.2238   -0.9610 H   0  0  0  0  0  0  0  0  0  0  0  0
    0.2167   -7.8889    1.0111 H   0  0  0  0  0  0  0  0  0  0  0  0
    3.8671   -5.0068   -0.7207 H   0  0  0  0  0  0  0  0  0  0  0  0
   -2.1769   -8.2851    4.1481 H   0  0  0  0  0  0  0  0  0  0  0  0
   -2.2744   -8.0115    2.4025 H   0  0  0  0  0  0  0  0  0  0  0  0
   -1.7688   -6.7079    3.4718 H   0  0  0  0  0  0  0  0  0  0  0  0
   -0.5905  -10.3215    3.6918 H   0  0  0  0  0  0  0  0  0  0  0  0
    0.8563  -10.0744    2.7255 H   0  0  0  0  0  0  0  0  0  0  0  0
   -0.7376  -10.0069    1.9770 H   0  0  0  0  0  0  0  0  0  0  0  0
    0.0280   -8.3641    5.3175 H   0  0  0  0  0  0  0  0  0  0  0  0
    1.5172   -8.5005    4.4189 H   0  0  0  0  0  0  0  0  0  0  0  0
    0.8197   -4.7729    3.4532 H   0  0  0  0  0  0  0  0  0  0  0  0
    2.9743   -4.6433    4.4489 H   0  0  0  0  0  0  0  0  0  0  0  0
    3.6573   -7.4237    1.8923 H   0  0  0  0  0  0  0  0  0  0  0  0
    5.2201   -9.2451    2.4402 H   0  0  0  0  0  0  0  0  0  0  0  0
    5.8868   -7.7852    6.2400 H   0  0  0  0  0  0  0  0  0  0  0  0
    4.3252   -5.8584    5.8852 H   0  0  0  0  0  0  0  0  0  0  0  0
    4.4040   -4.6231    2.1842 H   0  0  0  0  0  0  0  0  0  0  0  0
    3.8231   -1.2612    1.3210 H   0  0  0  0  0  0  0  0  0  0  0  0
    2.2135   -1.7798    0.8582 H   0  0  0  0  0  0  0  0  0  0  0  0
  1  2  1  0
  1 26  1  0
  1 27  1  0
  1 28  1  0
  2 25  1  0
  2 29  1  1
  2  3  1  0
  3 30  1  0
  3 32  1  0
  3  4  1  0
  4 22  1  0
  4  5  2  0
  5  6  1  0
  6 14  1  0
  6  7  2  0
  7  8  1  0
  7 31  1  0
  8  9  1  0
  8 10  1  0
  8 11  1  0
  9 33  1  0
  9 34  1  0
  9 35  1  0
 10 36  1  0
 10 37  1  0
 10 38  1  0
 11 12  1  0
 11 39  1  0
 11 40  1  0
 12 13  2  0
 12 14  1  0
 14 15  1  0
 14 41  1  6
 15 16  1  0
 15 22  1  0
 15 42  1  1
 16 21  1  0
 16 17  2  0
 17 18  1  0
 17 43  1  0
 18 19  2  0
 18 44  1  0
 19 20  1  0
 20 21  2  0
 20 45  1  0
 21 46  1  0
 22 23  1  0
 22 47  1  6
 23 24  2  0
 23 25  1  0
 25 48  1  0
 25 49  1  0
M  END
>  <i_m_ct_stereo_status>  (64) 
1

>  <s_m_source_file>  (64) 
/var/tmp/pbs.5076255.sched01/tmp361wbqj1/0nt8_y6ui.sdf

>  <i_m_source_file_index>  (64) 
22

>  <i_lp_mmshare_version>  (64) 
48012

>  <i_f3d_flags>  (64) 
0

>  <s_epik_input>  (64) 
W2NIXTFbY0hdbltjSF1bY0hdYzFbQ0BASF0oW0NAQEhdKEMyMylDKD1PKVtDSDJdW0NASF0oW0NIM10pW0NIXT0yKVtDQEhdNEMoPU4zKVtDSDJdQyhbQ0gzXSkoW0NIM10pW0NIMl1DND1P

>  <s_epik_cmdline>  (64) 
J2VwaWtfcHl0aG9uJywgJy1waHQnLCAnMi4wJywgJy1waCcsICc3LjAnLCAnLXRuJywgJzgnLCAnLW1hJywgJzIwMCcsICctaW1hZScsICc8aW5maWxlLm1hZT4nLCAnLW9tYWUnLCAnPG91dGZpbGUubWFlPic=

>  <r_lp_tautomer_probability>  (64) 
0.499981

>  <r_epik_Ionization_Penalty>  (64) 
0.00461527

>  <r_epik_Ionization_Penalty_Charging>  (64) 
0

>  <r_epik_Ionization_Penalty_Neutral>  (64) 
0.00461527

>  <r_epik_State_Penalty>  (64) 
0.632971

>  <r_epik_Charging_Adjusted_Penalty>  (64) 
0.632971

>  <i_epik_Tot_Q>  (64) 
0

>  <i_epik_Tot_abs_Q>  (64) 
0

>  <s_epik_Chemistry_Notes>  (64) 
This compound has an imine and may undergo hydrolysis.

>  <s_lp_Force_Field>  (64) 
OPLS3e

>  <r_lp_Energy>  (64) 
24.1074

>  <b_lp_Chiralities_Consistent>  (64) 
1

>  <s_lp_Variant>  (64) 
18:0-2

>  <s_i_glide_gridfile>  (64) 
pfpi4k_grid

>  <i_i_glide_lignum>  (64) 
22

>  <i_i_glide_rotatable_bonds>  (64) 
1

>  <r_i_docking_score>  (64) 
-2.92433

>  <r_i_glide_ligand_efficiency>  (64) 
-0.116973

>  <r_i_glide_ligand_efficiency_sa>  (64) 
-0.342031

>  <r_i_glide_ligand_efficiency_ln>  (64) 
-0.693153

>  <r_i_glide_gscore>  (64) 
-2.92433

>  <r_i_glide_lipo>  (64) 
-0.000363095

>  <r_i_glide_hbond>  (64) 
-0.110872

>  <r_i_glide_metal>  (64) 
-0

>  <r_i_glide_rewards>  (64) 
-1.11527

>  <r_i_glide_evdw>  (64) 
-24.8914

>  <r_i_glide_ecoul>  (64) 
-3.88569

>  <r_i_glide_erotb>  (64) 
0.166864

>  <r_i_glide_esite>  (64) 
-0.0372676

>  <r_i_glide_emodel>  (64) 
-33.8525

>  <r_i_glide_energy>  (64) 
-28.7771

>  <r_i_glide_einternal>  (64) 
0.182305

>  <r_i_glide_intrahb_reward>  (64) 
-0

>  <i_i_glide_confnum>  (64) 
4

>  <i_i_glide_posenum>  (64) 
5

>  <r_i_glide_eff_state_penalty>  (64) 
0

>  <ligand_id>  (64) 
18

>  <original_smiles>  (64) 
CC1C=C2N=C3CC(C)(C)CC(=O)C3C(c3ccncc3)C2C(=O)C1

>  <smiles>  (64) 
[H]C1=C2N=C3C([H])([H])C([H])(C([H])([H])[H])C([H])([H])C(=O)C3([H])C([H])(c3c([H])c([H])nc([H])c3[H])C2([H])C(=O)C([H])([H])C1(C([H])([H])[H])C([H])([H])[H]

$$$$
18:1:2
     RDKit          3D

 49 52  0  0  1  0  0  0  0  0999 V2000
    4.1863   -1.9503   -1.0829 C   0  0  0  0  0  0  0  0  0  0  0  0
    4.2662   -3.0197    0.0160 C   0  0  2  0  0  0  0  0  0  0  0  0
    3.3081   -4.1958   -0.2811 C   0  0  0  0  0  0  0  0  0  0  0  0
    2.9120   -5.0063    0.9439 C   0  0  0  0  0  0  0  0  0  0  0  0
    1.8148   -5.6586    0.9608 N   0  0  0  0  0  0  0  0  0  0  0  0
    1.3965   -6.3561    2.0953 C   0  0  0  0  0  0  0  0  0  0  0  0
    0.4288   -7.2838    1.9451 C   0  0  0  0  0  0  0  0  0  0  0  0
   -0.0949   -8.1621    3.0706 C   0  0  0  0  0  0  0  0  0  0  0  0
   -1.3859   -7.5188    3.6210 C   0  0  0  0  0  0  0  0  0  0  0  0
   -0.4002   -9.5644    2.5175 C   0  0  0  0  0  0  0  0  0  0  0  0
    0.9740   -8.3113    4.1802 C   0  0  0  0  0  0  0  0  0  0  0  0
    1.6116   -6.9804    4.5755 C   0  0  0  0  0  0  0  0  0  0  0  0
    1.7723   -6.6729    5.7549 O   0  0  0  0  0  0  0  0  0  0  0  0
    2.0517   -6.0411    3.4404 C   0  0  1  0  0  0  0  0  0  0  0  0
    3.5813   -5.9029    3.2747 C   0  0  1  0  0  0  0  0  0  0  0  0
    4.3183   -7.2381    3.1520 C   0  0  0  0  0  0  0  0  0  0  0  0
    5.0821   -7.7317    4.2302 C   0  0  0  0  0  0  0  0  0  0  0  0
    5.7455   -8.9648    4.0885 C   0  0  0  0  0  0  0  0  0  0  0  0
    5.6976   -9.7080    2.9635 N   0  0  0  0  0  0  0  0  0  0  0  0
    4.9612   -9.2420    1.9336 C   0  0  0  0  0  0  0  0  0  0  0  0
    4.2633   -8.0208    1.9763 C   0  0  0  0  0  0  0  0  0  0  0  0
    3.9263   -4.9348    2.1035 C   0  0  2  0  0  0  0  0  0  0  0  0
    4.0427   -3.4530    2.5245 C   0  0  0  0  0  0  0  0  0  0  0  0
    4.1462   -3.1087    3.7009 O   0  0  0  0  0  0  0  0  0  0  0  0
    4.0595   -2.3953    1.4126 C   0  0  0  0  0  0  0  0  0  0  0  0
    3.1955   -1.4922   -1.1166 H   0  0  0  0  0  0  0  0  0  0  0  0
    4.3835   -2.3830   -2.0646 H   0  0  0  0  0  0  0  0  0  0  0  0
    4.9128   -1.1562   -0.9120 H   0  0  0  0  0  0  0  0  0  0  0  0
    5.2797   -3.4238   -0.0018 H   0  0  0  0  0  0  0  0  0  0  0  0
    2.3952   -3.8346   -0.7592 H   0  0  0  0  0  0  0  0  0  0  0  0
    0.0121   -7.4703    0.9641 H   0  0  0  0  0  0  0  0  0  0  0  0
    3.8071   -4.8609   -0.9845 H   0  0  0  0  0  0  0  0  0  0  0  0
   -1.7928   -8.0954    4.4526 H   0  0  0  0  0  0  0  0  0  0  0  0
   -2.1546   -7.4522    2.8477 H   0  0  0  0  0  0  0  0  0  0  0  0
   -1.1960   -6.5060    3.9843 H   0  0  0  0  0  0  0  0  0  0  0  0
   -0.7556  -10.2359    3.2975 H   0  0  0  0  0  0  0  0  0  0  0  0
    0.4984  -10.0117    2.0890 H   0  0  0  0  0  0  0  0  0  0  0  0
   -1.1569   -9.5352    1.7329 H   0  0  0  0  0  0  0  0  0  0  0  0
    0.5454   -8.7909    5.0587 H   0  0  0  0  0  0  0  0  0  0  0  0
    1.7779   -8.9628    3.8353 H   0  0  0  0  0  0  0  0  0  0  0  0
    1.6668   -5.0589    3.7187 H   0  0  0  0  0  0  0  0  0  0  0  0
    3.9480   -5.4758    4.2093 H   0  0  0  0  0  0  0  0  0  0  0  0
    5.1593   -7.1844    5.1583 H   0  0  0  0  0  0  0  0  0  0  0  0
    6.3334   -9.3692    4.9008 H   0  0  0  0  0  0  0  0  0  0  0  0
    4.9352   -9.8583    1.0459 H   0  0  0  0  0  0  0  0  0  0  0  0
    3.6989   -7.7137    1.1094 H   0  0  0  0  0  0  0  0  0  0  0  0
    4.9142   -5.2055    1.7251 H   0  0  0  0  0  0  0  0  0  0  0  0
    4.8638   -1.6904    1.6220 H   0  0  0  0  0  0  0  0  0  0  0  0
    3.1242   -1.8322    1.4481 H   0  0  0  0  0  0  0  0  0  0  0  0
  1  2  1  0
  1 26  1  0
  1 27  1  0
  1 28  1  0
  2 25  1  0
  2 29  1  1
  2  3  1  0
  3 30  1  0
  3 32  1  0
  3  4  1  0
  4 22  1  0
  4  5  2  0
  5  6  1  0
  6 14  1  0
  6  7  2  0
  7  8  1  0
  7 31  1  0
  8  9  1  0
  8 10  1  0
  8 11  1  0
  9 33  1  0
  9 34  1  0
  9 35  1  0
 10 36  1  0
 10 37  1  0
 10 38  1  0
 11 12  1  0
 11 39  1  0
 11 40  1  0
 12 13  2  0
 12 14  1  0
 14 15  1  0
 14 41  1  1
 15 16  1  0
 15 22  1  0
 15 42  1  1
 16 21  1  0
 16 17  2  0
 17 18  1  0
 17 43  1  0
 18 19  2  0
 18 44  1  0
 19 20  1  0
 20 21  2  0
 20 45  1  0
 21 46  1  0
 22 23  1  0
 22 47  1  6
 23 24  2  0
 23 25  1  0
 25 48  1  0
 25 49  1  0
M  END
>  <i_m_ct_stereo_status>  (65) 
1

>  <s_m_source_file>  (65) 
/var/tmp/pbs.5076255.sched01/tmp361wbqj1/0nt8_y6ui.sdf

>  <i_m_source_file_index>  (65) 
22

>  <i_lp_mmshare_version>  (65) 
48012

>  <i_f3d_flags>  (65) 
0

>  <s_epik_input>  (65) 
W2NIXTFbY0hdbltjSF1bY0hdYzFbQ0BASF0oW0NAQEhdKEMyMylDKD1PKVtDSDJdW0NASF0oW0NIM10pW0NIXT0yKVtDQEhdNEMoPU4zKVtDSDJdQyhbQ0gzXSkoW0NIM10pW0NIMl1DND1P

>  <s_epik_cmdline>  (65) 
J2VwaWtfcHl0aG9uJywgJy1waHQnLCAnMi4wJywgJy1waCcsICc3LjAnLCAnLXRuJywgJzgnLCAnLW1hJywgJzIwMCcsICctaW1hZScsICc8aW5maWxlLm1hZT4nLCAnLW9tYWUnLCAnPG91dGZpbGUubWFlPic=

>  <r_lp_tautomer_probability>  (65) 
0.499981

>  <r_epik_Ionization_Penalty>  (65) 
0.00461527

>  <r_epik_Ionization_Penalty_Charging>  (65) 
0

>  <r_epik_Ionization_Penalty_Neutral>  (65) 
0.00461527

>  <r_epik_State_Penalty>  (65) 
0.632971

>  <r_epik_Charging_Adjusted_Penalty>  (65) 
0.632971

>  <i_epik_Tot_Q>  (65) 
0

>  <i_epik_Tot_abs_Q>  (65) 
0

>  <s_epik_Chemistry_Notes>  (65) 
This compound has an imine and may undergo hydrolysis.

>  <s_lp_Force_Field>  (65) 
OPLS3e

>  <r_lp_Energy>  (65) 
24.1074

>  <b_lp_Chiralities_Consistent>  (65) 
1

>  <s_lp_Variant>  (65) 
18:0-2

>  <s_i_glide_gridfile>  (65) 
pfpi4k_grid

>  <i_i_glide_lignum>  (65) 
22

>  <i_i_glide_rotatable_bonds>  (65) 
1

>  <r_i_docking_score>  (65) 
-2.85037

>  <r_i_glide_ligand_efficiency>  (65) 
-0.114015

>  <r_i_glide_ligand_efficiency_sa>  (65) 
-0.333382

>  <r_i_glide_ligand_efficiency_ln>  (65) 
-0.675624

>  <r_i_glide_gscore>  (65) 
-2.85037

>  <r_i_glide_lipo>  (65) 
-0.0630988

>  <r_i_glide_hbond>  (65) 
-0.0852553

>  <r_i_glide_metal>  (65) 
-0

>  <r_i_glide_rewards>  (65) 
-1.118

>  <r_i_glide_evdw>  (65) 
-25.3524

>  <r_i_glide_ecoul>  (65) 
-3.07623

>  <r_i_glide_erotb>  (65) 
0.166864

>  <r_i_glide_esite>  (65) 
-0.0218245

>  <r_i_glide_emodel>  (65) 
-33.4999

>  <r_i_glide_energy>  (65) 
-28.4286

>  <r_i_glide_einternal>  (65) 
0.000377602

>  <r_i_glide_intrahb_reward>  (65) 
-0

>  <i_i_glide_confnum>  (65) 
1

>  <i_i_glide_posenum>  (65) 
9

>  <r_i_glide_eff_state_penalty>  (65) 
0

>  <ligand_id>  (65) 
18

>  <original_smiles>  (65) 
CC1C=C2N=C3CC(C)(C)CC(=O)C3C(c3ccncc3)C2C(=O)C1

>  <smiles>  (65) 
[H]C1=C2N=C3C([H])([H])C([H])(C([H])([H])[H])C([H])([H])C(=O)C3([H])C([H])(c3c([H])c([H])nc([H])c3[H])C2([H])C(=O)C([H])([H])C1(C([H])([H])[H])C([H])([H])[H]

$$$$
18:2:0
     RDKit          3D

 49 52  0  0  1  0  0  0  0  0999 V2000
   -1.7426   -9.0042    2.4808 C   0  0  0  0  0  0  0  0  0  0  0  0
   -0.4917   -8.3588    3.0927 C   0  0  2  0  0  0  0  0  0  0  0  0
   -0.0530   -7.1650    2.2744 C   0  0  0  0  0  0  0  0  0  0  0  0
    1.2278   -6.7623    2.1482 C   0  0  0  0  0  0  0  0  0  0  0  0
    1.4686   -5.7450    1.2300 N   0  0  0  0  0  0  0  0  0  0  0  0
    2.6385   -5.4895    0.7909 C   0  0  0  0  0  0  0  0  0  0  0  0
    2.9126   -4.2790   -0.0907 C   0  0  0  0  0  0  0  0  0  0  0  0
    3.9313   -3.2958    0.5437 C   0  0  0  0  0  0  0  0  0  0  0  0
    4.3324   -2.2488   -0.5091 C   0  0  0  0  0  0  0  0  0  0  0  0
    3.2946   -2.5764    1.7592 C   0  0  0  0  0  0  0  0  0  0  0  0
    5.2116   -4.0579    0.9757 C   0  0  0  0  0  0  0  0  0  0  0  0
    4.8791   -5.3027    1.7959 C   0  0  0  0  0  0  0  0  0  0  0  0
    5.3480   -5.4340    2.9232 O   0  0  0  0  0  0  0  0  0  0  0  0
    3.9024   -6.2953    1.1234 C   0  0  1  0  0  0  0  0  0  0  0  0
    3.5386   -7.6227    1.8569 C   0  0  1  0  0  0  0  0  0  0  0  0
    4.7441   -8.4580    2.2862 C   0  0  0  0  0  0  0  0  0  0  0  0
    5.2368   -9.4601    1.4219 C   0  0  0  0  0  0  0  0  0  0  0  0
    6.3537  -10.2147    1.8193 C   0  0  0  0  0  0  0  0  0  0  0  0
    7.0164  -10.0111    2.9774 N   0  0  0  0  0  0  0  0  0  0  0  0
    6.5439   -9.0548    3.8036 C   0  0  0  0  0  0  0  0  0  0  0  0
    5.4100   -8.2708    3.5145 C   0  0  0  0  0  0  0  0  0  0  0  0
    2.4095   -7.4055    2.8931 C   0  0  2  0  0  0  0  0  0  0  0  0
    1.9615   -8.6755    3.6519 C   0  0  0  0  0  0  0  0  0  0  0  0
    2.5966   -9.0929    4.6161 O   0  0  0  0  0  0  0  0  0  0  0  0
    0.6661   -9.3677    3.2114 C   0  0  0  0  0  0  0  0  0  0  0  0
   -2.5735   -8.2988    2.4355 H   0  0  0  0  0  0  0  0  0  0  0  0
   -2.0632   -9.8551    3.0789 H   0  0  0  0  0  0  0  0  0  0  0  0
   -1.5500   -9.3612    1.4708 H   0  0  0  0  0  0  0  0  0  0  0  0
   -0.7592   -7.9884    4.0862 H   0  0  0  0  0  0  0  0  0  0  0  0
   -0.8334   -6.6764    1.7083 H   0  0  0  0  0  0  0  0  0  0  0  0
    3.3097   -4.6449   -1.0388 H   0  0  0  0  0  0  0  0  0  0  0  0
    1.9794   -3.7621   -0.3143 H   0  0  0  0  0  0  0  0  0  0  0  0
    5.0573   -1.5403   -0.1097 H   0  0  0  0  0  0  0  0  0  0  0  0
    3.4649   -1.6907   -0.8649 H   0  0  0  0  0  0  0  0  0  0  0  0
    4.7900   -2.7341   -1.3725 H   0  0  0  0  0  0  0  0  0  0  0  0
    3.9895   -1.8637    2.2075 H   0  0  0  0  0  0  0  0  0  0  0  0
    3.0083   -3.2801    2.5460 H   0  0  0  0  0  0  0  0  0  0  0  0
    2.3927   -2.0325    1.4695 H   0  0  0  0  0  0  0  0  0  0  0  0
    5.7821   -4.3781    0.1014 H   0  0  0  0  0  0  0  0  0  0  0  0
    5.8596   -3.4056    1.5603 H   0  0  0  0  0  0  0  0  0  0  0  0
    4.3740   -6.5758    0.1772 H   0  0  0  0  0  0  0  0  0  0  0  0
    3.0644   -8.2351    1.0859 H   0  0  0  0  0  0  0  0  0  0  0  0
    4.7532   -9.6810    0.4812 H   0  0  0  0  0  0  0  0  0  0  0  0
    6.7416  -10.9952    1.1797 H   0  0  0  0  0  0  0  0  0  0  0  0
    7.0996   -8.8996    4.7204 H   0  0  0  0  0  0  0  0  0  0  0  0
    5.0773   -7.5324    4.2305 H   0  0  0  0  0  0  0  0  0  0  0  0
    2.7585   -6.7020    3.6499 H   0  0  0  0  0  0  0  0  0  0  0  0
    0.4040  -10.1547    3.9160 H   0  0  0  0  0  0  0  0  0  0  0  0
    0.8419   -9.8447    2.2458 H   0  0  0  0  0  0  0  0  0  0  0  0
  1  2  1  0
  1 26  1  0
  1 27  1  0
  1 28  1  0
  2 25  1  0
  2  3  1  0
  2 29  1  1
  3  4  2  0
  3 30  1  0
  4 22  1  0
  4  5  1  0
  5  6  2  0
  6 14  1  0
  6  7  1  0
  7  8  1  0
  7 31  1  0
  7 32  1  0
  8  9  1  0
  8 10  1  0
  8 11  1  0
  9 33  1  0
  9 34  1  0
  9 35  1  0
 10 36  1  0
 10 37  1  0
 10 38  1  0
 11 12  1  0
 11 39  1  0
 11 40  1  0
 12 13  2  0
 12 14  1  0
 14 15  1  0
 14 41  1  6
 15 16  1  0
 15 22  1  0
 15 42  1  6
 16 21  1  0
 16 17  2  0
 17 18  1  0
 17 43  1  0
 18 19  2  0
 18 44  1  0
 19 20  1  0
 20 21  2  0
 20 45  1  0
 21 46  1  0
 22 23  1  0
 22 47  1  1
 23 24  2  0
 23 25  1  0
 25 48  1  0
 25 49  1  0
M  END
>  <i_m_ct_stereo_status>  (66) 
1

>  <s_m_source_file>  (66) 
/var/tmp/pbs.5076255.sched01/tmp361wbqj1/0nt8_y6ui.sdf

>  <i_m_source_file_index>  (66) 
23

>  <i_lp_mmshare_version>  (66) 
48012

>  <i_f3d_flags>  (66) 
0

>  <s_epik_input>  (66) 
W2NIXTFbY0hdbltjSF1bY0hdYzFbQ0BASF0oW0NAQEhdKEMyMylDKD1PKVtDSDJdW0NASF0oW0NIM10pW0NIXT0yKVtDQEhdNEMoPU4zKVtDSDJdQyhbQ0gzXSkoW0NIM10pW0NIMl1DND1P

>  <s_epik_cmdline>  (66) 
J2VwaWtfcHl0aG9uJywgJy1waHQnLCAnMi4wJywgJy1waCcsICc3LjAnLCAnLXRuJywgJzgnLCAnLW1hJywgJzIwMCcsICctaW1hZScsICc8aW5maWxlLm1hZT4nLCAnLW9tYWUnLCAnPG91dGZpbGUubWFlPic=

>  <r_epik_Ionization_Penalty>  (66) 
0.00432277

>  <r_epik_Ionization_Penalty_Charging>  (66) 
0

>  <r_epik_Ionization_Penalty_Neutral>  (66) 
0.00432277

>  <r_epik_State_Penalty>  (66) 
0.952149

>  <r_epik_Charging_Adjusted_Penalty>  (66) 
0.952149

>  <i_epik_Tot_Q>  (66) 
0

>  <i_epik_Tot_abs_Q>  (66) 
0

>  <s_epik_Chemistry_Notes>  (66) 
This compound has an imine and may undergo hydrolysis.

>  <s_lp_Force_Field>  (66) 
OPLS3e

>  <r_lp_Energy>  (66) 
28.0078

>  <b_lp_Chiralities_Consistent>  (66) 
1

>  <s_lp_Variant>  (66) 
18:0-3

>  <s_i_glide_gridfile>  (66) 
pfpi4k_grid

>  <i_i_glide_lignum>  (66) 
23

>  <i_i_glide_rotatable_bonds>  (66) 
1

>  <r_i_docking_score>  (66) 
-3.28594

>  <r_i_glide_ligand_efficiency>  (66) 
-0.131438

>  <r_i_glide_ligand_efficiency_sa>  (66) 
-0.384326

>  <r_i_glide_ligand_efficiency_ln>  (66) 
-0.778867

>  <r_i_glide_gscore>  (66) 
-3.28594

>  <r_i_glide_lipo>  (66) 
-0.371892

>  <r_i_glide_hbond>  (66) 
-0.134253

>  <r_i_glide_metal>  (66) 
-0

>  <r_i_glide_rewards>  (66) 
-1.14886

>  <r_i_glide_evdw>  (66) 
-27.3345

>  <r_i_glide_ecoul>  (66) 
-2.59877

>  <r_i_glide_erotb>  (66) 
0.166864

>  <r_i_glide_esite>  (66) 
-0.0412623

>  <r_i_glide_emodel>  (66) 
-35.7003

>  <r_i_glide_energy>  (66) 
-29.9332

>  <r_i_glide_einternal>  (66) 
0.422465

>  <r_i_glide_intrahb_reward>  (66) 
-0

>  <i_i_glide_confnum>  (66) 
3

>  <i_i_glide_posenum>  (66) 
4

>  <r_i_glide_eff_state_penalty>  (66) 
0

>  <ligand_id>  (66) 
18

>  <original_smiles>  (66) 
CC1C=C2N=C3CC(C)(C)CC(=O)C3C(c3ccncc3)C2C(=O)C1

>  <smiles>  (66) 
[H]C1=C2N=C3C([H])([H])C(C([H])([H])[H])(C([H])([H])[H])C([H])([H])C(=O)C3([H])C([H])(c3c([H])c([H])nc([H])c3[H])C2([H])C(=O)C([H])([H])C1([H])C([H])([H])[H]

$$$$
18:2:1
     RDKit          3D

 49 52  0  0  1  0  0  0  0  0999 V2000
   -2.4940    3.0230    2.8840 C   0  0  0  0  0  0  0  0  0  0  0  0
   -1.3136    2.5463    3.7385 C   0  0  2  0  0  0  0  0  0  0  0  0
   -0.2623    1.8497    2.8988 C   0  0  0  0  0  0  0  0  0  0  0  0
    0.5353    0.8590    3.3570 C   0  0  0  0  0  0  0  0  0  0  0  0
    1.3648    0.2431    2.4268 N   0  0  0  0  0  0  0  0  0  0  0  0
    1.8559   -0.9146    2.6326 C   0  0  0  0  0  0  0  0  0  0  0  0
    2.8280   -1.5451    1.6514 C   0  0  0  0  0  0  0  0  0  0  0  0
    4.2268   -1.7802    2.2843 C   0  0  0  0  0  0  0  0  0  0  0  0
    5.0736   -2.6199    1.3128 C   0  0  0  0  0  0  0  0  0  0  0  0
    4.9429   -0.4323    2.5300 C   0  0  0  0  0  0  0  0  0  0  0  0
    4.0862   -2.5574    3.6192 C   0  0  0  0  0  0  0  0  0  0  0  0
    3.0144   -1.9500    4.5322 C   0  0  0  0  0  0  0  0  0  0  0  0
    3.2886   -1.6196    5.6829 O   0  0  0  0  0  0  0  0  0  0  0  0
    1.6223   -1.7726    3.8864 C   0  0  1  0  0  0  0  0  0  0  0  0
    0.4617   -1.2019    4.7614 C   0  0  1  0  0  0  0  0  0  0  0  0
    0.2746   -1.9257    6.0993 C   0  0  0  0  0  0  0  0  0  0  0  0
    0.8480   -1.4643    7.3010 C   0  0  0  0  0  0  0  0  0  0  0  0
    0.6155   -2.1715    8.4922 C   0  0  0  0  0  0  0  0  0  0  0  0
   -0.1644   -3.2732    8.5521 N   0  0  0  0  0  0  0  0  0  0  0  0
   -0.6765   -3.7469    7.3972 C   0  0  0  0  0  0  0  0  0  0  0  0
   -0.4998   -3.1011    6.1585 C   0  0  0  0  0  0  0  0  0  0  0  0
    0.5159    0.3493    4.8084 C   0  0  2  0  0  0  0  0  0  0  0  0
   -0.6144    1.0215    5.6253 C   0  0  0  0  0  0  0  0  0  0  0  0
   -0.5876    1.0851    6.8512 O   0  0  0  0  0  0  0  0  0  0  0  0
   -1.7865    1.6242    4.8672 C   0  0  0  0  0  0  0  0  0  0  0  0
   -2.1545    3.7209    2.1188 H   0  0  0  0  0  0  0  0  0  0  0  0
   -3.2450    3.5279    3.4898 H   0  0  0  0  0  0  0  0  0  0  0  0
   -2.9776    2.1884    2.3768 H   0  0  0  0  0  0  0  0  0  0  0  0
   -0.8354    3.4277    4.1707 H   0  0  0  0  0  0  0  0  0  0  0  0
   -0.1964    2.1568    1.8648 H   0  0  0  0  0  0  0  0  0  0  0  0
    2.3995   -2.4910    1.3135 H   0  0  0  0  0  0  0  0  0  0  0  0
    2.9129   -0.9066    0.7726 H   0  0  0  0  0  0  0  0  0  0  0  0
    6.0671   -2.8205    1.7160 H   0  0  0  0  0  0  0  0  0  0  0  0
    5.1881   -2.1181    0.3506 H   0  0  0  0  0  0  0  0  0  0  0  0
    4.5968   -3.5821    1.1236 H   0  0  0  0  0  0  0  0  0  0  0  0
    5.9410   -0.5756    2.9506 H   0  0  0  0  0  0  0  0  0  0  0  0
    4.3903    0.2040    3.2262 H   0  0  0  0  0  0  0  0  0  0  0  0
    5.0458    0.1222    1.5955 H   0  0  0  0  0  0  0  0  0  0  0  0
    3.8002   -3.5905    3.4229 H   0  0  0  0  0  0  0  0  0  0  0  0
    5.0425   -2.5912    4.1403 H   0  0  0  0  0  0  0  0  0  0  0  0
    1.3265   -2.7755    3.5674 H   0  0  0  0  0  0  0  0  0  0  0  0
   -0.4472   -1.4364    4.1967 H   0  0  0  0  0  0  0  0  0  0  0  0
    1.4707   -0.5815    7.3223 H   0  0  0  0  0  0  0  0  0  0  0  0
    1.0354   -1.8335    9.4267 H   0  0  0  0  0  0  0  0  0  0  0  0
   -1.2714   -4.6507    7.4706 H   0  0  0  0  0  0  0  0  0  0  0  0
   -0.9532   -3.4999    5.2686 H   0  0  0  0  0  0  0  0  0  0  0  0
    1.4580    0.6511    5.2670 H   0  0  0  0  0  0  0  0  0  0  0  0
   -2.4283    2.1662    5.5640 H   0  0  0  0  0  0  0  0  0  0  0  0
   -2.3792    0.8023    4.4650 H   0  0  0  0  0  0  0  0  0  0  0  0
  1  2  1  0
  1 26  1  0
  1 27  1  0
  1 28  1  0
  2 25  1  0
  2  3  1  0
  2 29  1  1
  3  4  2  0
  3 30  1  0
  4 22  1  0
  4  5  1  0
  5  6  2  0
  6 14  1  0
  6  7  1  0
  7  8  1  0
  7 31  1  0
  7 32  1  0
  8  9  1  0
  8 10  1  0
  8 11  1  0
  9 33  1  0
  9 34  1  0
  9 35  1  0
 10 36  1  0
 10 37  1  0
 10 38  1  0
 11 12  1  0
 11 39  1  0
 11 40  1  0
 12 13  2  0
 12 14  1  0
 14 15  1  0
 14 41  1  6
 15 16  1  0
 15 22  1  0
 15 42  1  6
 16 21  1  0
 16 17  2  0
 17 18  1  0
 17 43  1  0
 18 19  2  0
 18 44  1  0
 19 20  1  0
 20 21  2  0
 20 45  1  0
 21 46  1  0
 22 23  1  0
 22 47  1  1
 23 24  2  0
 23 25  1  0
 25 48  1  0
 25 49  1  0
M  END
>  <i_m_ct_stereo_status>  (67) 
1

>  <s_m_source_file>  (67) 
/var/tmp/pbs.5076255.sched01/tmp361wbqj1/0nt8_y6ui.sdf

>  <i_m_source_file_index>  (67) 
23

>  <i_lp_mmshare_version>  (67) 
48012

>  <i_f3d_flags>  (67) 
0

>  <s_epik_input>  (67) 
W2NIXTFbY0hdbltjSF1bY0hdYzFbQ0BASF0oW0NAQEhdKEMyMylDKD1PKVtDSDJdW0NASF0oW0NIM10pW0NIXT0yKVtDQEhdNEMoPU4zKVtDSDJdQyhbQ0gzXSkoW0NIM10pW0NIMl1DND1P

>  <s_epik_cmdline>  (67) 
J2VwaWtfcHl0aG9uJywgJy1waHQnLCAnMi4wJywgJy1waCcsICc3LjAnLCAnLXRuJywgJzgnLCAnLW1hJywgJzIwMCcsICctaW1hZScsICc8aW5maWxlLm1hZT4nLCAnLW9tYWUnLCAnPG91dGZpbGUubWFlPic=

>  <r_epik_Ionization_Penalty>  (67) 
0.00432277

>  <r_epik_Ionization_Penalty_Charging>  (67) 
0

>  <r_epik_Ionization_Penalty_Neutral>  (67) 
0.00432277

>  <r_epik_State_Penalty>  (67) 
0.952149

>  <r_epik_Charging_Adjusted_Penalty>  (67) 
0.952149

>  <i_epik_Tot_Q>  (67) 
0

>  <i_epik_Tot_abs_Q>  (67) 
0

>  <s_epik_Chemistry_Notes>  (67) 
This compound has an imine and may undergo hydrolysis.

>  <s_lp_Force_Field>  (67) 
OPLS3e

>  <r_lp_Energy>  (67) 
28.0078

>  <b_lp_Chiralities_Consistent>  (67) 
1

>  <s_lp_Variant>  (67) 
18:0-3

>  <s_i_glide_gridfile>  (67) 
pfpi4k_grid

>  <i_i_glide_lignum>  (67) 
23

>  <i_i_glide_rotatable_bonds>  (67) 
1

>  <r_i_docking_score>  (67) 
-3.02381

>  <r_i_glide_ligand_efficiency>  (67) 
-0.120952

>  <r_i_glide_ligand_efficiency_sa>  (67) 
-0.353667

>  <r_i_glide_ligand_efficiency_ln>  (67) 
-0.716733

>  <r_i_glide_gscore>  (67) 
-3.02381

>  <r_i_glide_lipo>  (67) 
-0.17748

>  <r_i_glide_hbond>  (67) 
-0.0647729

>  <r_i_glide_metal>  (67) 
-0

>  <r_i_glide_rewards>  (67) 
-1.11527

>  <r_i_glide_evdw>  (67) 
-23.8328

>  <r_i_glide_ecoul>  (67) 
-4.0096

>  <r_i_glide_erotb>  (67) 
0.166864

>  <r_i_glide_esite>  (67) 
-0.0400712

>  <r_i_glide_emodel>  (67) 
-33.3094

>  <r_i_glide_energy>  (67) 
-27.8424

>  <r_i_glide_einternal>  (67) 
0.29036

>  <r_i_glide_intrahb_reward>  (67) 
-0

>  <i_i_glide_confnum>  (67) 
4

>  <i_i_glide_posenum>  (67) 
5

>  <r_i_glide_eff_state_penalty>  (67) 
0

>  <ligand_id>  (67) 
18

>  <original_smiles>  (67) 
CC1C=C2N=C3CC(C)(C)CC(=O)C3C(c3ccncc3)C2C(=O)C1

>  <smiles>  (67) 
[H]C1=C2N=C3C([H])([H])C(C([H])([H])[H])(C([H])([H])[H])C([H])([H])C(=O)C3([H])C([H])(c3c([H])c([H])nc([H])c3[H])C2([H])C(=O)C([H])([H])C1([H])C([H])([H])[H]

$$$$
18:2:2
     RDKit          3D

 49 52  0  0  1  0  0  0  0  0999 V2000
    2.1506   -1.1611    2.0808 C   0  0  0  0  0  0  0  0  0  0  0  0
    2.5105   -2.1930    3.1605 C   0  0  2  0  0  0  0  0  0  0  0  0
    2.2188   -3.6061    2.6937 C   0  0  0  0  0  0  0  0  0  0  0  0
    1.8484   -4.6130    3.5126 C   0  0  0  0  0  0  0  0  0  0  0  0
    1.4645   -5.8083    2.9003 N   0  0  0  0  0  0  0  0  0  0  0  0
    0.7828   -6.6881    3.5211 C   0  0  0  0  0  0  0  0  0  0  0  0
    0.4704   -8.0353    2.8918 C   0  0  0  0  0  0  0  0  0  0  0  0
    1.0848   -9.2078    3.7036 C   0  0  0  0  0  0  0  0  0  0  0  0
    0.5358  -10.5273    3.1382 C   0  0  0  0  0  0  0  0  0  0  0  0
    2.6270   -9.2104    3.5709 C   0  0  0  0  0  0  0  0  0  0  0  0
    0.6790   -9.1060    5.1992 C   0  0  0  0  0  0  0  0  0  0  0  0
    0.9126   -7.6977    5.7613 C   0  0  0  0  0  0  0  0  0  0  0  0
    1.5800   -7.5249    6.7788 O   0  0  0  0  0  0  0  0  0  0  0  0
    0.2597   -6.5551    4.9586 C   0  0  1  0  0  0  0  0  0  0  0  0
    0.4128   -5.0983    5.4895 C   0  0  1  0  0  0  0  0  0  0  0  0
   -0.0160   -4.9223    6.9485 C   0  0  0  0  0  0  0  0  0  0  0  0
   -1.3861   -4.7734    7.2526 C   0  0  0  0  0  0  0  0  0  0  0  0
   -1.7695   -4.6285    8.5975 C   0  0  0  0  0  0  0  0  0  0  0  0
   -0.8954   -4.5968    9.6224 N   0  0  0  0  0  0  0  0  0  0  0  0
    0.4151   -4.7491    9.3337 C   0  0  0  0  0  0  0  0  0  0  0  0
    0.8974   -4.9178    8.0221 C   0  0  0  0  0  0  0  0  0  0  0  0
    1.7633   -4.4801    5.0462 C   0  0  2  0  0  0  0  0  0  0  0  0
    2.0007   -3.0159    5.4906 C   0  0  0  0  0  0  0  0  0  0  0  0
    2.4040   -2.7401    6.6179 O   0  0  0  0  0  0  0  0  0  0  0  0
    1.7657   -1.9023    4.4733 C   0  0  0  0  0  0  0  0  0  0  0  0
    2.7071   -1.3399    1.1606 H   0  0  0  0  0  0  0  0  0  0  0  0
    2.3853   -0.1510    2.4119 H   0  0  0  0  0  0  0  0  0  0  0  0
    1.0891   -1.1924    1.8341 H   0  0  0  0  0  0  0  0  0  0  0  0
    3.5869   -2.1368    3.3331 H   0  0  0  0  0  0  0  0  0  0  0  0
    2.2625   -3.7680    1.6261 H   0  0  0  0  0  0  0  0  0  0  0  0
   -0.6147   -8.1408    2.8390 H   0  0  0  0  0  0  0  0  0  0  0  0
    0.8389   -8.0533    1.8657 H   0  0  0  0  0  0  0  0  0  0  0  0
    0.9237  -11.3942    3.6758 H   0  0  0  0  0  0  0  0  0  0  0  0
    0.7745  -10.6436    2.0820 H   0  0  0  0  0  0  0  0  0  0  0  0
   -0.5507  -10.5491    3.2291 H   0  0  0  0  0  0  0  0  0  0  0  0
    3.0688  -10.0503    4.1112 H   0  0  0  0  0  0  0  0  0  0  0  0
    3.0726   -8.3008    3.9780 H   0  0  0  0  0  0  0  0  0  0  0  0
    2.9381   -9.2824    2.5270 H   0  0  0  0  0  0  0  0  0  0  0  0
   -0.3807   -9.3358    5.3133 H   0  0  0  0  0  0  0  0  0  0  0  0
    1.2190   -9.8444    5.7934 H   0  0  0  0  0  0  0  0  0  0  0  0
   -0.8054   -6.7891    4.9531 H   0  0  0  0  0  0  0  0  0  0  0  0
   -0.3326   -4.5255    4.9381 H   0  0  0  0  0  0  0  0  0  0  0  0
   -2.1388   -4.7951    6.4807 H   0  0  0  0  0  0  0  0  0  0  0  0
   -2.8132   -4.5270    8.8608 H   0  0  0  0  0  0  0  0  0  0  0  0
    1.0936   -4.7364   10.1761 H   0  0  0  0  0  0  0  0  0  0  0  0
    1.9585   -5.0468    7.8569 H   0  0  0  0  0  0  0  0  0  0  0  0
    2.5782   -5.0687    5.4725 H   0  0  0  0  0  0  0  0  0  0  0  0
    2.0935   -0.9510    4.8909 H   0  0  0  0  0  0  0  0  0  0  0  0
    0.6933   -1.8222    4.2914 H   0  0  0  0  0  0  0  0  0  0  0  0
  1  2  1  0
  1 26  1  0
  1 27  1  0
  1 28  1  0
  2 25  1  0
  2  3  1  0
  2 29  1  1
  3  4  2  0
  3 30  1  0
  4 22  1  0
  4  5  1  0
  5  6  2  0
  6 14  1  0
  6  7  1  0
  7  8  1  0
  7 31  1  0
  7 32  1  0
  8  9  1  0
  8 10  1  0
  8 11  1  0
  9 33  1  0
  9 34  1  0
  9 35  1  0
 10 36  1  0
 10 37  1  0
 10 38  1  0
 11 12  1  0
 11 39  1  0
 11 40  1  0
 12 13  2  0
 12 14  1  0
 14 15  1  0
 14 41  1  6
 15 16  1  0
 15 22  1  0
 15 42  1  6
 16 21  1  0
 16 17  2  0
 17 18  1  0
 17 43  1  0
 18 19  2  0
 18 44  1  0
 19 20  1  0
 20 21  2  0
 20 45  1  0
 21 46  1  0
 22 23  1  0
 22 47  1  1
 23 24  2  0
 23 25  1  0
 25 48  1  0
 25 49  1  0
M  END
>  <i_m_ct_stereo_status>  (68) 
1

>  <s_m_source_file>  (68) 
/var/tmp/pbs.5076255.sched01/tmp361wbqj1/0nt8_y6ui.sdf

>  <i_m_source_file_index>  (68) 
23

>  <i_lp_mmshare_version>  (68) 
48012

>  <i_f3d_flags>  (68) 
0

>  <s_epik_input>  (68) 
W2NIXTFbY0hdbltjSF1bY0hdYzFbQ0BASF0oW0NAQEhdKEMyMylDKD1PKVtDSDJdW0NASF0oW0NIM10pW0NIXT0yKVtDQEhdNEMoPU4zKVtDSDJdQyhbQ0gzXSkoW0NIM10pW0NIMl1DND1P

>  <s_epik_cmdline>  (68) 
J2VwaWtfcHl0aG9uJywgJy1waHQnLCAnMi4wJywgJy1waCcsICc3LjAnLCAnLXRuJywgJzgnLCAnLW1hJywgJzIwMCcsICctaW1hZScsICc8aW5maWxlLm1hZT4nLCAnLW9tYWUnLCAnPG91dGZpbGUubWFlPic=

>  <r_epik_Ionization_Penalty>  (68) 
0.00432277

>  <r_epik_Ionization_Penalty_Charging>  (68) 
0

>  <r_epik_Ionization_Penalty_Neutral>  (68) 
0.00432277

>  <r_epik_State_Penalty>  (68) 
0.952149

>  <r_epik_Charging_Adjusted_Penalty>  (68) 
0.952149

>  <i_epik_Tot_Q>  (68) 
0

>  <i_epik_Tot_abs_Q>  (68) 
0

>  <s_epik_Chemistry_Notes>  (68) 
This compound has an imine and may undergo hydrolysis.

>  <s_lp_Force_Field>  (68) 
OPLS3e

>  <r_lp_Energy>  (68) 
28.0078

>  <b_lp_Chiralities_Consistent>  (68) 
1

>  <s_lp_Variant>  (68) 
18:0-3

>  <s_i_glide_gridfile>  (68) 
pfpi4k_grid

>  <i_i_glide_lignum>  (68) 
23

>  <i_i_glide_rotatable_bonds>  (68) 
1

>  <r_i_docking_score>  (68) 
-2.57863

>  <r_i_glide_ligand_efficiency>  (68) 
-0.103145

>  <r_i_glide_ligand_efficiency_sa>  (68) 
-0.301598

>  <r_i_glide_ligand_efficiency_ln>  (68) 
-0.611212

>  <r_i_glide_gscore>  (68) 
-2.57863

>  <r_i_glide_lipo>  (68) 
-0.0967752

>  <r_i_glide_hbond>  (68) 
0

>  <r_i_glide_metal>  (68) 
-0

>  <r_i_glide_rewards>  (68) 
-1.11527

>  <r_i_glide_evdw>  (68) 
-22.6324

>  <r_i_glide_ecoul>  (68) 
-2.38359

>  <r_i_glide_erotb>  (68) 
0.166864

>  <r_i_glide_esite>  (68) 
-0.0442904

>  <r_i_glide_emodel>  (68) 
-29.7909

>  <r_i_glide_energy>  (68) 
-25.016

>  <r_i_glide_einternal>  (68) 
0.0112867

>  <r_i_glide_intrahb_reward>  (68) 
-0

>  <i_i_glide_confnum>  (68) 
1

>  <i_i_glide_posenum>  (68) 
31

>  <r_i_glide_eff_state_penalty>  (68) 
0

>  <ligand_id>  (68) 
18

>  <original_smiles>  (68) 
CC1C=C2N=C3CC(C)(C)CC(=O)C3C(c3ccncc3)C2C(=O)C1

>  <smiles>  (68) 
[H]C1=C2N=C3C([H])([H])C(C([H])([H])[H])(C([H])([H])[H])C([H])([H])C(=O)C3([H])C([H])(c3c([H])c([H])nc([H])c3[H])C2([H])C(=O)C([H])([H])C1([H])C([H])([H])[H]

$$$$
19:0:0
     RDKit          3D

 85 90  0  0  1  0  0  0  0  0999 V2000
    3.9422   -0.3004   -3.2509 C   0  0  0  0  0  0  0  0  0  0  0  0
    3.4910   -1.5100   -2.4418 C   0  0  2  0  0  0  0  0  0  0  0  0
    4.1979   -1.5630   -1.2133 O   0  0  0  0  0  0  0  0  0  0  0  0
    4.3406   -2.9159   -0.7692 C   0  0  2  0  0  0  0  0  0  0  0  0
    4.6106   -3.6198   -2.1163 C   0  0  0  0  0  0  0  0  0  0  0  0
    3.9022   -2.7796   -3.1143 C   0  0  0  0  0  0  0  0  0  0  0  0
    3.8057   -3.0517   -4.3172 O   0  0  0  0  0  0  0  0  0  0  0  0
    3.1057   -3.4244    0.0235 C   0  0  0  0  0  0  0  0  0  0  0  0
    3.6063   -3.8990    1.4316 C   0  0  2  0  0  0  0  0  0  0  0  0
    3.2216   -2.8373    2.5106 C   0  0  0  0  0  0  0  0  0  0  0  0
    1.9172   -2.8531    2.7797 C   0  0  0  0  0  0  0  0  0  0  0  0
    1.1078   -1.7294    3.3507 C   0  0  0  0  0  0  0  0  0  0  0  0
    1.8097   -0.3479    3.3221 C   0  0  1  0  0  0  0  0  0  0  0  0
    0.9025    0.7494    4.0403 C   0  0  1  0  0  0  0  0  0  0  0  0
    1.4196    2.1662    3.6359 C   0  0  0  0  0  0  0  0  0  0  0  0
   -0.5823    0.7021    3.5566 C   0  0  0  0  0  0  0  0  0  0  0  0
   -1.5496    1.6190    4.3455 C   0  0  0  0  0  0  0  0  0  0  0  0
   -1.5063    1.3738    5.8615 C   0  0  1  0  0  0  0  0  0  0  0  0
   -2.1484    0.1327    6.0970 O   0  0  0  0  0  0  0  0  0  0  0  0
   -0.0663    1.4001    6.4429 C   0  0  0  0  0  0  0  0  0  0  0  0
    0.3999    2.8743    6.5281 C   0  0  0  0  0  0  0  0  0  0  0  0
   -0.1140    0.9055    7.9085 C   0  0  0  0  0  0  0  0  0  0  0  0
    0.8693    0.4699    5.5840 C   0  0  2  0  0  0  0  0  0  0  0  0
    2.2708    0.2010    6.1729 C   0  0  0  0  0  0  0  0  0  0  0  0
    3.1062   -0.8404    5.3839 C   0  0  0  0  0  0  0  0  0  0  0  0
    3.2765   -0.5320    3.8587 C   0  0  2  0  0  0  0  0  0  0  0  0
    4.0939    0.7800    3.8220 C   0  0  0  0  0  0  0  0  0  0  0  0
    4.1077   -1.6506    3.0013 C   0  0  1  0  0  0  0  0  0  0  0  0
    5.1950   -2.1424    3.9791 C   0  0  0  0  0  0  0  0  0  0  0  0
    4.8153   -1.0497    1.7327 C   0  0  0  0  0  0  0  0  0  0  0  0
    5.8986   -1.8594    0.9650 C   0  0  0  0  0  0  0  0  0  0  0  0
    5.5089   -3.1614    0.2236 C   0  0  1  0  0  0  0  0  0  0  0  0
    5.0537   -4.3394    1.1342 C   0  0  0  0  0  0  0  0  0  0  0  0
    5.9684   -4.7145    2.3185 C   0  0  0  0  0  0  0  0  0  0  0  0
    5.0267   -5.6839    0.3431 C   0  0  0  0  0  0  0  0  0  0  0  0
    3.4373   -0.2162   -4.2089 H   0  0  0  0  0  0  0  0  0  0  0  0
    5.0109   -0.3619   -3.4137 H   0  0  0  0  0  0  0  0  0  0  0  0
    3.8190    0.6344   -2.7180 H   0  0  0  0  0  0  0  0  0  0  0  0
    2.4116   -1.5312   -2.2870 H   0  0  0  0  0  0  0  0  0  0  0  0
    5.6706   -3.6392   -2.3726 H   0  0  0  0  0  0  0  0  0  0  0  0
    4.2143   -4.6135   -2.1716 H   0  0  0  0  0  0  0  0  0  0  0  0
    2.3385   -2.6494    0.1077 H   0  0  0  0  0  0  0  0  0  0  0  0
    2.6297   -4.2543   -0.4964 H   0  0  0  0  0  0  0  0  0  0  0  0
    3.0728   -4.8062    1.7269 H   0  0  0  0  0  0  0  0  0  0  0  0
    1.3118   -3.6686    2.4193 H   0  0  0  0  0  0  0  0  0  0  0  0
    0.2374   -1.6835    2.7095 H   0  0  0  0  0  0  0  0  0  0  0  0
    0.7696   -2.0506    4.3333 H   0  0  0  0  0  0  0  0  0  0  0  0
    1.8836   -0.0741    2.2672 H   0  0  0  0  0  0  0  0  0  0  0  0
    0.6341    2.9020    3.4769 H   0  0  0  0  0  0  0  0  0  0  0  0
    1.9487    2.1539    2.6817 H   0  0  0  0  0  0  0  0  0  0  0  0
    2.0808    2.6051    4.3796 H   0  0  0  0  0  0  0  0  0  0  0  0
   -0.6408    0.9281    2.4892 H   0  0  0  0  0  0  0  0  0  0  0  0
   -0.9895   -0.2959    3.6818 H   0  0  0  0  0  0  0  0  0  0  0  0
   -1.3436    2.6661    4.1384 H   0  0  0  0  0  0  0  0  0  0  0  0
   -2.5710    1.4716    3.9931 H   0  0  0  0  0  0  0  0  0  0  0  0
   -2.1101    2.1356    6.3550 H   0  0  0  0  0  0  0  0  0  0  0  0
   -1.7523   -0.4891    5.5129 H   0  0  0  0  0  0  0  0  0  0  0  0
    1.4644    2.9611    6.7463 H   0  0  0  0  0  0  0  0  0  0  0  0
   -0.1407    3.4176    7.3081 H   0  0  0  0  0  0  0  0  0  0  0  0
    0.2075    3.4242    5.6105 H   0  0  0  0  0  0  0  0  0  0  0  0
    0.8186    1.1163    8.4339 H   0  0  0  0  0  0  0  0  0  0  0  0
   -0.2763   -0.1711    7.9604 H   0  0  0  0  0  0  0  0  0  0  0  0
   -0.9138    1.3901    8.4735 H   0  0  0  0  0  0  0  0  0  0  0  0
    0.3896   -0.4972    5.7013 H   0  0  0  0  0  0  0  0  0  0  0  0
    2.8175    1.1329    6.3058 H   0  0  0  0  0  0  0  0  0  0  0  0
    2.1682   -0.2036    7.1773 H   0  0  0  0  0  0  0  0  0  0  0  0
    4.0625   -0.8954    5.9041 H   0  0  0  0  0  0  0  0  0  0  0  0
    2.6554   -1.8225    5.5095 H   0  0  0  0  0  0  0  0  0  0  0  0
    5.1641    0.6304    3.9717 H   0  0  0  0  0  0  0  0  0  0  0  0
    3.8400    1.5195    4.5660 H   0  0  0  0  0  0  0  0  0  0  0  0
    3.9408    1.2641    2.8653 H   0  0  0  0  0  0  0  0  0  0  0  0
    5.6382   -1.3444    4.5745 H   0  0  0  0  0  0  0  0  0  0  0  0
    6.0451   -2.5528    3.4708 H   0  0  0  0  0  0  0  0  0  0  0  0
    4.8192   -2.8960    4.6723 H   0  0  0  0  0  0  0  0  0  0  0  0
    4.0358   -0.7125    1.0517 H   0  0  0  0  0  0  0  0  0  0  0  0
    5.3748   -0.1544    1.9797 H   0  0  0  0  0  0  0  0  0  0  0  0
    6.2710   -1.1925    0.1919 H   0  0  0  0  0  0  0  0  0  0  0  0
    6.7816   -2.0294    1.5807 H   0  0  0  0  0  0  0  0  0  0  0  0
    6.4024   -3.4666   -0.3162 H   0  0  0  0  0  0  0  0  0  0  0  0
    6.3507   -5.7340    2.2775 H   0  0  0  0  0  0  0  0  0  0  0  0
    5.4560   -4.6427    3.2728 H   0  0  0  0  0  0  0  0  0  0  0  0
    6.8708   -4.1224    2.2926 H   0  0  0  0  0  0  0  0  0  0  0  0
    6.0069   -5.9021   -0.0831 H   0  0  0  0  0  0  0  0  0  0  0  0
    4.3028   -5.7329   -0.4618 H   0  0  0  0  0  0  0  0  0  0  0  0
    4.7696   -6.5207    0.9934 H   0  0  0  0  0  0  0  0  0  0  0  0
  1  2  1  0
  1 36  1  0
  1 37  1  0
  1 38  1  0
  2  6  1  0
  2  3  1  0
  2 39  1  1
  4  3  1  6
  4 32  1  0
  4  5  1  0
  4  8  1  0
  5  6  1  0
  5 40  1  0
  5 41  1  0
  6  7  2  0
  8  9  1  0
  8 42  1  0
  8 43  1  0
  9 33  1  0
  9 10  1  0
  9 44  1  1
 10 28  1  0
 10 11  2  0
 11 12  1  0
 11 45  1  0
 12 13  1  0
 12 46  1  0
 12 47  1  0
 13 26  1  0
 13 14  1  0
 13 48  1  6
 14 23  1  0
 14 15  1  1
 14 16  1  0
 15 49  1  0
 15 50  1  0
 15 51  1  0
 16 17  1  0
 16 52  1  0
 16 53  1  0
 17 18  1  0
 17 54  1  0
 17 55  1  0
 18 19  1  0
 18 20  1  0
 18 56  1  1
 19 57  1  0
 20 21  1  0
 20 22  1  0
 20 23  1  0
 21 58  1  0
 21 59  1  0
 21 60  1  0
 22 61  1  0
 22 62  1  0
 22 63  1  0
 23 24  1  0
 23 64  1  6
 24 25  1  0
 24 65  1  0
 24 66  1  0
 25 26  1  0
 25 67  1  0
 25 68  1  0
 26 27  1  1
 26 28  1  0
 27 69  1  0
 27 70  1  0
 27 71  1  0
 28 29  1  1
 28 30  1  0
 29 72  1  0
 29 73  1  0
 29 74  1  0
 30 31  1  0
 30 75  1  0
 30 76  1  0
 31 32  1  0
 31 77  1  0
 31 78  1  0
 32 33  1  0
 32 79  1  6
 33 34  1  0
 33 35  1  0
 34 80  1  0
 34 81  1  0
 34 82  1  0
 35 83  1  0
 35 84  1  0
 35 85  1  0
M  END
>  <i_m_ct_stereo_status>  (69) 
1

>  <s_m_source_file>  (69) 
/var/tmp/pbs.5076255.sched01/tmp361wbqj1/0nt8_y6ui.sdf

>  <i_m_source_file_index>  (69) 
24

>  <i_lp_mmshare_version>  (69) 
48012

>  <i_f3d_flags>  (69) 
0

>  <s_epik_input>  (69) 
W0NIMl0xQyg9TylbQ0BIXShbQ0gzXSlPW0NAXTEyW0NASF0zW0NIMl1bQ0gyXVtDQF00KFtDSDNdKUMoW0NAQEhdKFtDSDJdMilDMyhbQ0gzXSlbQ0gzXSk9W0NIXVtDSDJdW0NASF01W0NAXTYoW0NIM10pW0NASF0oQyhbQ0gzXSkoW0NIM10pW0NASF0oW09IXSlbQ0gyXVtDSDJdNilbQ0gyXVtDSDJdW0NAQF00NVtDSDNd

>  <s_epik_cmdline>  (69) 
J2VwaWtfcHl0aG9uJywgJy1waHQnLCAnMi4wJywgJy1waCcsICc3LjAnLCAnLXRuJywgJzgnLCAnLW1hJywgJzIwMCcsICctaW1hZScsICc8aW5maWxlLm1hZT4nLCAnLW9tYWUnLCAnPG91dGZpbGUubWFlPic=

>  <r_lp_tautomer_probability>  (69) 
1

>  <r_epik_Ionization_Penalty>  (69) 
2.97751e-06

>  <r_epik_Ionization_Penalty_Charging>  (69) 
0

>  <r_epik_Ionization_Penalty_Neutral>  (69) 
2.97751e-06

>  <r_epik_State_Penalty>  (69) 
-0

>  <r_epik_Charging_Adjusted_Penalty>  (69) 
0

>  <i_epik_Tot_Q>  (69) 
0

>  <i_epik_Tot_abs_Q>  (69) 
0

>  <s_lp_Force_Field>  (69) 
OPLS3e

>  <r_lp_Energy>  (69) 
119.994

>  <b_lp_Chiralities_Consistent>  (69) 
1

>  <s_lp_Variant>  (69) 
19:0-1

>  <s_i_glide_gridfile>  (69) 
pfpi4k_grid

>  <i_i_glide_lignum>  (69) 
24

>  <i_i_glide_rotatable_bonds>  (69) 
1

>  <r_i_docking_score>  (69) 
-4.05375

>  <r_i_glide_ligand_efficiency>  (69) 
-0.115822

>  <r_i_glide_ligand_efficiency_sa>  (69) 
-0.37886

>  <r_i_glide_ligand_efficiency_ln>  (69) 
-0.889889

>  <r_i_glide_gscore>  (69) 
-4.05375

>  <r_i_glide_lipo>  (69) 
-0.69643

>  <r_i_glide_hbond>  (69) 
-0.404627

>  <r_i_glide_metal>  (69) 
-0

>  <r_i_glide_rewards>  (69) 
-0.252428

>  <r_i_glide_evdw>  (69) 
-30.8466

>  <r_i_glide_ecoul>  (69) 
-7.71959

>  <r_i_glide_erotb>  (69) 
0

>  <r_i_glide_esite>  (69) 
0

>  <r_i_glide_emodel>  (69) 
-46.9598

>  <r_i_glide_energy>  (69) 
-38.5662

>  <r_i_glide_einternal>  (69) 
0.133059

>  <r_i_glide_intrahb_reward>  (69) 
-0

>  <i_i_glide_confnum>  (69) 
2

>  <i_i_glide_posenum>  (69) 
2

>  <r_i_glide_eff_state_penalty>  (69) 
0

>  <ligand_id>  (69) 
19

>  <original_smiles>  (69) 
CC1OC2(CC1=O)CC1C3=CCC4C5(C)CCC(O)C(C)(C)C5CCC4(C)C3(C)CCC2C1(C)C

>  <smiles>  (69) 
[H]OC1([H])C([H])([H])C([H])([H])C2(C([H])([H])[H])C([H])(C([H])([H])C([H])([H])C3(C([H])([H])[H])C2([H])C([H])([H])C([H])=C2C4([H])C([H])([H])C5(OC([H])(C([H])([H])[H])C(=O)C5([H])[H])C([H])(C([H])([H])C([H])([H])C23C([H])([H])[H])C4(C([H])([H])[H])C([H])([H])[H])C1(C([H])([H])[H])C([H])([H])[H]

$$$$
19:0:1
     RDKit          3D

 85 90  0  0  1  0  0  0  0  0999 V2000
    3.9390   -0.2935   -3.2500 C   0  0  0  0  0  0  0  0  0  0  0  0
    3.4903   -1.5106   -2.4452 C   0  0  2  0  0  0  0  0  0  0  0  0
    4.2014   -1.5600   -1.2116 O   0  0  0  0  0  0  0  0  0  0  0  0
    4.3421   -2.9161   -0.7672 C   0  0  2  0  0  0  0  0  0  0  0  0
    4.6156   -3.6219   -2.1129 C   0  0  0  0  0  0  0  0  0  0  0  0
    3.9040   -2.7780   -3.1167 C   0  0  0  0  0  0  0  0  0  0  0  0
    3.8074   -3.0518   -4.3143 O   0  0  0  0  0  0  0  0  0  0  0  0
    3.1051   -3.4212    0.0290 C   0  0  0  0  0  0  0  0  0  0  0  0
    3.6069   -3.8965    1.4369 C   0  0  2  0  0  0  0  0  0  0  0  0
    3.2158   -2.8324    2.5170 C   0  0  0  0  0  0  0  0  0  0  0  0
    1.9199   -2.8480    2.7846 C   0  0  0  0  0  0  0  0  0  0  0  0
    1.1069   -1.7230    3.3570 C   0  0  0  0  0  0  0  0  0  0  0  0
    1.8087   -0.3435    3.3242 C   0  0  1  0  0  0  0  0  0  0  0  0
    0.9028    0.7578    4.0404 C   0  0  1  0  0  0  0  0  0  0  0  0
    1.4204    2.1730    3.6348 C   0  0  0  0  0  0  0  0  0  0  0  0
   -0.5803    0.7084    3.5572 C   0  0  0  0  0  0  0  0  0  0  0  0
   -1.5453    1.6276    4.3412 C   0  0  0  0  0  0  0  0  0  0  0  0
   -1.5026    1.3793    5.8566 C   0  0  1  0  0  0  0  0  0  0  0  0
   -2.1475    0.1319    6.0776 O   0  0  0  0  0  0  0  0  0  0  0  0
   -0.0667    1.4118    6.4450 C   0  0  0  0  0  0  0  0  0  0  0  0
    0.3991    2.8858    6.5269 C   0  0  0  0  0  0  0  0  0  0  0  0
   -0.1157    0.9181    7.9102 C   0  0  0  0  0  0  0  0  0  0  0  0
    0.8689    0.4795    5.5864 C   0  0  2  0  0  0  0  0  0  0  0  0
    2.2703    0.2101    6.1750 C   0  0  0  0  0  0  0  0  0  0  0  0
    3.1054   -0.8320    5.3876 C   0  0  0  0  0  0  0  0  0  0  0  0
    3.2761   -0.5258    3.8615 C   0  0  2  0  0  0  0  0  0  0  0  0
    4.0940    0.7864    3.8234 C   0  0  0  0  0  0  0  0  0  0  0  0
    4.1098   -1.6449    3.0055 C   0  0  1  0  0  0  0  0  0  0  0  0
    5.1943   -2.1361    3.9836 C   0  0  0  0  0  0  0  0  0  0  0  0
    4.8144   -1.0463    1.7364 C   0  0  0  0  0  0  0  0  0  0  0  0
    5.8984   -1.8578    0.9697 C   0  0  0  0  0  0  0  0  0  0  0  0
    5.5081   -3.1591    0.2284 C   0  0  1  0  0  0  0  0  0  0  0  0
    5.0529   -4.3364    1.1403 C   0  0  0  0  0  0  0  0  0  0  0  0
    5.9664   -4.7107    2.3255 C   0  0  0  0  0  0  0  0  0  0  0  0
    5.0265   -5.6818    0.3521 C   0  0  0  0  0  0  0  0  0  0  0  0
    3.4381   -0.2216   -4.2160 H   0  0  0  0  0  0  0  0  0  0  0  0
    5.0047   -0.3611   -3.4148 H   0  0  0  0  0  0  0  0  0  0  0  0
    3.8138    0.6407   -2.7237 H   0  0  0  0  0  0  0  0  0  0  0  0
    2.4146   -1.5317   -2.2850 H   0  0  0  0  0  0  0  0  0  0  0  0
    5.6706   -3.6408   -2.3677 H   0  0  0  0  0  0  0  0  0  0  0  0
    4.2141   -4.6100   -2.1642 H   0  0  0  0  0  0  0  0  0  0  0  0
    2.3386   -2.6487    0.1122 H   0  0  0  0  0  0  0  0  0  0  0  0
    2.6297   -4.2537   -0.4900 H   0  0  0  0  0  0  0  0  0  0  0  0
    3.0721   -4.8021    1.7346 H   0  0  0  0  0  0  0  0  0  0  0  0
    1.3092   -3.6641    2.4268 H   0  0  0  0  0  0  0  0  0  0  0  0
    0.2364   -1.6778    2.7145 H   0  0  0  0  0  0  0  0  0  0  0  0
    0.7690   -2.0414    4.3373 H   0  0  0  0  0  0  0  0  0  0  0  0
    1.8838   -0.0695    2.2697 H   0  0  0  0  0  0  0  0  0  0  0  0
    0.6350    2.9079    3.4747 H   0  0  0  0  0  0  0  0  0  0  0  0
    1.9482    2.1584    2.6810 H   0  0  0  0  0  0  0  0  0  0  0  0
    2.0806    2.6119    4.3776 H   0  0  0  0  0  0  0  0  0  0  0  0
   -0.6403    0.9300    2.4893 H   0  0  0  0  0  0  0  0  0  0  0  0
   -0.9882   -0.2892    3.6914 H   0  0  0  0  0  0  0  0  0  0  0  0
   -1.3385    2.6746    4.1367 H   0  0  0  0  0  0  0  0  0  0  0  0
   -2.5648    1.4846    3.9845 H   0  0  0  0  0  0  0  0  0  0  0  0
   -2.1164    2.1405    6.3411 H   0  0  0  0  0  0  0  0  0  0  0  0
   -2.8305    0.0699    5.4367 H   0  0  0  0  0  0  0  0  0  0  0  0
    1.4632    2.9702    6.7449 H   0  0  0  0  0  0  0  0  0  0  0  0
   -0.1408    3.4296    7.3062 H   0  0  0  0  0  0  0  0  0  0  0  0
    0.2078    3.4327    5.6086 H   0  0  0  0  0  0  0  0  0  0  0  0
    0.8172    1.1282    8.4340 H   0  0  0  0  0  0  0  0  0  0  0  0
   -0.2786   -0.1580    7.9601 H   0  0  0  0  0  0  0  0  0  0  0  0
   -0.9149    1.4029    8.4749 H   0  0  0  0  0  0  0  0  0  0  0  0
    0.3827   -0.4863    5.7034 H   0  0  0  0  0  0  0  0  0  0  0  0
    2.8160    1.1420    6.3064 H   0  0  0  0  0  0  0  0  0  0  0  0
    2.1670   -0.1930    7.1795 H   0  0  0  0  0  0  0  0  0  0  0  0
    4.0618   -0.8861    5.9072 H   0  0  0  0  0  0  0  0  0  0  0  0
    2.6548   -1.8137    5.5141 H   0  0  0  0  0  0  0  0  0  0  0  0
    5.1634    0.6368    3.9729 H   0  0  0  0  0  0  0  0  0  0  0  0
    3.8398    1.5262    4.5665 H   0  0  0  0  0  0  0  0  0  0  0  0
    3.9397    1.2689    2.8663 H   0  0  0  0  0  0  0  0  0  0  0  0
    5.6379   -1.3378    4.5770 H   0  0  0  0  0  0  0  0  0  0  0  0
    6.0434   -2.5475    3.4758 H   0  0  0  0  0  0  0  0  0  0  0  0
    4.8186   -2.8880    4.6777 H   0  0  0  0  0  0  0  0  0  0  0  0
    4.0360   -0.7097    1.0542 H   0  0  0  0  0  0  0  0  0  0  0  0
    5.3747   -0.1506    1.9823 H   0  0  0  0  0  0  0  0  0  0  0  0
    6.2713   -1.1905    0.1954 H   0  0  0  0  0  0  0  0  0  0  0  0
    6.7812   -2.0262    1.5852 H   0  0  0  0  0  0  0  0  0  0  0  0
    6.4022   -3.4658   -0.3097 H   0  0  0  0  0  0  0  0  0  0  0  0
    6.3497   -5.7309    2.2870 H   0  0  0  0  0  0  0  0  0  0  0  0
    5.4551   -4.6373    3.2815 H   0  0  0  0  0  0  0  0  0  0  0  0
    6.8700   -4.1189    2.2990 H   0  0  0  0  0  0  0  0  0  0  0  0
    6.0066   -5.9013   -0.0730 H   0  0  0  0  0  0  0  0  0  0  0  0
    4.3027   -5.7323   -0.4522 H   0  0  0  0  0  0  0  0  0  0  0  0
    4.7691   -6.5182    1.0041 H   0  0  0  0  0  0  0  0  0  0  0  0
  1  2  1  0
  1 36  1  0
  1 37  1  0
  1 38  1  0
  2  6  1  0
  2  3  1  0
  2 39  1  1
  4  3  1  6
  4 32  1  0
  4  5  1  0
  4  8  1  0
  5  6  1  0
  5 40  1  0
  5 41  1  0
  6  7  2  0
  8  9  1  0
  8 42  1  0
  8 43  1  0
  9 33  1  0
  9 10  1  0
  9 44  1  1
 10 28  1  0
 10 11  2  0
 11 12  1  0
 11 45  1  0
 12 13  1  0
 12 46  1  0
 12 47  1  0
 13 26  1  0
 13 14  1  0
 13 48  1  6
 14 23  1  0
 14 15  1  1
 14 16  1  0
 15 49  1  0
 15 50  1  0
 15 51  1  0
 16 17  1  0
 16 52  1  0
 16 53  1  0
 17 18  1  0
 17 54  1  0
 17 55  1  0
 18 19  1  0
 18 20  1  0
 18 56  1  1
 19 57  1  0
 20 21  1  0
 20 22  1  0
 20 23  1  0
 21 58  1  0
 21 59  1  0
 21 60  1  0
 22 61  1  0
 22 62  1  0
 22 63  1  0
 23 24  1  0
 23 64  1  6
 24 25  1  0
 24 65  1  0
 24 66  1  0
 25 26  1  0
 25 67  1  0
 25 68  1  0
 26 27  1  1
 26 28  1  0
 27 69  1  0
 27 70  1  0
 27 71  1  0
 28 29  1  1
 28 30  1  0
 29 72  1  0
 29 73  1  0
 29 74  1  0
 30 31  1  0
 30 75  1  0
 30 76  1  0
 31 32  1  0
 31 77  1  0
 31 78  1  0
 32 33  1  0
 32 79  1  6
 33 34  1  0
 33 35  1  0
 34 80  1  0
 34 81  1  0
 34 82  1  0
 35 83  1  0
 35 84  1  0
 35 85  1  0
M  END
>  <i_m_ct_stereo_status>  (70) 
1

>  <s_m_source_file>  (70) 
/var/tmp/pbs.5076255.sched01/tmp361wbqj1/0nt8_y6ui.sdf

>  <i_m_source_file_index>  (70) 
24

>  <i_lp_mmshare_version>  (70) 
48012

>  <i_f3d_flags>  (70) 
0

>  <s_epik_input>  (70) 
W0NIMl0xQyg9TylbQ0BIXShbQ0gzXSlPW0NAXTEyW0NASF0zW0NIMl1bQ0gyXVtDQF00KFtDSDNdKUMoW0NAQEhdKFtDSDJdMilDMyhbQ0gzXSlbQ0gzXSk9W0NIXVtDSDJdW0NASF01W0NAXTYoW0NIM10pW0NASF0oQyhbQ0gzXSkoW0NIM10pW0NASF0oW09IXSlbQ0gyXVtDSDJdNilbQ0gyXVtDSDJdW0NAQF00NVtDSDNd

>  <s_epik_cmdline>  (70) 
J2VwaWtfcHl0aG9uJywgJy1waHQnLCAnMi4wJywgJy1waCcsICc3LjAnLCAnLXRuJywgJzgnLCAnLW1hJywgJzIwMCcsICctaW1hZScsICc8aW5maWxlLm1hZT4nLCAnLW9tYWUnLCAnPG91dGZpbGUubWFlPic=

>  <r_lp_tautomer_probability>  (70) 
1

>  <r_epik_Ionization_Penalty>  (70) 
2.97751e-06

>  <r_epik_Ionization_Penalty_Charging>  (70) 
0

>  <r_epik_Ionization_Penalty_Neutral>  (70) 
2.97751e-06

>  <r_epik_State_Penalty>  (70) 
-0

>  <r_epik_Charging_Adjusted_Penalty>  (70) 
0

>  <i_epik_Tot_Q>  (70) 
0

>  <i_epik_Tot_abs_Q>  (70) 
0

>  <s_lp_Force_Field>  (70) 
OPLS3e

>  <r_lp_Energy>  (70) 
119.994

>  <b_lp_Chiralities_Consistent>  (70) 
1

>  <s_lp_Variant>  (70) 
19:0-1

>  <s_i_glide_gridfile>  (70) 
pfpi4k_grid

>  <i_i_glide_lignum>  (70) 
24

>  <i_i_glide_rotatable_bonds>  (70) 
1

>  <r_i_docking_score>  (70) 
-4.01643

>  <r_i_glide_ligand_efficiency>  (70) 
-0.114755

>  <r_i_glide_ligand_efficiency_sa>  (70) 
-0.375372

>  <r_i_glide_ligand_efficiency_ln>  (70) 
-0.881695

>  <r_i_glide_gscore>  (70) 
-4.01643

>  <r_i_glide_lipo>  (70) 
-0.694877

>  <r_i_glide_hbond>  (70) 
-0.404711

>  <r_i_glide_metal>  (70) 
-0

>  <r_i_glide_rewards>  (70) 
-0.253618

>  <r_i_glide_evdw>  (70) 
-31.045

>  <r_i_glide_ecoul>  (70) 
-7.40649

>  <r_i_glide_erotb>  (70) 
0

>  <r_i_glide_esite>  (70) 
0

>  <r_i_glide_emodel>  (70) 
-46.3265

>  <r_i_glide_energy>  (70) 
-38.4515

>  <r_i_glide_einternal>  (70) 
0.856994

>  <r_i_glide_intrahb_reward>  (70) 
-0

>  <i_i_glide_confnum>  (70) 
2

>  <i_i_glide_posenum>  (70) 
32

>  <r_i_glide_eff_state_penalty>  (70) 
0

>  <ligand_id>  (70) 
19

>  <original_smiles>  (70) 
CC1OC2(CC1=O)CC1C3=CCC4C5(C)CCC(O)C(C)(C)C5CCC4(C)C3(C)CCC2C1(C)C

>  <smiles>  (70) 
[H]OC1([H])C([H])([H])C([H])([H])C2(C([H])([H])[H])C([H])(C([H])([H])C([H])([H])C3(C([H])([H])[H])C2([H])C([H])([H])C([H])=C2C4([H])C([H])([H])C5(OC([H])(C([H])([H])[H])C(=O)C5([H])[H])C([H])(C([H])([H])C([H])([H])C23C([H])([H])[H])C4(C([H])([H])[H])C([H])([H])[H])C1(C([H])([H])[H])C([H])([H])[H]

$$$$
19:0:2
     RDKit          3D

 85 90  0  0  1  0  0  0  0  0999 V2000
    2.4674   -0.2858    4.6578 C   0  0  0  0  0  0  0  0  0  0  0  0
    2.2361   -0.9494    3.2874 C   0  0  2  0  0  0  0  0  0  0  0  0
    3.3552   -1.7521    2.9099 O   0  0  0  0  0  0  0  0  0  0  0  0
    3.4925   -1.7941    1.4752 C   0  0  2  0  0  0  0  0  0  0  0  0
    3.0454   -0.3677    1.0627 C   0  0  0  0  0  0  0  0  0  0  0  0
    2.1194    0.0545    2.1660 C   0  0  0  0  0  0  0  0  0  0  0  0
    1.4474    1.0786    2.1809 O   0  0  0  0  0  0  0  0  0  0  0  0
    2.6833   -2.9886    0.8908 C   0  0  0  0  0  0  0  0  0  0  0  0
    3.6751   -3.8939    0.0931 C   0  0  2  0  0  0  0  0  0  0  0  0
    3.9373   -5.1961    0.9133 C   0  0  0  0  0  0  0  0  0  0  0  0
    2.8640   -6.0047    0.9164 C   0  0  0  0  0  0  0  0  0  0  0  0
    2.5469   -7.0700    1.9188 C   0  0  0  0  0  0  0  0  0  0  0  0
    3.3636   -6.9739    3.2350 C   0  0  1  0  0  0  0  0  0  0  0  0
    3.0237   -8.2045    4.1957 C   0  0  1  0  0  0  0  0  0  0  0  0
    3.5118   -7.8664    5.6387 C   0  0  0  0  0  0  0  0  0  0  0  0
    1.4830   -8.4480    4.3157 C   0  0  0  0  0  0  0  0  0  0  0  0
    1.0811   -9.7285    5.0875 C   0  0  0  0  0  0  0  0  0  0  0  0
    1.7428  -10.9935    4.5171 C   0  0  1  0  0  0  0  0  0  0  0  0
    1.1151  -11.2966    3.2832 O   0  0  0  0  0  0  0  0  0  0  0  0
    3.2890  -10.8613    4.3549 C   0  0  0  0  0  0  0  0  0  0  0  0
    3.9393  -10.9768    5.7560 C   0  0  0  0  0  0  0  0  0  0  0  0
    3.8115  -12.0798    3.5524 C   0  0  0  0  0  0  0  0  0  0  0  0
    3.6226   -9.5240    3.5878 C   0  0  2  0  0  0  0  0  0  0  0  0
    5.0897   -9.3602    3.1322 C   0  0  0  0  0  0  0  0  0  0  0  0
    5.3447   -8.1063    2.2549 C   0  0  0  0  0  0  0  0  0  0  0  0
    4.8896   -6.7382    2.8853 C   0  0  2  0  0  0  0  0  0  0  0  0
    5.7845   -6.5495    4.1546 C   0  0  0  0  0  0  0  0  0  0  0  0
    5.1151   -5.4273    1.9238 C   0  0  1  0  0  0  0  0  0  0  0  0
    6.4586   -5.7003    1.1865 C   0  0  0  0  0  0  0  0  0  0  0  0
    5.2538   -4.1020    2.7504 C   0  0  0  0  0  0  0  0  0  0  0  0
    5.7748   -2.7987    2.0738 C   0  0  0  0  0  0  0  0  0  0  0  0
    4.9374   -2.0930    0.9868 C   0  0  1  0  0  0  0  0  0  0  0  0
    4.7787   -2.8894   -0.3333 C   0  0  0  0  0  0  0  0  0  0  0  0
    6.0648   -3.4547   -0.9763 C   0  0  0  0  0  0  0  0  0  0  0  0
    4.2198   -1.9802   -1.4728 C   0  0  0  0  0  0  0  0  0  0  0  0
    1.6051    0.3197    4.9466 H   0  0  0  0  0  0  0  0  0  0  0  0
    3.3410    0.3657    4.6451 H   0  0  0  0  0  0  0  0  0  0  0  0
    2.6213   -1.0309    5.4358 H   0  0  0  0  0  0  0  0  0  0  0  0
    1.3261   -1.5546    3.2977 H   0  0  0  0  0  0  0  0  0  0  0  0
    3.8868    0.3217    1.0674 H   0  0  0  0  0  0  0  0  0  0  0  0
    2.5539   -0.3100    0.0983 H   0  0  0  0  0  0  0  0  0  0  0  0
    2.1602   -3.5325    1.6754 H   0  0  0  0  0  0  0  0  0  0  0  0
    1.9057   -2.6520    0.2085 H   0  0  0  0  0  0  0  0  0  0  0  0
    3.1949   -4.2340   -0.8278 H   0  0  0  0  0  0  0  0  0  0  0  0
    2.0489   -5.8001    0.2374 H   0  0  0  0  0  0  0  0  0  0  0  0
    1.4928   -6.9079    2.1392 H   0  0  0  0  0  0  0  0  0  0  0  0
    2.6247   -8.0277    1.4087 H   0  0  0  0  0  0  0  0  0  0  0  0
    3.0185   -6.0670    3.7341 H   0  0  0  0  0  0  0  0  0  0  0  0
    2.8451   -8.2127    6.4256 H   0  0  0  0  0  0  0  0  0  0  0  0
    3.5742   -6.7912    5.8097 H   0  0  0  0  0  0  0  0  0  0  0  0
    4.4806   -8.3011    5.8737 H   0  0  0  0  0  0  0  0  0  0  0  0
    0.9966   -7.5790    4.7639 H   0  0  0  0  0  0  0  0  0  0  0  0
    1.0372   -8.5767    3.3321 H   0  0  0  0  0  0  0  0  0  0  0  0
    1.3149   -9.6481    6.1455 H   0  0  0  0  0  0  0  0  0  0  0  0
   -0.0039   -9.8456    5.0563 H   0  0  0  0  0  0  0  0  0  0  0  0
    1.5164  -11.8301    5.1811 H   0  0  0  0  0  0  0  0  0  0  0  0
    1.4231  -12.1457    3.0033 H   0  0  0  0  0  0  0  0  0  0  0  0
    4.9953  -10.7097    5.7420 H   0  0  0  0  0  0  0  0  0  0  0  0
    3.8668  -11.9972    6.1398 H   0  0  0  0  0  0  0  0  0  0  0  0
    3.4457  -10.3605    6.5025 H   0  0  0  0  0  0  0  0  0  0  0  0
    4.9005  -12.1554    3.5910 H   0  0  0  0  0  0  0  0  0  0  0  0
    3.5257  -12.0215    2.4999 H   0  0  0  0  0  0  0  0  0  0  0  0
    3.4152  -13.0175    3.9490 H   0  0  0  0  0  0  0  0  0  0  0  0
    3.1010   -9.6724    2.6453 H   0  0  0  0  0  0  0  0  0  0  0  0
    5.7617   -9.3946    3.9857 H   0  0  0  0  0  0  0  0  0  0  0  0
    5.3726  -10.2155    2.5214 H   0  0  0  0  0  0  0  0  0  0  0  0
    6.4104   -8.1243    2.0362 H   0  0  0  0  0  0  0  0  0  0  0  0
    4.8625   -8.2495    1.2888 H   0  0  0  0  0  0  0  0  0  0  0  0
    6.7869   -6.2015    3.9078 H   0  0  0  0  0  0  0  0  0  0  0  0
    5.9766   -7.4531    4.7165 H   0  0  0  0  0  0  0  0  0  0  0  0
    5.3550   -5.8325    4.8543 H   0  0  0  0  0  0  0  0  0  0  0  0
    7.2073   -6.1784    1.8160 H   0  0  0  0  0  0  0  0  0  0  0  0
    6.9886   -4.8224    0.8634 H   0  0  0  0  0  0  0  0  0  0  0  0
    6.3022   -6.3377    0.3165 H   0  0  0  0  0  0  0  0  0  0  0  0
    4.3134   -3.9227    3.2644 H   0  0  0  0  0  0  0  0  0  0  0  0
    5.9789   -4.2234    3.5469 H   0  0  0  0  0  0  0  0  0  0  0  0
    5.8759   -2.0735    2.8809 H   0  0  0  0  0  0  0  0  0  0  0  0
    6.7995   -2.9174    1.7296 H   0  0  0  0  0  0  0  0  0  0  0  0
    5.4592   -1.1619    0.7721 H   0  0  0  0  0  0  0  0  0  0  0  0
    6.2497   -3.0810   -1.9839 H   0  0  0  0  0  0  0  0  0  0  0  0
    5.9799   -4.5313   -1.0957 H   0  0  0  0  0  0  0  0  0  0  0  0
    6.9688   -3.1860   -0.4355 H   0  0  0  0  0  0  0  0  0  0  0  0
    4.8636   -1.1148   -1.6468 H   0  0  0  0  0  0  0  0  0  0  0  0
    3.2122   -1.6080   -1.3094 H   0  0  0  0  0  0  0  0  0  0  0  0
    4.1523   -2.5266   -2.4174 H   0  0  0  0  0  0  0  0  0  0  0  0
  1  2  1  0
  1 36  1  0
  1 37  1  0
  1 38  1  0
  2  6  1  0
  2  3  1  0
  2 39  1  1
  4  3  1  1
  4 32  1  0
  4  5  1  0
  4  8  1  0
  5  6  1  0
  5 40  1  0
  5 41  1  0
  6  7  2  0
  8  9  1  0
  8 42  1  0
  8 43  1  0
  9 33  1  0
  9 10  1  0
  9 44  1  6
 10 28  1  0
 10 11  2  0
 11 12  1  0
 11 45  1  0
 12 13  1  0
 12 46  1  0
 12 47  1  0
 13 26  1  0
 13 14  1  0
 13 48  1  1
 14 23  1  0
 14 15  1  1
 14 16  1  0
 15 49  1  0
 15 50  1  0
 15 51  1  0
 16 17  1  0
 16 52  1  0
 16 53  1  0
 17 18  1  0
 17 54  1  0
 17 55  1  0
 18 19  1  0
 18 20  1  0
 18 56  1  1
 19 57  1  0
 20 21  1  0
 20 22  1  0
 20 23  1  0
 21 58  1  0
 21 59  1  0
 21 60  1  0
 22 61  1  0
 22 62  1  0
 22 63  1  0
 23 24  1  0
 23 64  1  6
 24 25  1  0
 24 65  1  0
 24 66  1  0
 25 26  1  0
 25 67  1  0
 25 68  1  0
 26 27  1  1
 26 28  1  0
 27 69  1  0
 27 70  1  0
 27 71  1  0
 28 29  1  6
 28 30  1  0
 29 72  1  0
 29 73  1  0
 29 74  1  0
 30 31  1  0
 30 75  1  0
 30 76  1  0
 31 32  1  0
 31 77  1  0
 31 78  1  0
 32 33  1  0
 32 79  1  6
 33 34  1  0
 33 35  1  0
 34 80  1  0
 34 81  1  0
 34 82  1  0
 35 83  1  0
 35 84  1  0
 35 85  1  0
M  END
>  <i_m_ct_stereo_status>  (71) 
1

>  <s_m_source_file>  (71) 
/var/tmp/pbs.5076255.sched01/tmp361wbqj1/0nt8_y6ui.sdf

>  <i_m_source_file_index>  (71) 
24

>  <i_lp_mmshare_version>  (71) 
48012

>  <i_f3d_flags>  (71) 
0

>  <s_epik_input>  (71) 
W0NIMl0xQyg9TylbQ0BIXShbQ0gzXSlPW0NAXTEyW0NASF0zW0NIMl1bQ0gyXVtDQF00KFtDSDNdKUMoW0NAQEhdKFtDSDJdMilDMyhbQ0gzXSlbQ0gzXSk9W0NIXVtDSDJdW0NASF01W0NAXTYoW0NIM10pW0NASF0oQyhbQ0gzXSkoW0NIM10pW0NASF0oW09IXSlbQ0gyXVtDSDJdNilbQ0gyXVtDSDJdW0NAQF00NVtDSDNd

>  <s_epik_cmdline>  (71) 
J2VwaWtfcHl0aG9uJywgJy1waHQnLCAnMi4wJywgJy1waCcsICc3LjAnLCAnLXRuJywgJzgnLCAnLW1hJywgJzIwMCcsICctaW1hZScsICc8aW5maWxlLm1hZT4nLCAnLW9tYWUnLCAnPG91dGZpbGUubWFlPic=

>  <r_lp_tautomer_probability>  (71) 
1

>  <r_epik_Ionization_Penalty>  (71) 
2.97751e-06

>  <r_epik_Ionization_Penalty_Charging>  (71) 
0

>  <r_epik_Ionization_Penalty_Neutral>  (71) 
2.97751e-06

>  <r_epik_State_Penalty>  (71) 
-0

>  <r_epik_Charging_Adjusted_Penalty>  (71) 
0

>  <i_epik_Tot_Q>  (71) 
0

>  <i_epik_Tot_abs_Q>  (71) 
0

>  <s_lp_Force_Field>  (71) 
OPLS3e

>  <r_lp_Energy>  (71) 
119.994

>  <b_lp_Chiralities_Consistent>  (71) 
1

>  <s_lp_Variant>  (71) 
19:0-1

>  <s_i_glide_gridfile>  (71) 
pfpi4k_grid

>  <i_i_glide_lignum>  (71) 
24

>  <i_i_glide_rotatable_bonds>  (71) 
1

>  <r_i_docking_score>  (71) 
-2.54888

>  <r_i_glide_ligand_efficiency>  (71) 
-0.072825

>  <r_i_glide_ligand_efficiency_sa>  (71) 
-0.238215

>  <r_i_glide_ligand_efficiency_ln>  (71) 
-0.559535

>  <r_i_glide_gscore>  (71) 
-2.54888

>  <r_i_glide_lipo>  (71) 
-0.362821

>  <r_i_glide_hbond>  (71) 
0

>  <r_i_glide_metal>  (71) 
-0

>  <r_i_glide_rewards>  (71) 
-0.117698

>  <r_i_glide_evdw>  (71) 
-33.6437

>  <r_i_glide_ecoul>  (71) 
-2.34424

>  <r_i_glide_erotb>  (71) 
0

>  <r_i_glide_esite>  (71) 
-0.0345366

>  <r_i_glide_emodel>  (71) 
-41.1716

>  <r_i_glide_energy>  (71) 
-35.9879

>  <r_i_glide_einternal>  (71) 
0.335475

>  <r_i_glide_intrahb_reward>  (71) 
-0

>  <i_i_glide_confnum>  (71) 
3

>  <i_i_glide_posenum>  (71) 
8

>  <r_i_glide_eff_state_penalty>  (71) 
0

>  <ligand_id>  (71) 
19

>  <original_smiles>  (71) 
CC1OC2(CC1=O)CC1C3=CCC4C5(C)CCC(O)C(C)(C)C5CCC4(C)C3(C)CCC2C1(C)C

>  <smiles>  (71) 
[H]OC1([H])C([H])([H])C([H])([H])C2(C([H])([H])[H])C([H])(C([H])([H])C([H])([H])C3(C([H])([H])[H])C2([H])C([H])([H])C([H])=C2C4([H])C([H])([H])C5(OC([H])(C([H])([H])[H])C(=O)C5([H])[H])C([H])(C([H])([H])C([H])([H])C23C([H])([H])[H])C4(C([H])([H])[H])C([H])([H])[H])C1(C([H])([H])[H])C([H])([H])[H]

$$$$
20:0:0
     RDKit          3D

 54 60  0  0  1  0  0  0  0  0999 V2000
    2.4801   -7.5330    1.7006 C   0  0  0  0  0  0  0  0  0  0  0  0
    2.5735   -6.1396    2.2855 C   0  0  0  0  0  0  0  0  0  0  0  0
    3.6464   -5.3041    2.2448 C   0  0  0  0  0  0  0  0  0  0  0  0
    3.4424   -3.8406    2.8091 C   0  0  2  0  0  0  0  0  0  0  0  0
    4.0465   -2.3891    3.4247 C   0  0  1  0  0  0  0  0  0  0  0  0
    3.5623   -1.7429    4.7640 C   0  0  0  0  0  0  0  0  0  0  0  0
    2.1419   -2.2690    5.1404 C   0  0  0  0  0  0  0  0  0  0  0  0
    1.9906   -3.7783    4.8157 C   0  0  2  0  0  0  0  0  0  0  0  0
    3.4263   -4.3409    5.1449 C   0  0  0  0  0  0  0  0  0  0  0  0
    4.4237   -4.1041    3.9411 C   0  0  2  0  0  0  0  0  0  0  0  0
    5.2262   -2.9976    3.0276 C   0  0  1  0  0  0  0  0  0  0  0  0
    5.1108   -3.0380    1.3924 C   0  0  1  0  0  0  0  0  0  0  0  0
    3.4933   -2.9564    1.0017 C   0  0  1  0  0  0  0  0  0  0  0  0
    3.6826   -3.4167   -0.4326 C   0  0  1  0  0  0  0  0  0  0  0  0
    2.7705   -3.2015   -1.6299 C   0  0  0  0  0  0  0  0  0  0  0  0
    3.8392   -3.1163   -2.7401 C   0  0  0  0  0  0  0  0  0  0  0  0
    3.6219   -3.3740   -3.9142 O   0  0  0  0  0  0  0  0  0  0  0  0
    5.0221   -2.7659   -2.1728 O   0  0  0  0  0  0  0  0  0  0  0  0
    4.7920   -2.4092   -0.8286 C   0  0  2  0  0  0  0  0  0  0  0  0
    5.8640   -2.2578    0.3013 C   0  0  0  0  0  0  0  0  0  0  0  0
    6.0726   -0.7834    0.6721 C   0  0  0  0  0  0  0  0  0  0  0  0
    7.2156   -2.8963   -0.0837 C   0  0  0  0  0  0  0  0  0  0  0  0
    2.2959   -3.1834    2.1878 C   0  0  1  0  0  0  0  0  0  0  0  0
    1.4921   -4.0542    3.2787 C   0  0  1  0  0  0  0  0  0  0  0  0
    1.3887   -5.5505    2.9020 C   0  0  0  0  0  0  0  0  0  0  0  0
    0.3202   -6.1604    3.1137 O   0  0  0  0  0  0  0  0  0  0  0  0
    2.1692   -8.2369    2.4709 H   0  0  0  0  0  0  0  0  0  0  0  0
    3.4268   -7.8612    1.2804 H   0  0  0  0  0  0  0  0  0  0  0  0
    1.7254   -7.5670    0.9068 H   0  0  0  0  0  0  0  0  0  0  0  0
    4.5603   -5.6496    1.7973 H   0  0  0  0  0  0  0  0  0  0  0  0
    4.0251   -1.5180    2.7855 H   0  0  0  0  0  0  0  0  0  0  0  0
    4.2802   -1.9088    5.5647 H   0  0  0  0  0  0  0  0  0  0  0  0
    3.5189   -0.6593    4.6657 H   0  0  0  0  0  0  0  0  0  0  0  0
    1.9842   -2.0953    6.2085 H   0  0  0  0  0  0  0  0  0  0  0  0
    1.3662   -1.6983    4.6272 H   0  0  0  0  0  0  0  0  0  0  0  0
    1.2678   -4.2112    5.4975 H   0  0  0  0  0  0  0  0  0  0  0  0
    3.8164   -4.0061    6.1105 H   0  0  0  0  0  0  0  0  0  0  0  0
    3.3212   -5.4183    5.2779 H   0  0  0  0  0  0  0  0  0  0  0  0
    5.1168   -4.9448    3.9034 H   0  0  0  0  0  0  0  0  0  0  0  0
    6.0760   -2.5121    3.4627 H   0  0  0  0  0  0  0  0  0  0  0  0
    5.5037   -4.0243    1.1566 H   0  0  0  0  0  0  0  0  0  0  0  0
    3.2626   -1.9014    0.8364 H   0  0  0  0  0  0  0  0  0  0  0  0
    4.0495   -4.4479   -0.4568 H   0  0  0  0  0  0  0  0  0  0  0  0
    2.0655   -4.0311   -1.7678 H   0  0  0  0  0  0  0  0  0  0  0  0
    2.2204   -2.2590   -1.5709 H   0  0  0  0  0  0  0  0  0  0  0  0
    4.3369   -1.4188   -0.9218 H   0  0  0  0  0  0  0  0  0  0  0  0
    6.4978   -0.2333   -0.1639 H   0  0  0  0  0  0  0  0  0  0  0  0
    6.7593   -0.6738    1.5104 H   0  0  0  0  0  0  0  0  0  0  0  0
    5.1415   -0.2817    0.9359 H   0  0  0  0  0  0  0  0  0  0  0  0
    7.6959   -2.3523   -0.8977 H   0  0  0  0  0  0  0  0  0  0  0  0
    7.0950   -3.9268   -0.4222 H   0  0  0  0  0  0  0  0  0  0  0  0
    7.9082   -2.9006    0.7590 H   0  0  0  0  0  0  0  0  0  0  0  0
    2.0192   -2.1768    2.4779 H   0  0  0  0  0  0  0  0  0  0  0  0
    0.4724   -3.6723    3.2414 H   0  0  0  0  0  0  0  0  0  0  0  0
  1  2  1  0
  1 27  1  0
  1 28  1  0
  1 29  1  0
  2 25  1  0
  2  3  2  0
  4  3  1  6
  3 30  1  0
  4 10  1  0
  4 23  1  0
  4  5  1  0
  5 11  1  0
  5  6  1  0
  5 31  1  6
  6  7  1  0
  6 32  1  0
  6 33  1  0
  7  8  1  0
  7 34  1  0
  7 35  1  0
  8 24  1  0
  8  9  1  0
  8 36  1  1
  9 10  1  0
  9 37  1  0
  9 38  1  0
 10 11  1  0
 10 39  1  6
 11 12  1  0
 11 40  1  6
 12 20  1  0
 12 13  1  0
 12 41  1  6
 13 14  1  0
 13 23  1  0
 13 42  1  6
 14 19  1  0
 14 15  1  0
 14 43  1  1
 15 16  1  0
 15 44  1  0
 15 45  1  0
 16 17  2  0
 16 18  1  0
 18 19  1  0
 19 20  1  0
 19 46  1  6
 20 21  1  0
 20 22  1  0
 21 47  1  0
 21 48  1  0
 21 49  1  0
 22 50  1  0
 22 51  1  0
 22 52  1  0
 23 24  1  0
 23 53  1  1
 24 25  1  0
 24 54  1  1
 25 26  2  0
M  END
>  <i_m_ct_stereo_status>  (72) 
1

>  <s_m_source_file>  (72) 
/var/tmp/pbs.5076255.sched01/tmp361wbqj1/0nt8_y6ui.sdf

>  <i_m_source_file_index>  (72) 
25

>  <i_lp_mmshare_version>  (72) 
48012

>  <i_f3d_flags>  (72) 
0

>  <s_epik_input>  (72) 
W0NAXTEyM1tDQEBIXTRbQ0BIXTVbQ0BIXTJbQ0gyXVtDQEBIXShbQ0gyXVtDSDJdNClbQ0BIXShDKD1PKUMoW0NIM10pPVtDSF0xKVtDSF0zW0NASF02W0NASF01QyhbQ0gzXSkoW0NIM10pW0NAQEhdN1tDQEBIXTZbQ0gyXUMoPU8pTzc=

>  <s_epik_cmdline>  (72) 
J2VwaWtfcHl0aG9uJywgJy1waHQnLCAnMi4wJywgJy1waCcsICc3LjAnLCAnLXRuJywgJzgnLCAnLW1hJywgJzIwMCcsICctaW1hZScsICc8aW5maWxlLm1hZT4nLCAnLW9tYWUnLCAnPG91dGZpbGUubWFlPic=

>  <r_lp_tautomer_probability>  (72) 
1

>  <r_epik_Ionization_Penalty>  (72) 
0

>  <r_epik_Ionization_Penalty_Charging>  (72) 
0

>  <r_epik_Ionization_Penalty_Neutral>  (72) 
0

>  <r_epik_State_Penalty>  (72) 
-0

>  <r_epik_Charging_Adjusted_Penalty>  (72) 
0

>  <i_epik_Tot_Q>  (72) 
0

>  <i_epik_Tot_abs_Q>  (72) 
0

>  <s_epik_Chemistry_Notes>  (72) 
This compound has an ester and may undergo hydrolysis at high or low pH.

>  <s_lp_Force_Field>  (72) 
OPLS3e

>  <r_lp_Energy>  (72) 
442.092

>  <b_lp_Chiralities_Consistent>  (72) 
1

>  <s_lp_Variant>  (72) 
20:0-1

>  <s_i_glide_gridfile>  (72) 
pfpi4k_grid

>  <i_i_glide_lignum>  (72) 
25

>  <i_i_glide_rotatable_bonds>  (72) 
0

>  <r_i_docking_score>  (72) 
-3.40275

>  <r_i_glide_ligand_efficiency>  (72) 
-0.130875

>  <r_i_glide_ligand_efficiency_sa>  (72) 
-0.387717

>  <r_i_glide_ligand_efficiency_ln>  (72) 
-0.799126

>  <r_i_glide_gscore>  (72) 
-3.40275

>  <r_i_glide_lipo>  (72) 
-0.459976

>  <r_i_glide_hbond>  (72) 
-0.0797832

>  <r_i_glide_metal>  (72) 
-0

>  <r_i_glide_rewards>  (72) 
-1.00591

>  <r_i_glide_evdw>  (72) 
-24.1373

>  <r_i_glide_ecoul>  (72) 
-4.00189

>  <r_i_glide_erotb>  (72) 
0

>  <r_i_glide_esite>  (72) 
-0.0499359

>  <r_i_glide_emodel>  (72) 
-33.5267

>  <r_i_glide_energy>  (72) 
-28.1392

>  <r_i_glide_einternal>  (72) 
0

>  <r_i_glide_intrahb_reward>  (72) 
-0

>  <i_i_glide_confnum>  (72) 
2

>  <i_i_glide_posenum>  (72) 
11

>  <r_i_glide_eff_state_penalty>  (72) 
0

>  <ligand_id>  (72) 
20

>  <original_smiles>  (72) 
CC1=CC23C4CCC5CC2C4C2C(C4CC(=O)OC4C2(C)C)C3C5C1=O

>  <smiles>  (72) 
[H]C1=C(C([H])([H])[H])C(=O)C2([H])C3([H])C([H])([H])C([H])([H])C4([H])C5([H])C([H])(C3([H])[H])C14C2([H])C1([H])C2([H])C([H])([H])C(=O)OC2([H])C(C([H])([H])[H])(C([H])([H])[H])C51[H]

$$$$
20:0:1
     RDKit          3D

 54 60  0  0  1  0  0  0  0  0999 V2000
    3.3480    0.4286    2.1866 C   0  0  0  0  0  0  0  0  0  0  0  0
    2.4596   -0.2841    3.1874 C   0  0  0  0  0  0  0  0  0  0  0  0
    2.0955    0.1622    4.4046 C   0  0  0  0  0  0  0  0  0  0  0  0
    1.0669   -0.7319    5.2145 C   0  0  2  0  0  0  0  0  0  0  0  0
    0.2968   -1.2010    6.6507 C   0  0  1  0  0  0  0  0  0  0  0  0
    0.1996   -2.6853    7.1296 C   0  0  0  0  0  0  0  0  0  0  0  0
    0.3667   -3.6639    5.9239 C   0  0  0  0  0  0  0  0  0  0  0  0
    1.4436   -3.1617    4.9284 C   0  0  2  0  0  0  0  0  0  0  0  0
    2.5105   -2.4951    5.8881 C   0  0  0  0  0  0  0  0  0  0  0  0
    2.0908   -1.0291    6.2988 C   0  0  2  0  0  0  0  0  0  0  0  0
    1.0015   -0.0985    7.1155 C   0  0  1  0  0  0  0  0  0  0  0  0
    0.2689    1.1510    6.3476 C   0  0  1  0  0  0  0  0  0  0  0  0
   -0.4770    0.5580    4.9738 C   0  0  1  0  0  0  0  0  0  0  0  0
   -0.6612    1.9122    4.3106 C   0  0  1  0  0  0  0  0  0  0  0  0
   -1.6374    2.3015    3.2210 C   0  0  0  0  0  0  0  0  0  0  0  0
   -1.8456    3.7664    3.6389 C   0  0  0  0  0  0  0  0  0  0  0  0
   -2.2196    4.6627    2.8804 O   0  0  0  0  0  0  0  0  0  0  0  0
   -1.5501    3.9078    4.9583 O   0  0  0  0  0  0  0  0  0  0  0  0
   -1.3450    2.6290    5.5072 C   0  0  2  0  0  0  0  0  0  0  0  0
   -0.6437    2.2858    6.8694 C   0  0  0  0  0  0  0  0  0  0  0  0
   -1.6600    1.7966    7.9144 C   0  0  0  0  0  0  0  0  0  0  0  0
    0.1440    3.4866    7.4310 C   0  0  0  0  0  0  0  0  0  0  0  0
   -0.1291   -1.0064    4.4136 C   0  0  1  0  0  0  0  0  0  0  0  0
    0.8310   -2.1425    3.7955 C   0  0  1  0  0  0  0  0  0  0  0  0
    1.8836   -1.5853    2.8014 C   0  0  0  0  0  0  0  0  0  0  0  0
    2.2095   -2.2405    1.8131 O   0  0  0  0  0  0  0  0  0  0  0  0
    4.1857   -0.2075    1.9032 H   0  0  0  0  0  0  0  0  0  0  0  0
    3.7415    1.3429    2.6156 H   0  0  0  0  0  0  0  0  0  0  0  0
    2.7986    0.6834    1.2771 H   0  0  0  0  0  0  0  0  0  0  0  0
    2.4788    1.1017    4.7663 H   0  0  0  0  0  0  0  0  0  0  0  0
   -0.7408   -0.9013    6.7993 H   0  0  0  0  0  0  0  0  0  0  0  0
    0.9237   -2.8921    7.9186 H   0  0  0  0  0  0  0  0  0  0  0  0
   -0.7650   -2.8817    7.5962 H   0  0  0  0  0  0  0  0  0  0  0  0
    0.6483   -4.6441    6.3147 H   0  0  0  0  0  0  0  0  0  0  0  0
   -0.5793   -3.8107    5.4030 H   0  0  0  0  0  0  0  0  0  0  0  0
    1.8896   -4.0179    4.4253 H   0  0  0  0  0  0  0  0  0  0  0  0
    2.7780   -3.1297    6.7392 H   0  0  0  0  0  0  0  0  0  0  0  0
    3.4443   -2.4273    5.3265 H   0  0  0  0  0  0  0  0  0  0  0  0
    3.0030   -0.4314    6.3902 H   0  0  0  0  0  0  0  0  0  0  0  0
    1.0749   -0.0661    8.1962 H   0  0  0  0  0  0  0  0  0  0  0  0
    1.1170    1.7728    6.0617 H   0  0  0  0  0  0  0  0  0  0  0  0
   -1.5091    0.3285    5.2478 H   0  0  0  0  0  0  0  0  0  0  0  0
    0.3140    2.3496    4.0808 H   0  0  0  0  0  0  0  0  0  0  0  0
   -1.2246    2.2002    2.2198 H   0  0  0  0  0  0  0  0  0  0  0  0
   -2.5841    1.7670    3.3000 H   0  0  0  0  0  0  0  0  0  0  0  0
   -2.3618    2.2367    5.6093 H   0  0  0  0  0  0  0  0  0  0  0  0
   -2.3590    2.5904    8.1797 H   0  0  0  0  0  0  0  0  0  0  0  0
   -1.1651    1.4801    8.8341 H   0  0  0  0  0  0  0  0  0  0  0  0
   -2.2490    0.9595    7.5424 H   0  0  0  0  0  0  0  0  0  0  0  0
   -0.5286    4.2841    7.7452 H   0  0  0  0  0  0  0  0  0  0  0  0
    0.8218    3.9148    6.6905 H   0  0  0  0  0  0  0  0  0  0  0  0
    0.7380    3.1997    8.2997 H   0  0  0  0  0  0  0  0  0  0  0  0
   -0.9401   -1.6243    4.8052 H   0  0  0  0  0  0  0  0  0  0  0  0
    0.1888   -2.7574    3.1700 H   0  0  0  0  0  0  0  0  0  0  0  0
  1  2  1  0
  1 27  1  0
  1 28  1  0
  1 29  1  0
  2 25  1  0
  2  3  2  0
  4  3  1  1
  3 30  1  0
  4 10  1  0
  4 23  1  0
  4  5  1  0
  5 11  1  0
  5  6  1  0
  5 31  1  6
  6  7  1  0
  6 32  1  0
  6 33  1  0
  7  8  1  0
  7 34  1  0
  7 35  1  0
  8 24  1  0
  8  9  1  0
  8 36  1  6
  9 10  1  0
  9 37  1  0
  9 38  1  0
 10 11  1  0
 10 39  1  6
 11 12  1  0
 11 40  1  1
 12 20  1  0
 12 13  1  0
 12 41  1  6
 13 14  1  0
 13 23  1  0
 13 42  1  1
 14 19  1  0
 14 15  1  0
 14 43  1  6
 15 16  1  0
 15 44  1  0
 15 45  1  0
 16 17  2  0
 16 18  1  0
 18 19  1  0
 19 20  1  0
 19 46  1  1
 20 21  1  0
 20 22  1  0
 21 47  1  0
 21 48  1  0
 21 49  1  0
 22 50  1  0
 22 51  1  0
 22 52  1  0
 23 24  1  0
 23 53  1  1
 24 25  1  0
 24 54  1  6
 25 26  2  0
M  END
>  <i_m_ct_stereo_status>  (73) 
1

>  <s_m_source_file>  (73) 
/var/tmp/pbs.5076255.sched01/tmp361wbqj1/0nt8_y6ui.sdf

>  <i_m_source_file_index>  (73) 
25

>  <i_lp_mmshare_version>  (73) 
48012

>  <i_f3d_flags>  (73) 
0

>  <s_epik_input>  (73) 
W0NAXTEyM1tDQEBIXTRbQ0BIXTVbQ0BIXTJbQ0gyXVtDQEBIXShbQ0gyXVtDSDJdNClbQ0BIXShDKD1PKUMoW0NIM10pPVtDSF0xKVtDSF0zW0NASF02W0NASF01QyhbQ0gzXSkoW0NIM10pW0NAQEhdN1tDQEBIXTZbQ0gyXUMoPU8pTzc=

>  <s_epik_cmdline>  (73) 
J2VwaWtfcHl0aG9uJywgJy1waHQnLCAnMi4wJywgJy1waCcsICc3LjAnLCAnLXRuJywgJzgnLCAnLW1hJywgJzIwMCcsICctaW1hZScsICc8aW5maWxlLm1hZT4nLCAnLW9tYWUnLCAnPG91dGZpbGUubWFlPic=

>  <r_lp_tautomer_probability>  (73) 
1

>  <r_epik_Ionization_Penalty>  (73) 
0

>  <r_epik_Ionization_Penalty_Charging>  (73) 
0

>  <r_epik_Ionization_Penalty_Neutral>  (73) 
0

>  <r_epik_State_Penalty>  (73) 
-0

>  <r_epik_Charging_Adjusted_Penalty>  (73) 
0

>  <i_epik_Tot_Q>  (73) 
0

>  <i_epik_Tot_abs_Q>  (73) 
0

>  <s_epik_Chemistry_Notes>  (73) 
This compound has an ester and may undergo hydrolysis at high or low pH.

>  <s_lp_Force_Field>  (73) 
OPLS3e

>  <r_lp_Energy>  (73) 
442.092

>  <b_lp_Chiralities_Consistent>  (73) 
1

>  <s_lp_Variant>  (73) 
20:0-1

>  <s_i_glide_gridfile>  (73) 
pfpi4k_grid

>  <i_i_glide_lignum>  (73) 
25

>  <i_i_glide_rotatable_bonds>  (73) 
0

>  <r_i_docking_score>  (73) 
-2.80258

>  <r_i_glide_ligand_efficiency>  (73) 
-0.107792

>  <r_i_glide_ligand_efficiency_sa>  (73) 
-0.319332

>  <r_i_glide_ligand_efficiency_ln>  (73) 
-0.658177

>  <r_i_glide_gscore>  (73) 
-2.80258

>  <r_i_glide_lipo>  (73) 
-0.114283

>  <r_i_glide_hbond>  (73) 
-0.16

>  <r_i_glide_metal>  (73) 
-0

>  <r_i_glide_rewards>  (73) 
-1.00591

>  <r_i_glide_evdw>  (73) 
-22.5583

>  <r_i_glide_ecoul>  (73) 
-2.03635

>  <r_i_glide_erotb>  (73) 
0

>  <r_i_glide_esite>  (73) 
-0.089022

>  <r_i_glide_emodel>  (73) 
-29.0321

>  <r_i_glide_energy>  (73) 
-24.5947

>  <r_i_glide_einternal>  (73) 
0

>  <r_i_glide_intrahb_reward>  (73) 
-0

>  <i_i_glide_confnum>  (73) 
2

>  <i_i_glide_posenum>  (73) 
15

>  <r_i_glide_eff_state_penalty>  (73) 
0

>  <ligand_id>  (73) 
20

>  <original_smiles>  (73) 
CC1=CC23C4CCC5CC2C4C2C(C4CC(=O)OC4C2(C)C)C3C5C1=O

>  <smiles>  (73) 
[H]C1=C(C([H])([H])[H])C(=O)C2([H])C3([H])C([H])([H])C([H])([H])C4([H])C5([H])C([H])(C3([H])[H])C14C2([H])C1([H])C2([H])C([H])([H])C(=O)OC2([H])C(C([H])([H])[H])(C([H])([H])[H])C51[H]

$$$$
20:0:2
     RDKit          3D

 54 60  0  0  1  0  0  0  0  0999 V2000
    4.3917    1.7482    7.7090 C   0  0  0  0  0  0  0  0  0  0  0  0
    3.8416    1.2146    6.3965 C   0  0  0  0  0  0  0  0  0  0  0  0
    2.5425    1.1331    6.0430 C   0  0  0  0  0  0  0  0  0  0  0  0
    2.2292    0.6354    4.5691 C   0  0  2  0  0  0  0  0  0  0  0  0
    1.1840    0.0117    3.3912 C   0  0  1  0  0  0  0  0  0  0  0  0
    1.5350   -1.2194    2.4983 C   0  0  0  0  0  0  0  0  0  0  0  0
    3.0820   -1.4216    2.4198 C   0  0  0  0  0  0  0  0  0  0  0  0
    3.7641   -1.1404    3.7867 C   0  0  2  0  0  0  0  0  0  0  0  0
    2.6901   -1.6812    4.8186 C   0  0  0  0  0  0  0  0  0  0  0  0
    1.5426   -0.6267    5.0796 C   0  0  2  0  0  0  0  0  0  0  0  0
    0.2731    0.2058    4.4273 C   0  0  1  0  0  0  0  0  0  0  0  0
    0.2214    1.8395    4.5581 C   0  0  1  0  0  0  0  0  0  0  0  0
    1.6330    2.4587    3.9184 C   0  0  1  0  0  0  0  0  0  0  0  0
    1.4808    3.8374    4.5407 C   0  0  1  0  0  0  0  0  0  0  0  0
    2.1281    5.1407    4.1105 C   0  0  0  0  0  0  0  0  0  0  0  0
    1.0017    6.0901    4.5577 C   0  0  0  0  0  0  0  0  0  0  0  0
    1.1833    7.2607    4.8831 O   0  0  0  0  0  0  0  0  0  0  0  0
   -0.1699    5.4073    4.6089 O   0  0  0  0  0  0  0  0  0  0  0  0
    0.0344    4.1273    4.0588 C   0  0  2  0  0  0  0  0  0  0  0  0
   -0.8854    2.8640    4.2194 C   0  0  0  0  0  0  0  0  0  0  0  0
   -1.6076    2.5344    2.9031 C   0  0  0  0  0  0  0  0  0  0  0  0
   -1.9194    3.0360    5.3495 C   0  0  0  0  0  0  0  0  0  0  0  0
    2.9508    1.4438    3.5838 C   0  0  1  0  0  0  0  0  0  0  0  0
    4.1509    0.4461    3.9877 C   0  0  1  0  0  0  0  0  0  0  0  0
    4.7965    0.7758    5.3592 C   0  0  0  0  0  0  0  0  0  0  0  0
    6.0106    0.6393    5.5293 O   0  0  0  0  0  0  0  0  0  0  0  0
    5.0327    0.9988    8.1727 H   0  0  0  0  0  0  0  0  0  0  0  0
    3.5933    2.0032    8.4036 H   0  0  0  0  0  0  0  0  0  0  0  0
    4.9946    2.6427    7.5421 H   0  0  0  0  0  0  0  0  0  0  0  0
    1.7778    1.4265    6.7481 H   0  0  0  0  0  0  0  0  0  0  0  0
    0.8124    0.6862    2.6133 H   0  0  0  0  0  0  0  0  0  0  0  0
    1.0296   -2.1205    2.8498 H   0  0  0  0  0  0  0  0  0  0  0  0
    1.1547   -1.0792    1.4869 H   0  0  0  0  0  0  0  0  0  0  0  0
    3.2800   -2.4502    2.1077 H   0  0  0  0  0  0  0  0  0  0  0  0
    3.5213   -0.7871    1.6487 H   0  0  0  0  0  0  0  0  0  0  0  0
    4.6755   -1.7394    3.8581 H   0  0  0  0  0  0  0  0  0  0  0  0
    2.3156   -2.6763    4.5637 H   0  0  0  0  0  0  0  0  0  0  0  0
    3.2133   -1.8443    5.7621 H   0  0  0  0  0  0  0  0  0  0  0  0
    1.2383   -0.7175    6.1298 H   0  0  0  0  0  0  0  0  0  0  0  0
   -0.6590   -0.3337    4.2743 H   0  0  0  0  0  0  0  0  0  0  0  0
    0.2170    1.9791    5.6354 H   0  0  0  0  0  0  0  0  0  0  0  0
    1.4315    2.6979    2.8712 H   0  0  0  0  0  0  0  0  0  0  0  0
    1.5373    3.7630    5.6325 H   0  0  0  0  0  0  0  0  0  0  0  0
    3.0718    5.3370    4.6239 H   0  0  0  0  0  0  0  0  0  0  0  0
    2.2658    5.1995    3.0248 H   0  0  0  0  0  0  0  0  0  0  0  0
    0.0640    4.3195    2.9841 H   0  0  0  0  0  0  0  0  0  0  0  0
   -2.3013    3.3286    2.6216 H   0  0  0  0  0  0  0  0  0  0  0  0
   -2.1786    1.6096    2.9817 H   0  0  0  0  0  0  0  0  0  0  0  0
   -0.9013    2.4164    2.0802 H   0  0  0  0  0  0  0  0  0  0  0  0
   -2.6565    3.7932    5.0893 H   0  0  0  0  0  0  0  0  0  0  0  0
   -1.4533    3.3473    6.2850 H   0  0  0  0  0  0  0  0  0  0  0  0
   -2.4593    2.1070    5.5366 H   0  0  0  0  0  0  0  0  0  0  0  0
    2.8721    1.2404    2.5139 H   0  0  0  0  0  0  0  0  0  0  0  0
    4.9458    0.6414    3.2695 H   0  0  0  0  0  0  0  0  0  0  0  0
  1  2  1  0
  1 27  1  0
  1 28  1  0
  1 29  1  0
  2 25  1  0
  2  3  2  0
  4  3  1  1
  3 30  1  0
  4 10  1  0
  4 23  1  0
  4  5  1  0
  5 11  1  0
  5  6  1  0
  5 31  1  6
  6  7  1  0
  6 32  1  0
  6 33  1  0
  7  8  1  0
  7 34  1  0
  7 35  1  0
  8 24  1  0
  8  9  1  0
  8 36  1  6
  9 10  1  0
  9 37  1  0
  9 38  1  0
 10 11  1  0
 10 39  1  1
 11 12  1  0
 11 40  1  6
 12 20  1  0
 12 13  1  0
 12 41  1  1
 13 14  1  0
 13 23  1  0
 13 42  1  6
 14 19  1  0
 14 15  1  0
 14 43  1  1
 15 16  1  0
 15 44  1  0
 15 45  1  0
 16 17  2  0
 16 18  1  0
 18 19  1  0
 19 20  1  0
 19 46  1  6
 20 21  1  0
 20 22  1  0
 21 47  1  0
 21 48  1  0
 21 49  1  0
 22 50  1  0
 22 51  1  0
 22 52  1  0
 23 24  1  0
 23 53  1  6
 24 25  1  0
 24 54  1  6
 25 26  2  0
M  END
>  <i_m_ct_stereo_status>  (74) 
1

>  <s_m_source_file>  (74) 
/var/tmp/pbs.5076255.sched01/tmp361wbqj1/0nt8_y6ui.sdf

>  <i_m_source_file_index>  (74) 
25

>  <i_lp_mmshare_version>  (74) 
48012

>  <i_f3d_flags>  (74) 
0

>  <s_epik_input>  (74) 
W0NAXTEyM1tDQEBIXTRbQ0BIXTVbQ0BIXTJbQ0gyXVtDQEBIXShbQ0gyXVtDSDJdNClbQ0BIXShDKD1PKUMoW0NIM10pPVtDSF0xKVtDSF0zW0NASF02W0NASF01QyhbQ0gzXSkoW0NIM10pW0NAQEhdN1tDQEBIXTZbQ0gyXUMoPU8pTzc=

>  <s_epik_cmdline>  (74) 
J2VwaWtfcHl0aG9uJywgJy1waHQnLCAnMi4wJywgJy1waCcsICc3LjAnLCAnLXRuJywgJzgnLCAnLW1hJywgJzIwMCcsICctaW1hZScsICc8aW5maWxlLm1hZT4nLCAnLW9tYWUnLCAnPG91dGZpbGUubWFlPic=

>  <r_lp_tautomer_probability>  (74) 
1

>  <r_epik_Ionization_Penalty>  (74) 
0

>  <r_epik_Ionization_Penalty_Charging>  (74) 
0

>  <r_epik_Ionization_Penalty_Neutral>  (74) 
0

>  <r_epik_State_Penalty>  (74) 
-0

>  <r_epik_Charging_Adjusted_Penalty>  (74) 
0

>  <i_epik_Tot_Q>  (74) 
0

>  <i_epik_Tot_abs_Q>  (74) 
0

>  <s_epik_Chemistry_Notes>  (74) 
This compound has an ester and may undergo hydrolysis at high or low pH.

>  <s_lp_Force_Field>  (74) 
OPLS3e

>  <r_lp_Energy>  (74) 
442.092

>  <b_lp_Chiralities_Consistent>  (74) 
1

>  <s_lp_Variant>  (74) 
20:0-1

>  <s_i_glide_gridfile>  (74) 
pfpi4k_grid

>  <i_i_glide_lignum>  (74) 
25

>  <i_i_glide_rotatable_bonds>  (74) 
0

>  <r_i_docking_score>  (74) 
-2.5775

>  <r_i_glide_ligand_efficiency>  (74) 
-0.0991344

>  <r_i_glide_ligand_efficiency_sa>  (74) 
-0.293685

>  <r_i_glide_ligand_efficiency_ln>  (74) 
-0.605316

>  <r_i_glide_gscore>  (74) 
-2.5775

>  <r_i_glide_lipo>  (74) 
-0.00498306

>  <r_i_glide_hbond>  (74) 
0

>  <r_i_glide_metal>  (74) 
-0

>  <r_i_glide_rewards>  (74) 
-1.04733

>  <r_i_glide_evdw>  (74) 
-22.5531

>  <r_i_glide_ecoul>  (74) 
-2.36313

>  <r_i_glide_erotb>  (74) 
0

>  <r_i_glide_esite>  (74) 
-0.0430568

>  <r_i_glide_emodel>  (74) 
-29.0008

>  <r_i_glide_energy>  (74) 
-24.9162

>  <r_i_glide_einternal>  (74) 
0

>  <r_i_glide_intrahb_reward>  (74) 
-0

>  <i_i_glide_confnum>  (74) 
2

>  <i_i_glide_posenum>  (74) 
39

>  <r_i_glide_eff_state_penalty>  (74) 
0

>  <ligand_id>  (74) 
20

>  <original_smiles>  (74) 
CC1=CC23C4CCC5CC2C4C2C(C4CC(=O)OC4C2(C)C)C3C5C1=O

>  <smiles>  (74) 
[H]C1=C(C([H])([H])[H])C(=O)C2([H])C3([H])C([H])([H])C([H])([H])C4([H])C5([H])C([H])(C3([H])[H])C14C2([H])C1([H])C2([H])C([H])([H])C(=O)OC2([H])C(C([H])([H])[H])(C([H])([H])[H])C51[H]

$$$$
21:0:0
     RDKit          3D

 28 31  0  0  1  0  0  0  0  0999 V2000
    3.2864   -2.6055   -3.5665 C   0  0  0  0  0  0  0  0  0  0  0  0
    4.4984   -1.9665   -2.8487 C   0  0  0  0  0  0  0  0  0  0  0  0
    4.5734   -2.7347   -1.5930 C   0  0  0  0  0  0  0  0  0  0  0  0
    5.5116   -2.9352   -0.6844 N   0  0  0  0  0  0  0  0  0  0  0  0
    4.9110   -3.8309    0.1865 N   0  0  0  0  0  0  0  0  0  0  0  0
    3.6749   -4.0791   -0.2801 C   0  0  0  0  0  0  0  0  0  0  0  0
    2.7550   -5.0360    0.3380 C   0  0  0  0  0  0  0  0  0  0  0  0
    2.8717   -5.6311    1.5291 N   0  0  0  0  0  0  0  0  0  0  0  0
    1.7519   -6.4098    1.5459 C   0  0  0  0  0  0  0  0  0  0  0  0
    1.3344   -7.2089    2.7461 C   0  0  0  0  0  0  0  0  0  0  0  0
    0.0574   -8.0474    2.6692 C   0  0  0  0  0  0  0  0  0  0  0  0
   -0.7001   -7.0089    3.3458 O   0  0  0  0  0  0  0  0  0  0  0  0
    0.5567   -6.4949    3.8485 C   0  0  0  0  0  0  0  0  0  0  0  0
    0.9304   -6.2537    0.5151 N   0  0  0  0  0  0  0  0  0  0  0  0
    1.6211   -5.3709   -0.3117 O   0  0  0  0  0  0  0  0  0  0  0  0
    3.4364   -3.3804   -1.4074 N   0  0  0  0  0  0  0  0  0  0  0  0
    2.4359   -3.1673   -2.4144 C   0  0  0  0  0  0  0  0  0  0  0  0
    3.6623   -3.4589   -4.1297 H   0  0  0  0  0  0  0  0  0  0  0  0
    2.7575   -1.9453   -4.2637 H   0  0  0  0  0  0  0  0  0  0  0  0
    5.4176   -2.0544   -3.4028 H   0  0  0  0  0  0  0  0  0  0  0  0
    4.2877   -0.9308   -2.5864 H   0  0  0  0  0  0  0  0  0  0  0  0
    2.1811   -7.7682    3.1327 H   0  0  0  0  0  0  0  0  0  0  0  0
   -0.3087   -8.2205    1.6677 H   0  0  0  0  0  0  0  0  0  0  0  0
    0.0883   -8.9604    3.2560 H   0  0  0  0  0  0  0  0  0  0  0  0
    0.7377   -6.8996    4.8351 H   0  0  0  0  0  0  0  0  0  0  0  0
    0.6096   -5.4102    3.8179 H   0  0  0  0  0  0  0  0  0  0  0  0
    1.7920   -2.3952   -2.0410 H   0  0  0  0  0  0  0  0  0  0  0  0
    1.8640   -4.0638   -2.6433 H   0  0  0  0  0  0  0  0  0  0  0  0
  1 17  1  0
  1  2  1  0
  1 18  1  0
  1 19  1  0
  2  3  1  0
  2 20  1  0
  2 21  1  0
  3 16  1  0
  3  4  2  0
  4  5  1  0
  5  6  2  0
  6  7  1  0
  6 16  1  0
  7 15  1  0
  7  8  2  0
  8  9  1  0
  9 10  1  0
  9 14  2  0
 10 13  1  0
 10 11  1  0
 10 22  1  0
 11 12  1  0
 11 23  1  0
 11 24  1  0
 12 13  1  0
 13 25  1  0
 13 26  1  0
 14 15  1  0
 16 17  1  0
 17 27  1  0
 17 28  1  0
M  END
>  <i_m_ct_stereo_status>  (75) 
1

>  <s_m_source_file>  (75) 
/var/tmp/pbs.5076255.sched01/tmp361wbqj1/0nt8_y6ui.sdf

>  <i_m_source_file_index>  (75) 
26

>  <i_lp_mmshare_version>  (75) 
48012

>  <i_f3d_flags>  (75) 
0

>  <s_epik_input>  (75) 
W0NIMl0xW0NIMl1bQ0gyXW4oYzEyKWMobm4yKS1jM25jKG5vMylbQ0hdNFtDSDJdT1tDSDJdNA==

>  <s_epik_cmdline>  (75) 
J2VwaWtfcHl0aG9uJywgJy1waHQnLCAnMi4wJywgJy1waCcsICc3LjAnLCAnLXRuJywgJzgnLCAnLW1hJywgJzIwMCcsICctaW1hZScsICc8aW5maWxlLm1hZT4nLCAnLW9tYWUnLCAnPG91dGZpbGUubWFlPic=

>  <r_lp_tautomer_probability>  (75) 
1

>  <r_epik_Ionization_Penalty>  (75) 
4.06163e-07

>  <r_epik_Ionization_Penalty_Charging>  (75) 
0

>  <r_epik_Ionization_Penalty_Neutral>  (75) 
4.06163e-07

>  <r_epik_State_Penalty>  (75) 
-0

>  <r_epik_Charging_Adjusted_Penalty>  (75) 
0

>  <i_epik_Tot_Q>  (75) 
0

>  <i_epik_Tot_abs_Q>  (75) 
0

>  <s_lp_Force_Field>  (75) 
OPLS3e

>  <r_lp_Energy>  (75) 
13.2104

>  <b_lp_Chiralities_Consistent>  (75) 
1

>  <s_lp_Variant>  (75) 
21:0-1

>  <s_i_glide_gridfile>  (75) 
pfpi4k_grid

>  <i_i_glide_lignum>  (75) 
26

>  <i_i_glide_rotatable_bonds>  (75) 
2

>  <r_i_docking_score>  (75) 
-4.21648

>  <r_i_glide_ligand_efficiency>  (75) 
-0.248028

>  <r_i_glide_ligand_efficiency_sa>  (75) 
-0.63775

>  <r_i_glide_ligand_efficiency_ln>  (75) 
-1.09999

>  <r_i_glide_gscore>  (75) 
-4.21648

>  <r_i_glide_lipo>  (75) 
-0.365562

>  <r_i_glide_hbond>  (75) 
-0.0987182

>  <r_i_glide_metal>  (75) 
-0

>  <r_i_glide_rewards>  (75) 
-1.90423

>  <r_i_glide_evdw>  (75) 
-21.6265

>  <r_i_glide_ecoul>  (75) 
-7.51088

>  <r_i_glide_erotb>  (75) 
0.63049

>  <r_i_glide_esite>  (75) 
-0.270504

>  <r_i_glide_emodel>  (75) 
-35.3957

>  <r_i_glide_energy>  (75) 
-29.1374

>  <r_i_glide_einternal>  (75) 
3.54857

>  <r_i_glide_intrahb_reward>  (75) 
-0

>  <i_i_glide_confnum>  (75) 
5

>  <i_i_glide_posenum>  (75) 
22

>  <r_i_glide_eff_state_penalty>  (75) 
0

>  <ligand_id>  (75) 
21

>  <original_smiles>  (75) 
C1Cc2nnc(-c3nc(C4COC4)no3)n2C1

>  <smiles>  (75) 
[H]C1([H])OC([H])([H])C1([H])c1noc(-c2nnc3n2C([H])([H])C([H])([H])C3([H])[H])n1

$$$$
21:0:1
     RDKit          3D

 28 31  0  0  1  0  0  0  0  0999 V2000
    4.0191   -2.5246   -2.7230 C   0  0  0  0  0  0  0  0  0  0  0  0
    5.3449   -2.4130   -1.9283 C   0  0  0  0  0  0  0  0  0  0  0  0
    5.1578   -3.4394   -0.8805 C   0  0  0  0  0  0  0  0  0  0  0  0
    5.9749   -4.0901   -0.0631 N   0  0  0  0  0  0  0  0  0  0  0  0
    5.1246   -4.9733    0.5962 N   0  0  0  0  0  0  0  0  0  0  0  0
    3.8817   -4.7655    0.1162 C   0  0  0  0  0  0  0  0  0  0  0  0
    2.7266   -5.5437    0.5409 C   0  0  0  0  0  0  0  0  0  0  0  0
    2.6217   -6.3535    1.5962 N   0  0  0  0  0  0  0  0  0  0  0  0
    1.3476   -6.8059    1.4726 C   0  0  0  0  0  0  0  0  0  0  0  0
    0.6839   -7.6828    2.4814 C   0  0  0  0  0  0  0  0  0  0  0  0
   -0.7384   -8.1788    2.2043 C   0  0  0  0  0  0  0  0  0  0  0  0
   -1.2886   -7.1193    3.0274 O   0  0  0  0  0  0  0  0  0  0  0  0
    0.0008   -7.0127    3.6746 C   0  0  0  0  0  0  0  0  0  0  0  0
    0.6520   -6.2691    0.4684 N   0  0  0  0  0  0  0  0  0  0  0  0
    1.5792   -5.4521   -0.1815 O   0  0  0  0  0  0  0  0  0  0  0  0
    3.8914   -3.7889   -0.8130 N   0  0  0  0  0  0  0  0  0  0  0  0
    3.0081   -3.0764   -1.6932 C   0  0  0  0  0  0  0  0  0  0  0  0
    4.1621   -3.2948   -3.4832 H   0  0  0  0  0  0  0  0  0  0  0  0
    3.7083   -1.6084   -3.2295 H   0  0  0  0  0  0  0  0  0  0  0  0
    6.2418   -2.6017   -2.5183 H   0  0  0  0  0  0  0  0  0  0  0  0
    5.4047   -1.4429   -1.4385 H   0  0  0  0  0  0  0  0  0  0  0  0
    1.3561   -8.4891    2.7824 H   0  0  0  0  0  0  0  0  0  0  0  0
   -1.0349   -8.0976    1.1603 H   0  0  0  0  0  0  0  0  0  0  0  0
   -0.9491   -9.1706    2.6077 H   0  0  0  0  0  0  0  0  0  0  0  0
    0.0258   -7.6131    4.5833 H   0  0  0  0  0  0  0  0  0  0  0  0
    0.3149   -5.9816    3.8469 H   0  0  0  0  0  0  0  0  0  0  0  0
    2.5759   -2.2591   -1.1185 H   0  0  0  0  0  0  0  0  0  0  0  0
    2.2264   -3.7122   -2.1102 H   0  0  0  0  0  0  0  0  0  0  0  0
  1 17  1  0
  1  2  1  0
  1 18  1  0
  1 19  1  0
  2  3  1  0
  2 20  1  0
  2 21  1  0
  3 16  1  0
  3  4  2  0
  4  5  1  0
  5  6  2  0
  6  7  1  0
  6 16  1  0
  7 15  1  0
  7  8  2  0
  8  9  1  0
  9 10  1  0
  9 14  2  0
 10 13  1  0
 10 11  1  0
 10 22  1  0
 11 12  1  0
 11 23  1  0
 11 24  1  0
 12 13  1  0
 13 25  1  0
 13 26  1  0
 14 15  1  0
 16 17  1  0
 17 27  1  0
 17 28  1  0
M  END
>  <i_m_ct_stereo_status>  (76) 
1

>  <s_m_source_file>  (76) 
/var/tmp/pbs.5076255.sched01/tmp361wbqj1/0nt8_y6ui.sdf

>  <i_m_source_file_index>  (76) 
26

>  <i_lp_mmshare_version>  (76) 
48012

>  <i_f3d_flags>  (76) 
0

>  <s_epik_input>  (76) 
W0NIMl0xW0NIMl1bQ0gyXW4oYzEyKWMobm4yKS1jM25jKG5vMylbQ0hdNFtDSDJdT1tDSDJdNA==

>  <s_epik_cmdline>  (76) 
J2VwaWtfcHl0aG9uJywgJy1waHQnLCAnMi4wJywgJy1waCcsICc3LjAnLCAnLXRuJywgJzgnLCAnLW1hJywgJzIwMCcsICctaW1hZScsICc8aW5maWxlLm1hZT4nLCAnLW9tYWUnLCAnPG91dGZpbGUubWFlPic=

>  <r_lp_tautomer_probability>  (76) 
1

>  <r_epik_Ionization_Penalty>  (76) 
4.06163e-07

>  <r_epik_Ionization_Penalty_Charging>  (76) 
0

>  <r_epik_Ionization_Penalty_Neutral>  (76) 
4.06163e-07

>  <r_epik_State_Penalty>  (76) 
-0

>  <r_epik_Charging_Adjusted_Penalty>  (76) 
0

>  <i_epik_Tot_Q>  (76) 
0

>  <i_epik_Tot_abs_Q>  (76) 
0

>  <s_lp_Force_Field>  (76) 
OPLS3e

>  <r_lp_Energy>  (76) 
13.2104

>  <b_lp_Chiralities_Consistent>  (76) 
1

>  <s_lp_Variant>  (76) 
21:0-1

>  <s_i_glide_gridfile>  (76) 
pfpi4k_grid

>  <i_i_glide_lignum>  (76) 
26

>  <i_i_glide_rotatable_bonds>  (76) 
2

>  <r_i_docking_score>  (76) 
-4.21031

>  <r_i_glide_ligand_efficiency>  (76) 
-0.247665

>  <r_i_glide_ligand_efficiency_sa>  (76) 
-0.636817

>  <r_i_glide_ligand_efficiency_ln>  (76) 
-1.09838

>  <r_i_glide_gscore>  (76) 
-4.21031

>  <r_i_glide_lipo>  (76) 
-0.0914928

>  <r_i_glide_hbond>  (76) 
-0.16

>  <r_i_glide_metal>  (76) 
-0

>  <r_i_glide_rewards>  (76) 
-1.90156

>  <r_i_glide_evdw>  (76) 
-22.7142

>  <r_i_glide_ecoul>  (76) 
-8.51022

>  <r_i_glide_erotb>  (76) 
0.63049

>  <r_i_glide_esite>  (76) 
-0.275497

>  <r_i_glide_emodel>  (76) 
-37.4484

>  <r_i_glide_energy>  (76) 
-31.2244

>  <r_i_glide_einternal>  (76) 
3.54234

>  <r_i_glide_intrahb_reward>  (76) 
-0

>  <i_i_glide_confnum>  (76) 
5

>  <i_i_glide_posenum>  (76) 
2

>  <r_i_glide_eff_state_penalty>  (76) 
0

>  <ligand_id>  (76) 
21

>  <original_smiles>  (76) 
C1Cc2nnc(-c3nc(C4COC4)no3)n2C1

>  <smiles>  (76) 
[H]C1([H])OC([H])([H])C1([H])c1noc(-c2nnc3n2C([H])([H])C([H])([H])C3([H])[H])n1

$$$$
21:0:2
     RDKit          3D

 28 31  0  0  1  0  0  0  0  0999 V2000
    4.1831   -3.1887   -1.4861 C   0  0  0  0  0  0  0  0  0  0  0  0
    5.5333   -3.5371   -0.8039 C   0  0  0  0  0  0  0  0  0  0  0  0
    5.1648   -4.6858    0.0422 C   0  0  0  0  0  0  0  0  0  0  0  0
    5.8509   -5.6336    0.6558 N   0  0  0  0  0  0  0  0  0  0  0  0
    4.8646   -6.4177    1.2228 N   0  0  0  0  0  0  0  0  0  0  0  0
    3.6872   -5.8640    0.9024 C   0  0  0  0  0  0  0  0  0  0  0  0
    2.4034   -6.4414    1.2867 C   0  0  0  0  0  0  0  0  0  0  0  0
    2.1553   -7.4225    2.1559 N   0  0  0  0  0  0  0  0  0  0  0  0
    0.8017   -7.5404    2.0490 C   0  0  0  0  0  0  0  0  0  0  0  0
   -0.0146   -8.4496    2.9283 C   0  0  0  0  0  0  0  0  0  0  0  0
   -1.4083   -8.8543    2.4717 C   0  0  0  0  0  0  0  0  0  0  0  0
   -2.0080   -7.8504    3.3277 O   0  0  0  0  0  0  0  0  0  0  0  0
   -0.7852   -7.8441    4.0965 C   0  0  0  0  0  0  0  0  0  0  0  0
    0.2134   -6.6569    1.2510 N   0  0  0  0  0  0  0  0  0  0  0  0
    1.2906   -5.9517    0.6908 O   0  0  0  0  0  0  0  0  0  0  0  0
    3.8501   -4.7391    0.1690 N   0  0  0  0  0  0  0  0  0  0  0  0
    3.1112   -3.7087   -0.5005 C   0  0  0  0  0  0  0  0  0  0  0  0
    4.1200   -3.8050   -2.3861 H   0  0  0  0  0  0  0  0  0  0  0  0
    4.0729   -2.1456   -1.7954 H   0  0  0  0  0  0  0  0  0  0  0  0
    6.3384   -3.8025   -1.4914 H   0  0  0  0  0  0  0  0  0  0  0  0
    5.8401   -2.7291   -0.1399 H   0  0  0  0  0  0  0  0  0  0  0  0
    0.5819   -9.3069    3.2321 H   0  0  0  0  0  0  0  0  0  0  0  0
   -1.5829   -8.6499    1.4204 H   0  0  0  0  0  0  0  0  0  0  0  0
   -1.7048   -9.8612    2.7675 H   0  0  0  0  0  0  0  0  0  0  0  0
   -0.8853   -8.5175    4.9426 H   0  0  0  0  0  0  0  0  0  0  0  0
   -0.4666   -6.8412    4.3766 H   0  0  0  0  0  0  0  0  0  0  0  0
    2.8631   -2.9549    0.2383 H   0  0  0  0  0  0  0  0  0  0  0  0
    2.2106   -4.0930   -0.9774 H   0  0  0  0  0  0  0  0  0  0  0  0
  1 17  1  0
  1  2  1  0
  1 18  1  0
  1 19  1  0
  2  3  1  0
  2 20  1  0
  2 21  1  0
  3 16  1  0
  3  4  2  0
  4  5  1  0
  5  6  2  0
  6  7  1  0
  6 16  1  0
  7 15  1  0
  7  8  2  0
  8  9  1  0
  9 10  1  0
  9 14  2  0
 10 13  1  0
 10 11  1  0
 10 22  1  0
 11 12  1  0
 11 23  1  0
 11 24  1  0
 12 13  1  0
 13 25  1  0
 13 26  1  0
 14 15  1  0
 16 17  1  0
 17 27  1  0
 17 28  1  0
M  END
>  <i_m_ct_stereo_status>  (77) 
1

>  <s_m_source_file>  (77) 
/var/tmp/pbs.5076255.sched01/tmp361wbqj1/0nt8_y6ui.sdf

>  <i_m_source_file_index>  (77) 
26

>  <i_lp_mmshare_version>  (77) 
48012

>  <i_f3d_flags>  (77) 
0

>  <s_epik_input>  (77) 
W0NIMl0xW0NIMl1bQ0gyXW4oYzEyKWMobm4yKS1jM25jKG5vMylbQ0hdNFtDSDJdT1tDSDJdNA==

>  <s_epik_cmdline>  (77) 
J2VwaWtfcHl0aG9uJywgJy1waHQnLCAnMi4wJywgJy1waCcsICc3LjAnLCAnLXRuJywgJzgnLCAnLW1hJywgJzIwMCcsICctaW1hZScsICc8aW5maWxlLm1hZT4nLCAnLW9tYWUnLCAnPG91dGZpbGUubWFlPic=

>  <r_lp_tautomer_probability>  (77) 
1

>  <r_epik_Ionization_Penalty>  (77) 
4.06163e-07

>  <r_epik_Ionization_Penalty_Charging>  (77) 
0

>  <r_epik_Ionization_Penalty_Neutral>  (77) 
4.06163e-07

>  <r_epik_State_Penalty>  (77) 
-0

>  <r_epik_Charging_Adjusted_Penalty>  (77) 
0

>  <i_epik_Tot_Q>  (77) 
0

>  <i_epik_Tot_abs_Q>  (77) 
0

>  <s_lp_Force_Field>  (77) 
OPLS3e

>  <r_lp_Energy>  (77) 
13.2104

>  <b_lp_Chiralities_Consistent>  (77) 
1

>  <s_lp_Variant>  (77) 
21:0-1

>  <s_i_glide_gridfile>  (77) 
pfpi4k_grid

>  <i_i_glide_lignum>  (77) 
26

>  <i_i_glide_rotatable_bonds>  (77) 
2

>  <r_i_docking_score>  (77) 
-3.94313

>  <r_i_glide_ligand_efficiency>  (77) 
-0.231949

>  <r_i_glide_ligand_efficiency_sa>  (77) 
-0.596406

>  <r_i_glide_ligand_efficiency_ln>  (77) 
-1.02868

>  <r_i_glide_gscore>  (77) 
-3.94313

>  <r_i_glide_lipo>  (77) 
-0.203355

>  <r_i_glide_hbond>  (77) 
0

>  <r_i_glide_metal>  (77) 
-0

>  <r_i_glide_rewards>  (77) 
-1.93283

>  <r_i_glide_evdw>  (77) 
-25.297

>  <r_i_glide_ecoul>  (77) 
-6.11275

>  <r_i_glide_erotb>  (77) 
0.63049

>  <r_i_glide_esite>  (77) 
-0.255671

>  <r_i_glide_emodel>  (77) 
-37.6316

>  <r_i_glide_energy>  (77) 
-31.4098

>  <r_i_glide_einternal>  (77) 
2.83735

>  <r_i_glide_intrahb_reward>  (77) 
-0

>  <i_i_glide_confnum>  (77) 
6

>  <i_i_glide_posenum>  (77) 
17

>  <r_i_glide_eff_state_penalty>  (77) 
0

>  <ligand_id>  (77) 
21

>  <original_smiles>  (77) 
C1Cc2nnc(-c3nc(C4COC4)no3)n2C1

>  <smiles>  (77) 
[H]C1([H])OC([H])([H])C1([H])c1noc(-c2nnc3n2C([H])([H])C([H])([H])C3([H])[H])n1

$$$$
22:0:0
     RDKit          3D

 50 54  0  0  1  0  0  0  0  0999 V2000
    1.0018   -1.8567    3.8284 C   0  0  0  0  0  0  0  0  0  0  0  0
    2.3845   -2.4592    3.5057 C   0  0  1  0  0  0  0  0  0  0  0  0
    2.2017   -3.7162    2.6772 C   0  0  0  0  0  0  0  0  0  0  0  0
    2.6376   -3.8344    1.4126 C   0  0  0  0  0  0  0  0  0  0  0  0
    3.4308   -2.7369    0.7189 C   0  0  2  0  0  0  0  0  0  0  0  0
    4.1275   -3.1899   -0.6183 C   0  0  1  0  0  0  0  0  0  0  0  0
    5.0066   -4.4599   -0.4753 C   0  0  0  0  0  0  0  0  0  0  0  0
    3.0728   -3.4109   -1.7241 C   0  0  0  0  0  0  0  0  0  0  0  0
    2.7626   -2.0986   -2.3092 N   0  0  0  0  0  0  0  0  0  0  0  0
    3.8953   -1.2041   -2.0191 C   0  0  0  0  0  0  0  0  0  0  0  0
    4.9314   -2.0338   -1.2541 C   0  0  1  0  0  0  0  0  0  0  0  0
    5.7836   -1.2360   -0.2438 C   0  0  0  0  0  0  0  0  0  0  0  0
    5.0152   -0.7950    1.0153 C   0  0  0  0  0  0  0  0  0  0  0  0
    4.3084   -1.9574    1.7537 C   0  0  2  0  0  0  0  0  0  0  0  0
    5.3806   -2.8756    2.4178 C   0  0  0  0  0  0  0  0  0  0  0  0
    3.3265   -1.3644    2.8394 C   0  0  2  0  0  0  0  0  0  0  0  0
    4.0531   -0.6416    4.0344 C   0  0  0  0  0  0  0  0  0  0  0  0
    3.9392   -1.6825    5.0607 C   0  0  0  0  0  0  0  0  0  0  0  0
    4.6342   -1.8274    6.2098 O   0  0  0  0  0  0  0  0  0  0  0  0
    4.1657   -3.0289    6.6937 C   0  0  0  0  0  0  0  0  0  0  0  0
    3.2196   -3.5953    5.8671 C   0  0  0  0  0  0  0  0  0  0  0  0
    3.0910   -2.6729    4.8003 C   0  0  0  0  0  0  0  0  0  0  0  0
    0.3848   -2.5497    4.4038 H   0  0  0  0  0  0  0  0  0  0  0  0
    0.4611   -1.5971    2.9195 H   0  0  0  0  0  0  0  0  0  0  0  0
    1.0937   -0.9446    4.4210 H   0  0  0  0  0  0  0  0  0  0  0  0
    1.6303   -4.5097    3.1352 H   0  0  0  0  0  0  0  0  0  0  0  0
    2.4240   -4.7287    0.8481 H   0  0  0  0  0  0  0  0  0  0  0  0
    2.6636   -2.0235    0.4147 H   0  0  0  0  0  0  0  0  0  0  0  0
    5.2312   -4.8969   -1.4492 H   0  0  0  0  0  0  0  0  0  0  0  0
    4.5244   -5.2412    0.1108 H   0  0  0  0  0  0  0  0  0  0  0  0
    5.9731   -4.2526   -0.0201 H   0  0  0  0  0  0  0  0  0  0  0  0
    3.5195   -3.9604   -2.5500 H   0  0  0  0  0  0  0  0  0  0  0  0
    2.1739   -3.9362   -1.3962 H   0  0  0  0  0  0  0  0  0  0  0  0
    2.5819   -2.1759   -3.3002 H   0  0  0  0  0  0  0  0  0  0  0  0
    4.2923   -0.7354   -2.9210 H   0  0  0  0  0  0  0  0  0  0  0  0
    3.5212   -0.4370   -1.3605 H   0  0  0  0  0  0  0  0  0  0  0  0
    5.6002   -2.4498   -2.0119 H   0  0  0  0  0  0  0  0  0  0  0  0
    6.6470   -1.8369    0.0386 H   0  0  0  0  0  0  0  0  0  0  0  0
    6.1894   -0.3509   -0.7258 H   0  0  0  0  0  0  0  0  0  0  0  0
    5.7161   -0.2932    1.6796 H   0  0  0  0  0  0  0  0  0  0  0  0
    4.2838   -0.0382    0.7330 H   0  0  0  0  0  0  0  0  0  0  0  0
    5.8619   -2.3873    3.2624 H   0  0  0  0  0  0  0  0  0  0  0  0
    6.1898   -3.1431    1.7463 H   0  0  0  0  0  0  0  0  0  0  0  0
    4.9643   -3.8118    2.7934 H   0  0  0  0  0  0  0  0  0  0  0  0
    2.7008   -0.6368    2.3223 H   0  0  0  0  0  0  0  0  0  0  0  0
    5.0750   -0.3109    3.8556 H   0  0  0  0  0  0  0  0  0  0  0  0
    3.4634    0.2220    4.3470 H   0  0  0  0  0  0  0  0  0  0  0  0
    4.6220   -3.3447    7.6181 H   0  0  0  0  0  0  0  0  0  0  0  0
    2.7235   -4.5454    6.0196 H   0  0  0  0  0  0  0  0  0  0  0  0
    1.9438   -1.7137   -1.8304 H   0  0  0  0  0  0  0  0  0  0  0  0
  2  1  1  1
  1 23  1  0
  1 24  1  0
  1 25  1  0
  2 16  1  0
  2 22  1  0
  2  3  1  0
  3  4  2  0
  3 26  1  0
  4  5  1  0
  4 27  1  0
  5 14  1  0
  5  6  1  0
  5 28  1  6
  6 11  1  0
  6  7  1  1
  6  8  1  0
  7 29  1  0
  7 30  1  0
  7 31  1  0
  8  9  1  0
  8 32  1  0
  8 33  1  0
  9 10  1  0
  9 34  1  0
  9 50  1  0
 10 11  1  0
 10 35  1  0
 10 36  1  0
 11 12  1  0
 11 37  1  6
 12 13  1  0
 12 38  1  0
 12 39  1  0
 13 14  1  0
 13 40  1  0
 13 41  1  0
 14 15  1  1
 14 16  1  0
 15 42  1  0
 15 43  1  0
 15 44  1  0
 16 17  1  0
 16 45  1  6
 17 18  1  0
 17 46  1  0
 17 47  1  0
 18 22  2  0
 18 19  1  0
 19 20  1  0
 20 21  2  0
 20 48  1  0
 21 22  1  0
 21 49  1  0
M  CHG  1   9   1
M  END
>  <i_m_ct_stereo_status>  (78) 
1

>  <s_m_source_file>  (78) 
/var/tmp/pbs.5076255.sched01/tmp361wbqj1/0nt8_y6ui.sdf

>  <i_m_source_file_index>  (78) 
27

>  <i_lp_mmshare_version>  (78) 
48012

>  <i_f3d_flags>  (78) 
0

>  <s_epik_input>  (78) 
bzFbY0hdW2NIXWMyYzFbQ0gyXVtDQEhdKFtDQF0yM1tDSDNdKVtDQEBdNChbQ0gzXSlbQ0BIXShbQ0hdPVtDSF0zKVtDQF01KFtDSDNdKVtDQEhdKFtDSDJdW0NIMl00KVtDSDJdW05IXVtDSDJdNQ==

>  <s_epik_cmdline>  (78) 
J2VwaWtfcHl0aG9uJywgJy1waHQnLCAnMi4wJywgJy1waCcsICc3LjAnLCAnLXRuJywgJzgnLCAnLW1hJywgJzIwMCcsICctaW1hZScsICc8aW5maWxlLm1hZT4nLCAnLW9tYWUnLCAnPG91dGZpbGUubWFlPic=

>  <r_lp_tautomer_probability>  (78) 
1

>  <r_epik_Ionization_Penalty>  (78) 
3.74853e-05

>  <r_epik_Ionization_Penalty_Charging>  (78) 
3.74853e-05

>  <r_epik_Ionization_Penalty_Neutral>  (78) 
0

>  <r_epik_State_Penalty>  (78) 
-0

>  <r_epik_Charging_Adjusted_Penalty>  (78) 
3.74853e-05

>  <i_epik_Tot_Q>  (78) 
1

>  <i_epik_Tot_abs_Q>  (78) 
1

>  <s_lp_Force_Field>  (78) 
OPLS3e

>  <r_lp_Energy>  (78) 
47.3169

>  <b_lp_Chiralities_Consistent>  (78) 
1

>  <s_lp_Variant>  (78) 
22:0-1

>  <s_i_glide_gridfile>  (78) 
pfpi4k_grid

>  <i_i_glide_lignum>  (78) 
27

>  <i_i_glide_rotatable_bonds>  (78) 
0

>  <r_i_docking_score>  (78) 
-3.73747

>  <r_i_glide_ligand_efficiency>  (78) 
-0.169885

>  <r_i_glide_ligand_efficiency_sa>  (78) 
-0.476025

>  <r_i_glide_ligand_efficiency_ln>  (78) 
-0.913575

>  <r_i_glide_gscore>  (78) 
-3.73747

>  <r_i_glide_lipo>  (78) 
-0.367476

>  <r_i_glide_hbond>  (78) 
-0.2

>  <r_i_glide_metal>  (78) 
-0

>  <r_i_glide_rewards>  (78) 
-1.37426

>  <r_i_glide_evdw>  (78) 
-17.0839

>  <r_i_glide_ecoul>  (78) 
-5.83287

>  <r_i_glide_erotb>  (78) 
0

>  <r_i_glide_esite>  (78) 
-0.0666137

>  <r_i_glide_emodel>  (78) 
-28.8399

>  <r_i_glide_energy>  (78) 
-22.9168

>  <r_i_glide_einternal>  (78) 
0

>  <r_i_glide_intrahb_reward>  (78) 
-0

>  <i_i_glide_confnum>  (78) 
2

>  <i_i_glide_posenum>  (78) 
9

>  <r_i_glide_eff_state_penalty>  (78) 
0

>  <ligand_id>  (78) 
22

>  <original_smiles>  (78) 
CC12C=CC3C4(C)CNCC4CCC3(C)C1Cc1occc12

>  <smiles>  (78) 
[H]C1=C([H])C2(C([H])([H])[H])c3c(oc([H])c3[H])C([H])([H])C2([H])C2(C([H])([H])[H])C([H])([H])C([H])([H])C3([H])C(C([H])([H])[H])(C12[H])C([H])([H])[N+]([H])([H])C3([H])[H]

$$$$
22:0:1
     RDKit          3D

 50 54  0  0  1  0  0  0  0  0999 V2000
    1.4218   -2.2619    3.3403 C   0  0  0  0  0  0  0  0  0  0  0  0
    2.7937   -2.7263    2.8067 C   0  0  1  0  0  0  0  0  0  0  0  0
    2.6069   -3.9653    1.9477 C   0  0  0  0  0  0  0  0  0  0  0  0
    2.8705   -3.9948    0.6314 C   0  0  0  0  0  0  0  0  0  0  0  0
    3.4671   -2.8038   -0.0994 C   0  0  2  0  0  0  0  0  0  0  0  0
    4.0029   -3.1345   -1.5377 C   0  0  1  0  0  0  0  0  0  0  0  0
    5.0135   -4.2949   -1.5720 C   0  0  0  0  0  0  0  0  0  0  0  0
    2.8398   -3.4281   -2.5064 C   0  0  0  0  0  0  0  0  0  0  0  0
    2.3519   -2.1370   -2.9884 N   0  0  0  0  0  0  0  0  0  0  0  0
    3.4065   -1.1326   -2.8044 C   0  0  0  0  0  0  0  0  0  0  0  0
    4.5976   -1.8900   -2.2190 C   0  0  1  0  0  0  0  0  0  0  0  0
    5.5017   -1.0719   -1.2993 C   0  0  0  0  0  0  0  0  0  0  0  0
    4.8993   -0.7399    0.0762 C   0  0  0  0  0  0  0  0  0  0  0  0
    4.4082   -1.9867    0.8454 C   0  0  2  0  0  0  0  0  0  0  0  0
    5.6425   -2.8241    1.3104 C   0  0  0  0  0  0  0  0  0  0  0  0
    3.5395   -1.5259    2.0775 C   0  0  2  0  0  0  0  0  0  0  0  0
    4.3617   -0.7859    3.1968 C   0  0  0  0  0  0  0  0  0  0  0  0
    4.4763   -1.8700    4.1755 C   0  0  0  0  0  0  0  0  0  0  0  0
    5.3279   -1.9920    5.2161 O   0  0  0  0  0  0  0  0  0  0  0  0
    5.0400   -3.2515    5.6935 C   0  0  0  0  0  0  0  0  0  0  0  0
    4.0403   -3.8713    4.9731 C   0  0  0  0  0  0  0  0  0  0  0  0
    3.6878   -2.9233    3.9823 C   0  0  0  0  0  0  0  0  0  0  0  0
    0.9501   -3.0298    3.9559 H   0  0  0  0  0  0  0  0  0  0  0  0
    0.7404   -2.0137    2.5272 H   0  0  0  0  0  0  0  0  0  0  0  0
    1.5185   -1.3715    3.9634 H   0  0  0  0  0  0  0  0  0  0  0  0
    2.1749   -4.8242    2.4382 H   0  0  0  0  0  0  0  0  0  0  0  0
    2.6561   -4.8805    0.0506 H   0  0  0  0  0  0  0  0  0  0  0  0
    2.6157   -2.1505   -0.2638 H   0  0  0  0  0  0  0  0  0  0  0  0
    5.1249   -4.6618   -2.5935 H   0  0  0  0  0  0  0  0  0  0  0  0
    4.6804   -5.1451   -0.9798 H   0  0  0  0  0  0  0  0  0  0  0  0
    6.0160   -4.0204   -1.2455 H   0  0  0  0  0  0  0  0  0  0  0  0
    3.1933   -3.9268   -3.4090 H   0  0  0  0  0  0  0  0  0  0  0  0
    2.0241   -4.0125   -2.0731 H   0  0  0  0  0  0  0  0  0  0  0  0
    2.0491   -2.1904   -3.9523 H   0  0  0  0  0  0  0  0  0  0  0  0
    3.6425   -0.6053   -3.7315 H   0  0  0  0  0  0  0  0  0  0  0  0
    3.0195   -0.4089   -2.0993 H   0  0  0  0  0  0  0  0  0  0  0  0
    5.1924   -2.2128   -3.0774 H   0  0  0  0  0  0  0  0  0  0  0  0
    6.4375   -1.6127   -1.1658 H   0  0  0  0  0  0  0  0  0  0  0  0
    5.7657   -0.1636   -1.8293 H   0  0  0  0  0  0  0  0  0  0  0  0
    5.6476   -0.2017    0.6562 H   0  0  0  0  0  0  0  0  0  0  0  0
    4.0746   -0.0425   -0.0580 H   0  0  0  0  0  0  0  0  0  0  0  0
    6.2109   -2.3275    2.0961 H   0  0  0  0  0  0  0  0  0  0  0  0
    6.3642   -2.9936    0.5198 H   0  0  0  0  0  0  0  0  0  0  0  0
    5.3617   -3.8065    1.6910 H   0  0  0  0  0  0  0  0  0  0  0  0
    2.7900   -0.8377    1.6851 H   0  0  0  0  0  0  0  0  0  0  0  0
    5.3184   -0.3600    2.9005 H   0  0  0  0  0  0  0  0  0  0  0  0
    3.7508    0.0082    3.6291 H   0  0  0  0  0  0  0  0  0  0  0  0
    5.6456   -3.5611    6.5288 H   0  0  0  0  0  0  0  0  0  0  0  0
    3.6557   -4.8673    5.1423 H   0  0  0  0  0  0  0  0  0  0  0  0
    1.5828   -1.8495   -2.3868 H   0  0  0  0  0  0  0  0  0  0  0  0
  2  1  1  1
  1 23  1  0
  1 24  1  0
  1 25  1  0
  2 16  1  0
  2 22  1  0
  2  3  1  0
  3  4  2  0
  3 26  1  0
  4  5  1  0
  4 27  1  0
  5 14  1  0
  5  6  1  0
  5 28  1  6
  6 11  1  0
  6  7  1  1
  6  8  1  0
  7 29  1  0
  7 30  1  0
  7 31  1  0
  8  9  1  0
  8 32  1  0
  8 33  1  0
  9 10  1  0
  9 34  1  0
  9 50  1  0
 10 11  1  0
 10 35  1  0
 10 36  1  0
 11 12  1  0
 11 37  1  6
 12 13  1  0
 12 38  1  0
 12 39  1  0
 13 14  1  0
 13 40  1  0
 13 41  1  0
 14 15  1  1
 14 16  1  0
 15 42  1  0
 15 43  1  0
 15 44  1  0
 16 17  1  0
 16 45  1  6
 17 18  1  0
 17 46  1  0
 17 47  1  0
 18 22  2  0
 18 19  1  0
 19 20  1  0
 20 21  2  0
 20 48  1  0
 21 22  1  0
 21 49  1  0
M  CHG  1   9   1
M  END
>  <i_m_ct_stereo_status>  (79) 
1

>  <s_m_source_file>  (79) 
/var/tmp/pbs.5076255.sched01/tmp361wbqj1/0nt8_y6ui.sdf

>  <i_m_source_file_index>  (79) 
27

>  <i_lp_mmshare_version>  (79) 
48012

>  <i_f3d_flags>  (79) 
0

>  <s_epik_input>  (79) 
bzFbY0hdW2NIXWMyYzFbQ0gyXVtDQEhdKFtDQF0yM1tDSDNdKVtDQEBdNChbQ0gzXSlbQ0BIXShbQ0hdPVtDSF0zKVtDQF01KFtDSDNdKVtDQEhdKFtDSDJdW0NIMl00KVtDSDJdW05IXVtDSDJdNQ==

>  <s_epik_cmdline>  (79) 
J2VwaWtfcHl0aG9uJywgJy1waHQnLCAnMi4wJywgJy1waCcsICc3LjAnLCAnLXRuJywgJzgnLCAnLW1hJywgJzIwMCcsICctaW1hZScsICc8aW5maWxlLm1hZT4nLCAnLW9tYWUnLCAnPG91dGZpbGUubWFlPic=

>  <r_lp_tautomer_probability>  (79) 
1

>  <r_epik_Ionization_Penalty>  (79) 
3.74853e-05

>  <r_epik_Ionization_Penalty_Charging>  (79) 
3.74853e-05

>  <r_epik_Ionization_Penalty_Neutral>  (79) 
0

>  <r_epik_State_Penalty>  (79) 
-0

>  <r_epik_Charging_Adjusted_Penalty>  (79) 
3.74853e-05

>  <i_epik_Tot_Q>  (79) 
1

>  <i_epik_Tot_abs_Q>  (79) 
1

>  <s_lp_Force_Field>  (79) 
OPLS3e

>  <r_lp_Energy>  (79) 
47.3169

>  <b_lp_Chiralities_Consistent>  (79) 
1

>  <s_lp_Variant>  (79) 
22:0-1

>  <s_i_glide_gridfile>  (79) 
pfpi4k_grid

>  <i_i_glide_lignum>  (79) 
27

>  <i_i_glide_rotatable_bonds>  (79) 
0

>  <r_i_docking_score>  (79) 
-3.52928

>  <r_i_glide_ligand_efficiency>  (79) 
-0.160422

>  <r_i_glide_ligand_efficiency_sa>  (79) 
-0.449509

>  <r_i_glide_ligand_efficiency_ln>  (79) 
-0.862685

>  <r_i_glide_gscore>  (79) 
-3.52928

>  <r_i_glide_lipo>  (79) 
-0.237927

>  <r_i_glide_hbond>  (79) 
-0.2

>  <r_i_glide_metal>  (79) 
-0

>  <r_i_glide_rewards>  (79) 
-1.37426

>  <r_i_glide_evdw>  (79) 
-17.9902

>  <r_i_glide_ecoul>  (79) 
-5.34269

>  <r_i_glide_erotb>  (79) 
0

>  <r_i_glide_esite>  (79) 
-0.0161854

>  <r_i_glide_emodel>  (79) 
-28.9015

>  <r_i_glide_energy>  (79) 
-23.3329

>  <r_i_glide_einternal>  (79) 
0

>  <r_i_glide_intrahb_reward>  (79) 
-0

>  <i_i_glide_confnum>  (79) 
1

>  <i_i_glide_posenum>  (79) 
1

>  <r_i_glide_eff_state_penalty>  (79) 
0

>  <ligand_id>  (79) 
22

>  <original_smiles>  (79) 
CC12C=CC3C4(C)CNCC4CCC3(C)C1Cc1occc12

>  <smiles>  (79) 
[H]C1=C([H])C2(C([H])([H])[H])c3c(oc([H])c3[H])C([H])([H])C2([H])C2(C([H])([H])[H])C([H])([H])C([H])([H])C3([H])C(C([H])([H])[H])(C12[H])C([H])([H])[N+]([H])([H])C3([H])[H]

$$$$
22:0:2
     RDKit          3D

 50 54  0  0  1  0  0  0  0  0999 V2000
    1.8776   -3.8178   -1.9204 C   0  0  0  0  0  0  0  0  0  0  0  0
    3.0778   -3.0725   -1.3133 C   0  0  1  0  0  0  0  0  0  0  0  0
    2.7112   -2.6433    0.0834 C   0  0  0  0  0  0  0  0  0  0  0  0
    3.3128   -2.9918    1.2006 C   0  0  0  0  0  0  0  0  0  0  0  0
    4.5017   -3.8870    1.1755 C   0  0  2  0  0  0  0  0  0  0  0  0
    5.2363   -3.9482    2.5442 C   0  0  1  0  0  0  0  0  0  0  0  0
    5.6015   -2.5411    3.0679 C   0  0  0  0  0  0  0  0  0  0  0  0
    4.3887   -4.6941    3.5909 C   0  0  0  0  0  0  0  0  0  0  0  0
    4.5908   -6.1420    3.3615 N   0  0  0  0  0  0  0  0  0  0  0  0
    5.8392   -6.3265    2.5954 C   0  0  0  0  0  0  0  0  0  0  0  0
    6.4348   -4.9228    2.4533 C   0  0  1  0  0  0  0  0  0  0  0  0
    7.3105   -4.6989    1.2196 C   0  0  0  0  0  0  0  0  0  0  0  0
    6.5015   -4.6069   -0.0659 C   0  0  0  0  0  0  0  0  0  0  0  0
    5.3513   -3.6084   -0.0962 C   0  0  2  0  0  0  0  0  0  0  0  0
    5.9593   -2.1754   -0.1772 C   0  0  0  0  0  0  0  0  0  0  0  0
    4.4301   -3.9013   -1.3458 C   0  0  2  0  0  0  0  0  0  0  0  0
    5.0821   -3.6389   -2.7593 C   0  0  0  0  0  0  0  0  0  0  0  0
    4.4266   -2.3474   -3.0597 C   0  0  0  0  0  0  0  0  0  0  0  0
    4.7246   -1.4516   -4.0308 O   0  0  0  0  0  0  0  0  0  0  0  0
    3.9085   -0.3880   -3.7327 C   0  0  0  0  0  0  0  0  0  0  0  0
    3.0253   -0.6812   -2.7312 C   0  0  0  0  0  0  0  0  0  0  0  0
    3.4375   -2.0032   -2.3060 C   0  0  0  0  0  0  0  0  0  0  0  0
    0.9977   -3.1856   -2.0398 H   0  0  0  0  0  0  0  0  0  0  0  0
    1.6060   -4.6781   -1.3159 H   0  0  0  0  0  0  0  0  0  0  0  0
    2.1060   -4.1820   -2.9265 H   0  0  0  0  0  0  0  0  0  0  0  0
    1.8632   -2.0439    0.2733 H   0  0  0  0  0  0  0  0  0  0  0  0
    2.9246   -2.6077    2.1311 H   0  0  0  0  0  0  0  0  0  0  0  0
    4.0548   -4.8701    1.0274 H   0  0  0  0  0  0  0  0  0  0  0  0
    5.8493   -2.6015    4.1259 H   0  0  0  0  0  0  0  0  0  0  0  0
    4.8248   -1.7875    2.9929 H   0  0  0  0  0  0  0  0  0  0  0  0
    6.4822   -2.1352    2.5734 H   0  0  0  0  0  0  0  0  0  0  0  0
    4.7680   -4.4780    4.5913 H   0  0  0  0  0  0  0  0  0  0  0  0
    3.3345   -4.4218    3.5781 H   0  0  0  0  0  0  0  0  0  0  0  0
    4.6399   -6.6309    4.2451 H   0  0  0  0  0  0  0  0  0  0  0  0
    6.5404   -6.9628    3.1354 H   0  0  0  0  0  0  0  0  0  0  0  0
    5.6156   -6.8055    1.6332 H   0  0  0  0  0  0  0  0  0  0  0  0
    7.0616   -4.8456    3.2992 H   0  0  0  0  0  0  0  0  0  0  0  0
    7.8894   -3.7837    1.3186 H   0  0  0  0  0  0  0  0  0  0  0  0
    8.0546   -5.4912    1.1258 H   0  0  0  0  0  0  0  0  0  0  0  0
    7.1970   -4.2076   -0.8108 H   0  0  0  0  0  0  0  0  0  0  0  0
    6.1422   -5.6010   -0.3200 H   0  0  0  0  0  0  0  0  0  0  0  0
    6.4130   -1.9791   -1.1481 H   0  0  0  0  0  0  0  0  0  0  0  0
    6.7666   -2.0266    0.5299 H   0  0  0  0  0  0  0  0  0  0  0  0
    5.2219   -1.3964   -0.0027 H   0  0  0  0  0  0  0  0  0  0  0  0
    4.2026   -4.9608   -1.2676 H   0  0  0  0  0  0  0  0  0  0  0  0
    6.1643   -3.6348   -2.7845 H   0  0  0  0  0  0  0  0  0  0  0  0
    4.7174   -4.3721   -3.4771 H   0  0  0  0  0  0  0  0  0  0  0  0
    4.0833    0.4962   -4.3304 H   0  0  0  0  0  0  0  0  0  0  0  0
    2.2233   -0.1029   -2.3675 H   0  0  0  0  0  0  0  0  0  0  0  0
    3.8327   -6.4940    2.7977 H   0  0  0  0  0  0  0  0  0  0  0  0
  2  1  1  6
  1 23  1  0
  1 24  1  0
  1 25  1  0
  2 16  1  0
  2 22  1  0
  2  3  1  0
  3  4  2  0
  3 26  1  0
  4  5  1  0
  4 27  1  0
  5 14  1  0
  5  6  1  0
  5 28  1  6
  6 11  1  0
  6  7  1  1
  6  8  1  0
  7 29  1  0
  7 30  1  0
  7 31  1  0
  8  9  1  0
  8 32  1  0
  8 33  1  0
  9 10  1  0
  9 34  1  0
  9 50  1  0
 10 11  1  0
 10 35  1  0
 10 36  1  0
 11 12  1  0
 11 37  1  1
 12 13  1  0
 12 38  1  0
 12 39  1  0
 13 14  1  0
 13 40  1  0
 13 41  1  0
 14 15  1  1
 14 16  1  0
 15 42  1  0
 15 43  1  0
 15 44  1  0
 16 17  1  0
 16 45  1  6
 17 18  1  0
 17 46  1  0
 17 47  1  0
 18 22  2  0
 18 19  1  0
 19 20  1  0
 20 21  2  0
 20 48  1  0
 21 22  1  0
 21 49  1  0
M  CHG  1   9   1
M  END
>  <i_m_ct_stereo_status>  (80) 
1

>  <s_m_source_file>  (80) 
/var/tmp/pbs.5076255.sched01/tmp361wbqj1/0nt8_y6ui.sdf

>  <i_m_source_file_index>  (80) 
27

>  <i_lp_mmshare_version>  (80) 
48012

>  <i_f3d_flags>  (80) 
0

>  <s_epik_input>  (80) 
bzFbY0hdW2NIXWMyYzFbQ0gyXVtDQEhdKFtDQF0yM1tDSDNdKVtDQEBdNChbQ0gzXSlbQ0BIXShbQ0hdPVtDSF0zKVtDQF01KFtDSDNdKVtDQEhdKFtDSDJdW0NIMl00KVtDSDJdW05IXVtDSDJdNQ==

>  <s_epik_cmdline>  (80) 
J2VwaWtfcHl0aG9uJywgJy1waHQnLCAnMi4wJywgJy1waCcsICc3LjAnLCAnLXRuJywgJzgnLCAnLW1hJywgJzIwMCcsICctaW1hZScsICc8aW5maWxlLm1hZT4nLCAnLW9tYWUnLCAnPG91dGZpbGUubWFlPic=

>  <r_lp_tautomer_probability>  (80) 
1

>  <r_epik_Ionization_Penalty>  (80) 
3.74853e-05

>  <r_epik_Ionization_Penalty_Charging>  (80) 
3.74853e-05

>  <r_epik_Ionization_Penalty_Neutral>  (80) 
0

>  <r_epik_State_Penalty>  (80) 
-0

>  <r_epik_Charging_Adjusted_Penalty>  (80) 
3.74853e-05

>  <i_epik_Tot_Q>  (80) 
1

>  <i_epik_Tot_abs_Q>  (80) 
1

>  <s_lp_Force_Field>  (80) 
OPLS3e

>  <r_lp_Energy>  (80) 
47.3169

>  <b_lp_Chiralities_Consistent>  (80) 
1

>  <s_lp_Variant>  (80) 
22:0-1

>  <s_i_glide_gridfile>  (80) 
pfpi4k_grid

>  <i_i_glide_lignum>  (80) 
27

>  <i_i_glide_rotatable_bonds>  (80) 
0

>  <r_i_docking_score>  (80) 
-2.67925

>  <r_i_glide_ligand_efficiency>  (80) 
-0.121784

>  <r_i_glide_ligand_efficiency_sa>  (80) 
-0.341243

>  <r_i_glide_ligand_efficiency_ln>  (80) 
-0.654905

>  <r_i_glide_gscore>  (80) 
-2.67925

>  <r_i_glide_lipo>  (80) 
-0.872665

>  <r_i_glide_hbond>  (80) 
-0.0470382

>  <r_i_glide_metal>  (80) 
-0

>  <r_i_glide_rewards>  (80) 
-1.37426

>  <r_i_glide_evdw>  (80) 
3.37815

>  <r_i_glide_ecoul>  (80) 
-3.69462

>  <r_i_glide_erotb>  (80) 
0

>  <r_i_glide_esite>  (80) 
0

>  <r_i_glide_emodel>  (80) 
-3.66826

>  <r_i_glide_energy>  (80) 
-0.316471

>  <r_i_glide_einternal>  (80) 
0

>  <r_i_glide_intrahb_reward>  (80) 
-0

>  <i_i_glide_confnum>  (80) 
1

>  <i_i_glide_posenum>  (80) 
31

>  <r_i_glide_eff_state_penalty>  (80) 
0

>  <ligand_id>  (80) 
22

>  <original_smiles>  (80) 
CC12C=CC3C4(C)CNCC4CCC3(C)C1Cc1occc12

>  <smiles>  (80) 
[H]C1=C([H])C2(C([H])([H])[H])c3c(oc([H])c3[H])C([H])([H])C2([H])C2(C([H])([H])[H])C([H])([H])C([H])([H])C3([H])C(C([H])([H])[H])(C12[H])C([H])([H])[N+]([H])([H])C3([H])[H]

$$$$
23:0:0
     RDKit          3D

 82 86  0  0  1  0  0  0  0  0999 V2000
    3.0393   -1.7916   -3.1363 C   0  0  0  0  0  0  0  0  0  0  0  0
    4.0671   -2.4139   -2.1714 C   0  0  0  0  0  0  0  0  0  0  0  0
    4.9444   -3.3927   -2.9981 C   0  0  0  0  0  0  0  0  0  0  0  0
    4.9148   -1.2892   -1.5468 C   0  0  0  0  0  0  0  0  0  0  0  0
    5.8528   -1.8050   -0.4416 C   0  0  1  0  0  0  0  0  0  0  0  0
    6.5501   -0.6991    0.0925 O   0  0  0  0  0  0  0  0  0  0  0  0
    5.1487   -2.6226    0.6859 C   0  0  2  0  0  0  0  0  0  0  0  0
    4.2703   -1.6696    1.5469 C   0  0  0  0  0  0  0  0  0  0  0  0
    6.2568   -3.3062    1.5408 C   0  0  0  0  0  0  0  0  0  0  0  0
    6.0552   -4.8086    1.8751 C   0  0  0  0  0  0  0  0  0  0  0  0
    4.5886   -5.2152    2.2171 C   0  0  1  0  0  0  0  0  0  0  0  0
    4.2080   -4.4387    3.5137 C   0  0  0  0  0  0  0  0  0  0  0  0
    3.6723   -4.7468    1.0537 C   0  0  0  0  0  0  0  0  0  0  0  0
    2.4927   -5.3712    0.8246 C   0  0  0  0  0  0  0  0  0  0  0  0
    1.9571   -6.5725    1.5905 C   0  0  0  0  0  0  0  0  0  0  0  0
    2.8793   -7.0598    2.7258 C   0  0  1  0  0  0  0  0  0  0  0  0
    2.5103   -8.4258    3.4168 C   0  0  2  0  0  0  0  0  0  0  0  0
    2.9774   -9.6638    2.6065 C   0  0  0  0  0  0  0  0  0  0  0  0
    0.9719   -8.5787    3.5454 C   0  0  0  0  0  0  0  0  0  0  0  0
    0.5434   -9.5193    4.6784 C   0  0  0  0  0  0  0  0  0  0  0  0
    0.9090   -8.9487    6.0414 C   0  0  0  0  0  0  0  0  0  0  0  0
    0.2081   -9.0600    7.0972 N   0  0  0  0  0  0  0  0  0  0  0  0
   -0.9614   -9.8544    6.8880 O   0  0  0  0  0  0  0  0  0  0  0  0
    2.2254   -8.1337    6.0783 C   0  0  0  0  0  0  0  0  0  0  0  0
    1.8349   -6.6305    6.1629 C   0  0  0  0  0  0  0  0  0  0  0  0
    2.9887   -8.5002    7.3822 C   0  0  0  0  0  0  0  0  0  0  0  0
    3.1659   -8.4639    4.8458 C   0  0  2  0  0  0  0  0  0  0  0  0
    4.5257   -7.7011    4.9038 C   0  0  0  0  0  0  0  0  0  0  0  0
    5.2432   -7.4526    3.5587 C   0  0  0  0  0  0  0  0  0  0  0  0
    4.3978   -6.8001    2.4137 C   0  0  2  0  0  0  0  0  0  0  0  0
    4.8725   -7.5069    1.1006 C   0  0  0  0  0  0  0  0  0  0  0  0
    4.2742   -3.7348    0.0417 C   0  0  1  0  0  0  0  0  0  0  0  0
    3.3150   -3.1495   -1.0332 C   0  0  0  0  0  0  0  0  0  0  0  0
    3.5242   -1.2433   -3.9470 H   0  0  0  0  0  0  0  0  0  0  0  0
    2.3916   -1.0891   -2.6099 H   0  0  0  0  0  0  0  0  0  0  0  0
    2.4004   -2.5555   -3.5869 H   0  0  0  0  0  0  0  0  0  0  0  0
    5.7839   -3.7986   -2.4307 H   0  0  0  0  0  0  0  0  0  0  0  0
    5.3691   -2.9036   -3.8759 H   0  0  0  0  0  0  0  0  0  0  0  0
    4.3524   -4.2429   -3.3461 H   0  0  0  0  0  0  0  0  0  0  0  0
    5.4998   -0.7933   -2.3186 H   0  0  0  0  0  0  0  0  0  0  0  0
    4.2538   -0.5189   -1.1515 H   0  0  0  0  0  0  0  0  0  0  0  0
    6.6028   -2.4369   -0.9157 H   0  0  0  0  0  0  0  0  0  0  0  0
    5.9245   -0.1073    0.4812 H   0  0  0  0  0  0  0  0  0  0  0  0
    3.5164   -2.1998    2.1230 H   0  0  0  0  0  0  0  0  0  0  0  0
    3.7128   -0.9563    0.9451 H   0  0  0  0  0  0  0  0  0  0  0  0
    4.8639   -1.0837    2.2488 H   0  0  0  0  0  0  0  0  0  0  0  0
    7.2234   -3.2314    1.0389 H   0  0  0  0  0  0  0  0  0  0  0  0
    6.3968   -2.7363    2.4558 H   0  0  0  0  0  0  0  0  0  0  0  0
    6.4057   -5.3644    1.0055 H   0  0  0  0  0  0  0  0  0  0  0  0
    6.7305   -5.0711    2.6883 H   0  0  0  0  0  0  0  0  0  0  0  0
    4.6034   -4.9096    4.4054 H   0  0  0  0  0  0  0  0  0  0  0  0
    3.1316   -4.3270    3.6322 H   0  0  0  0  0  0  0  0  0  0  0  0
    4.6053   -3.4302    3.5471 H   0  0  0  0  0  0  0  0  0  0  0  0
    1.8817   -5.0940   -0.0148 H   0  0  0  0  0  0  0  0  0  0  0  0
    0.9810   -6.2902    1.9831 H   0  0  0  0  0  0  0  0  0  0  0  0
    1.7944   -7.3780    0.8782 H   0  0  0  0  0  0  0  0  0  0  0  0
    2.6251   -6.3719    3.5209 H   0  0  0  0  0  0  0  0  0  0  0  0
    2.5297  -10.5911    2.9669 H   0  0  0  0  0  0  0  0  0  0  0  0
    4.0474   -9.8334    2.6847 H   0  0  0  0  0  0  0  0  0  0  0  0
    2.7189   -9.5839    1.5508 H   0  0  0  0  0  0  0  0  0  0  0  0
    0.4833   -7.6181    3.7090 H   0  0  0  0  0  0  0  0  0  0  0  0
    0.5549   -8.9538    2.6084 H   0  0  0  0  0  0  0  0  0  0  0  0
   -0.5336   -9.6400    4.5917 H   0  0  0  0  0  0  0  0  0  0  0  0
    0.9749  -10.5138    4.5788 H   0  0  0  0  0  0  0  0  0  0  0  0
   -0.8905  -10.1897    6.0016 H   0  0  0  0  0  0  0  0  0  0  0  0
    2.6862   -5.9586    6.2612 H   0  0  0  0  0  0  0  0  0  0  0  0
    1.2111   -6.4410    7.0371 H   0  0  0  0  0  0  0  0  0  0  0  0
    1.2587   -6.2973    5.2995 H   0  0  0  0  0  0  0  0  0  0  0  0
    3.9168   -7.9378    7.4980 H   0  0  0  0  0  0  0  0  0  0  0  0
    3.2365   -9.5658    7.3998 H   0  0  0  0  0  0  0  0  0  0  0  0
    2.3966   -8.2938    8.2758 H   0  0  0  0  0  0  0  0  0  0  0  0
    3.4379   -9.5086    5.0013 H   0  0  0  0  0  0  0  0  0  0  0  0
    4.4315   -6.7621    5.4274 H   0  0  0  0  0  0  0  0  0  0  0  0
    5.2072   -8.2706    5.5384 H   0  0  0  0  0  0  0  0  0  0  0  0
    6.1440   -6.8786    3.7583 H   0  0  0  0  0  0  0  0  0  0  0  0
    5.6332   -8.4159    3.2361 H   0  0  0  0  0  0  0  0  0  0  0  0
    4.6933   -8.5747    1.0847 H   0  0  0  0  0  0  0  0  0  0  0  0
    5.9513   -7.4188    0.9767 H   0  0  0  0  0  0  0  0  0  0  0  0
    4.4107   -7.1103    0.1980 H   0  0  0  0  0  0  0  0  0  0  0  0
    4.9590   -4.3798   -0.5054 H   0  0  0  0  0  0  0  0  0  0  0  0
    2.6172   -2.4621   -0.5508 H   0  0  0  0  0  0  0  0  0  0  0  0
    2.7090   -3.9222   -1.5026 H   0  0  0  0  0  0  0  0  0  0  0  0
  1  2  1  0
  1 34  1  0
  1 35  1  0
  1 36  1  0
  2 33  1  0
  2  3  1  0
  2  4  1  0
  3 37  1  0
  3 38  1  0
  3 39  1  0
  4  5  1  0
  4 40  1  0
  4 41  1  0
  5  6  1  0
  5  7  1  0
  5 42  1  6
  6 43  1  0
  7 32  1  0
  7  8  1  1
  7  9  1  0
  8 44  1  0
  8 45  1  0
  8 46  1  0
  9 10  1  0
  9 47  1  0
  9 48  1  0
 10 11  1  0
 10 49  1  0
 10 50  1  0
 11 30  1  0
 11 12  1  1
 11 13  1  0
 12 51  1  0
 12 52  1  0
 12 53  1  0
 13 14  2  0
 13 32  1  0
 14 15  1  0
 14 54  1  0
 15 16  1  0
 15 55  1  0
 15 56  1  0
 16 30  1  0
 16 17  1  0
 16 57  1  1
 17 27  1  0
 17 18  1  6
 17 19  1  0
 18 58  1  0
 18 59  1  0
 18 60  1  0
 19 20  1  0
 19 61  1  0
 19 62  1  0
 20 21  1  0
 20 63  1  0
 20 64  1  0
 21 22  2  3
 21 24  1  0
 22 23  1  0
 23 65  1  0
 24 25  1  0
 24 26  1  0
 24 27  1  0
 25 66  1  0
 25 67  1  0
 25 68  1  0
 26 69  1  0
 26 70  1  0
 26 71  1  0
 27 28  1  0
 27 72  1  1
 28 29  1  0
 28 73  1  0
 28 74  1  0
 29 30  1  0
 29 75  1  0
 29 76  1  0
 30 31  1  6
 31 77  1  0
 31 78  1  0
 31 79  1  0
 32 33  1  0
 32 80  1  6
 33 81  1  0
 33 82  1  0
M  END
>  <i_m_ct_stereo_status>  (81) 
1

>  <s_m_source_file>  (81) 
/var/tmp/pbs.5076255.sched01/tmp361wbqj1/0nt8_y6ui.sdf

>  <i_m_source_file_index>  (81) 
28

>  <i_lp_mmshare_version>  (81) 
48012

>  <i_f3d_flags>  (81) 
0

>  <s_epik_input>  (81) 
W09IXVtDQEBIXTFbQ0gyXUMoW0NIM10pKFtDSDNdKVtDSDJdW0NAQEhdKFtDQF0xMltDSDNdKUM9M1tDQF0oW0NIM10pKFtDSDJdW0NIMl0yKVtDQF00KFtDSDNdKVtDQEBIXShbQ0gyXVtDSF0zKVtDQEBdNShbQ0gzXSlbQ0BASF0oW0NIMl1bQ0gyXTQpQyhbQ0gzXSkoW0NIM10pQyhcW0NIMl1bQ0gyXTUpPU5cW09IXQ==

>  <s_epik_cmdline>  (81) 
J2VwaWtfcHl0aG9uJywgJy1waHQnLCAnMi4wJywgJy1waCcsICc3LjAnLCAnLXRuJywgJzgnLCAnLW1hJywgJzIwMCcsICctaW1hZScsICc8aW5maWxlLm1hZT4nLCAnLW9tYWUnLCAnPG91dGZpbGUubWFlPic=

>  <r_lp_tautomer_probability>  (81) 
1

>  <r_epik_Ionization_Penalty>  (81) 
2.31825e-06

>  <r_epik_Ionization_Penalty_Charging>  (81) 
0

>  <r_epik_Ionization_Penalty_Neutral>  (81) 
2.31825e-06

>  <r_epik_State_Penalty>  (81) 
-0

>  <r_epik_Charging_Adjusted_Penalty>  (81) 
0

>  <i_epik_Tot_Q>  (81) 
0

>  <i_epik_Tot_abs_Q>  (81) 
0

>  <s_epik_Chemistry_Notes>  (81) 
This compound has an imine and may undergo hydrolysis.

>  <s_lp_Force_Field>  (81) 
OPLS3e

>  <r_lp_Energy>  (81) 
101.886

>  <b_lp_Chiralities_Consistent>  (81) 
1

>  <s_lp_Variant>  (81) 
23:0-1

>  <s_i_glide_gridfile>  (81) 
pfpi4k_grid

>  <i_i_glide_lignum>  (81) 
28

>  <i_i_glide_rotatable_bonds>  (81) 
2

>  <r_i_docking_score>  (81) 
-3.39605

>  <r_i_glide_ligand_efficiency>  (81) 
-0.102911

>  <r_i_glide_ligand_efficiency_sa>  (81) 
-0.330089

>  <r_i_glide_ligand_efficiency_ln>  (81) 
-0.755264

>  <r_i_glide_gscore>  (81) 
-3.39605

>  <r_i_glide_lipo>  (81) 
-0.510971

>  <r_i_glide_hbond>  (81) 
-0.107075

>  <r_i_glide_metal>  (81) 
-0

>  <r_i_glide_rewards>  (81) 
-0.301939

>  <r_i_glide_evdw>  (81) 
-31.7846

>  <r_i_glide_ecoul>  (81) 
-5.41573

>  <r_i_glide_erotb>  (81) 
0.096743

>  <r_i_glide_esite>  (81) 
-0.171218

>  <r_i_glide_emodel>  (81) 
-45.3279

>  <r_i_glide_energy>  (81) 
-37.2003

>  <r_i_glide_einternal>  (81) 
0.0130283

>  <r_i_glide_intrahb_reward>  (81) 
-0

>  <i_i_glide_confnum>  (81) 
2

>  <i_i_glide_posenum>  (81) 
16

>  <r_i_glide_eff_state_penalty>  (81) 
0

>  <ligand_id>  (81) 
23

>  <original_smiles>  (81) 
CC1(C)CC(O)C2(C)CCC3(C)C(=CCC4C5(C)CCC(=NO)C(C)(C)C5CCC43C)C2C1

>  <smiles>  (81) 
[H]ON=C1C([H])([H])C([H])([H])C2(C([H])([H])[H])C([H])(C([H])([H])C([H])([H])C3(C([H])([H])[H])C2([H])C([H])([H])C([H])=C2C4([H])C([H])([H])C(C([H])([H])[H])(C([H])([H])[H])C([H])([H])C([H])(O[H])C4(C([H])([H])[H])C([H])([H])C([H])([H])C23C([H])([H])[H])C1(C([H])([H])[H])C([H])([H])[H]

$$$$
23:0:1
     RDKit          3D

 82 86  0  0  1  0  0  0  0  0999 V2000
    3.0272   -1.7546   -3.1206 C   0  0  0  0  0  0  0  0  0  0  0  0
    4.0568   -2.3918   -2.1696 C   0  0  0  0  0  0  0  0  0  0  0  0
    4.9260   -3.3722   -3.0000 C   0  0  0  0  0  0  0  0  0  0  0  0
    4.9170   -1.2774   -1.5438 C   0  0  0  0  0  0  0  0  0  0  0  0
    5.8540   -1.7997   -0.4375 C   0  0  1  0  0  0  0  0  0  0  0  0
    6.5276   -0.6852    0.1088 O   0  0  0  0  0  0  0  0  0  0  0  0
    5.1508   -2.6214    0.6868 C   0  0  2  0  0  0  0  0  0  0  0  0
    4.2810   -1.6676    1.5578 C   0  0  0  0  0  0  0  0  0  0  0  0
    6.2605   -3.3129    1.5360 C   0  0  0  0  0  0  0  0  0  0  0  0
    6.0527   -4.8183    1.8575 C   0  0  0  0  0  0  0  0  0  0  0  0
    4.5863   -5.2185    2.2051 C   0  0  1  0  0  0  0  0  0  0  0  0
    4.2128   -4.4461    3.5056 C   0  0  0  0  0  0  0  0  0  0  0  0
    3.6661   -4.7410    1.0485 C   0  0  0  0  0  0  0  0  0  0  0  0
    2.4808   -5.3547    0.8224 C   0  0  0  0  0  0  0  0  0  0  0  0
    1.9419   -6.5574    1.5858 C   0  0  0  0  0  0  0  0  0  0  0  0
    2.8699   -7.0553    2.7142 C   0  0  1  0  0  0  0  0  0  0  0  0
    2.4953   -8.4248    3.3989 C   0  0  2  0  0  0  0  0  0  0  0  0
    2.9521   -9.6599    2.5773 C   0  0  0  0  0  0  0  0  0  0  0  0
    0.9564   -8.5691    3.5301 C   0  0  0  0  0  0  0  0  0  0  0  0
    0.5275   -9.5145    4.6599 C   0  0  0  0  0  0  0  0  0  0  0  0
    0.9043   -8.9527    6.0247 C   0  0  0  0  0  0  0  0  0  0  0  0
    0.2082   -9.0653    7.0844 N   0  0  0  0  0  0  0  0  0  0  0  0
   -0.9665   -9.8480    6.8800 O   0  0  0  0  0  0  0  0  0  0  0  0
    2.2256   -8.1426    6.0617 C   0  0  0  0  0  0  0  0  0  0  0  0
    1.8414   -6.6365    6.1543 C   0  0  0  0  0  0  0  0  0  0  0  0
    2.9914   -8.5231    7.3607 C   0  0  0  0  0  0  0  0  0  0  0  0
    3.1583   -8.4730    4.8231 C   0  0  2  0  0  0  0  0  0  0  0  0
    4.5232   -7.7204    4.8791 C   0  0  0  0  0  0  0  0  0  0  0  0
    5.2361   -7.4659    3.5317 C   0  0  0  0  0  0  0  0  0  0  0  0
    4.3888   -6.8035    2.3934 C   0  0  2  0  0  0  0  0  0  0  0  0
    4.8509   -7.5056    1.0739 C   0  0  0  0  0  0  0  0  0  0  0  0
    4.2677   -3.7245    0.0402 C   0  0  1  0  0  0  0  0  0  0  0  0
    3.3081   -3.1260   -1.0270 C   0  0  0  0  0  0  0  0  0  0  0  0
    3.5108   -1.2039   -3.9299 H   0  0  0  0  0  0  0  0  0  0  0  0
    2.3898   -1.0509   -2.5867 H   0  0  0  0  0  0  0  0  0  0  0  0
    2.3819   -2.5108   -3.5716 H   0  0  0  0  0  0  0  0  0  0  0  0
    5.7709   -3.7794   -2.4410 H   0  0  0  0  0  0  0  0  0  0  0  0
    5.3431   -2.8820   -3.8813 H   0  0  0  0  0  0  0  0  0  0  0  0
    4.3330   -4.2238   -3.3450 H   0  0  0  0  0  0  0  0  0  0  0  0
    5.4974   -0.7765   -2.3179 H   0  0  0  0  0  0  0  0  0  0  0  0
    4.2672   -0.5056   -1.1322 H   0  0  0  0  0  0  0  0  0  0  0  0
    6.6127   -2.4247   -0.9099 H   0  0  0  0  0  0  0  0  0  0  0  0
    6.9534   -0.9381    0.9146 H   0  0  0  0  0  0  0  0  0  0  0  0
    3.5240   -2.1940    2.1312 H   0  0  0  0  0  0  0  0  0  0  0  0
    3.7309   -0.9457    0.9600 H   0  0  0  0  0  0  0  0  0  0  0  0
    4.8783   -1.0865    2.2601 H   0  0  0  0  0  0  0  0  0  0  0  0
    7.2269   -3.2471    1.0284 H   0  0  0  0  0  0  0  0  0  0  0  0
    6.4105   -2.7525    2.4568 H   0  0  0  0  0  0  0  0  0  0  0  0
    6.3952   -5.3660    0.9824 H   0  0  0  0  0  0  0  0  0  0  0  0
    6.7312   -5.0905    2.6659 H   0  0  0  0  0  0  0  0  0  0  0  0
    4.6077   -4.9249    4.3949 H   0  0  0  0  0  0  0  0  0  0  0  0
    3.1358   -4.3296    3.6286 H   0  0  0  0  0  0  0  0  0  0  0  0
    4.6154   -3.4386    3.5437 H   0  0  0  0  0  0  0  0  0  0  0  0
    1.8677   -5.0694   -0.0120 H   0  0  0  0  0  0  0  0  0  0  0  0
    0.9709   -6.2692    1.9869 H   0  0  0  0  0  0  0  0  0  0  0  0
    1.7680   -7.3628    0.8775 H   0  0  0  0  0  0  0  0  0  0  0  0
    2.6228   -6.3710    3.5139 H   0  0  0  0  0  0  0  0  0  0  0  0
    2.5012  -10.5866    2.9339 H   0  0  0  0  0  0  0  0  0  0  0  0
    4.0222   -9.8361    2.6503 H   0  0  0  0  0  0  0  0  0  0  0  0
    2.6908   -9.5730    1.5223 H   0  0  0  0  0  0  0  0  0  0  0  0
    0.4750   -7.6076    3.7051 H   0  0  0  0  0  0  0  0  0  0  0  0
    0.5313   -8.9342    2.5940 H   0  0  0  0  0  0  0  0  0  0  0  0
   -0.5496   -9.6324    4.5786 H   0  0  0  0  0  0  0  0  0  0  0  0
    0.9562  -10.5105    4.5567 H   0  0  0  0  0  0  0  0  0  0  0  0
   -0.8996  -10.1844    5.9921 H   0  0  0  0  0  0  0  0  0  0  0  0
    2.6971   -5.9724    6.2506 H   0  0  0  0  0  0  0  0  0  0  0  0
    1.2236   -6.4475    7.0322 H   0  0  0  0  0  0  0  0  0  0  0  0
    1.2644   -6.2973    5.2959 H   0  0  0  0  0  0  0  0  0  0  0  0
    3.9236   -7.9674    7.4744 H   0  0  0  0  0  0  0  0  0  0  0  0
    3.2332   -9.5910    7.3707 H   0  0  0  0  0  0  0  0  0  0  0  0
    2.4052   -8.3197    8.2609 H   0  0  0  0  0  0  0  0  0  0  0  0
    3.4209   -9.5218    4.9728 H   0  0  0  0  0  0  0  0  0  0  0  0
    4.4354   -6.7795    5.4063 H   0  0  0  0  0  0  0  0  0  0  0  0
    5.2026   -8.2966    5.5075 H   0  0  0  0  0  0  0  0  0  0  0  0
    6.1423   -6.9015    3.7273 H   0  0  0  0  0  0  0  0  0  0  0  0
    5.6160   -8.4326    3.2009 H   0  0  0  0  0  0  0  0  0  0  0  0
    4.6678   -8.5740    1.0539 H   0  0  0  0  0  0  0  0  0  0  0  0
    5.9299   -7.4217    0.9416 H   0  0  0  0  0  0  0  0  0  0  0  0
    4.3850   -7.1044    0.1743 H   0  0  0  0  0  0  0  0  0  0  0  0
    4.9475   -4.3671   -0.5165 H   0  0  0  0  0  0  0  0  0  0  0  0
    2.6166   -2.4351   -0.5393 H   0  0  0  0  0  0  0  0  0  0  0  0
    2.6944   -3.8919   -1.4969 H   0  0  0  0  0  0  0  0  0  0  0  0
  1  2  1  0
  1 34  1  0
  1 35  1  0
  1 36  1  0
  2 33  1  0
  2  3  1  0
  2  4  1  0
  3 37  1  0
  3 38  1  0
  3 39  1  0
  4  5  1  0
  4 40  1  0
  4 41  1  0
  5  6  1  0
  5  7  1  0
  5 42  1  6
  6 43  1  0
  7 32  1  0
  7  8  1  1
  7  9  1  0
  8 44  1  0
  8 45  1  0
  8 46  1  0
  9 10  1  0
  9 47  1  0
  9 48  1  0
 10 11  1  0
 10 49  1  0
 10 50  1  0
 11 30  1  0
 11 12  1  1
 11 13  1  0
 12 51  1  0
 12 52  1  0
 12 53  1  0
 13 14  2  0
 13 32  1  0
 14 15  1  0
 14 54  1  0
 15 16  1  0
 15 55  1  0
 15 56  1  0
 16 30  1  0
 16 17  1  0
 16 57  1  1
 17 27  1  0
 17 18  1  6
 17 19  1  0
 18 58  1  0
 18 59  1  0
 18 60  1  0
 19 20  1  0
 19 61  1  0
 19 62  1  0
 20 21  1  0
 20 63  1  0
 20 64  1  0
 21 22  2  3
 21 24  1  0
 22 23  1  0
 23 65  1  0
 24 25  1  0
 24 26  1  0
 24 27  1  0
 25 66  1  0
 25 67  1  0
 25 68  1  0
 26 69  1  0
 26 70  1  0
 26 71  1  0
 27 28  1  0
 27 72  1  1
 28 29  1  0
 28 73  1  0
 28 74  1  0
 29 30  1  0
 29 75  1  0
 29 76  1  0
 30 31  1  6
 31 77  1  0
 31 78  1  0
 31 79  1  0
 32 33  1  0
 32 80  1  6
 33 81  1  0
 33 82  1  0
M  END
>  <i_m_ct_stereo_status>  (82) 
1

>  <s_m_source_file>  (82) 
/var/tmp/pbs.5076255.sched01/tmp361wbqj1/0nt8_y6ui.sdf

>  <i_m_source_file_index>  (82) 
28

>  <i_lp_mmshare_version>  (82) 
48012

>  <i_f3d_flags>  (82) 
0

>  <s_epik_input>  (82) 
W09IXVtDQEBIXTFbQ0gyXUMoW0NIM10pKFtDSDNdKVtDSDJdW0NAQEhdKFtDQF0xMltDSDNdKUM9M1tDQF0oW0NIM10pKFtDSDJdW0NIMl0yKVtDQF00KFtDSDNdKVtDQEBIXShbQ0gyXVtDSF0zKVtDQEBdNShbQ0gzXSlbQ0BASF0oW0NIMl1bQ0gyXTQpQyhbQ0gzXSkoW0NIM10pQyhcW0NIMl1bQ0gyXTUpPU5cW09IXQ==

>  <s_epik_cmdline>  (82) 
J2VwaWtfcHl0aG9uJywgJy1waHQnLCAnMi4wJywgJy1waCcsICc3LjAnLCAnLXRuJywgJzgnLCAnLW1hJywgJzIwMCcsICctaW1hZScsICc8aW5maWxlLm1hZT4nLCAnLW9tYWUnLCAnPG91dGZpbGUubWFlPic=

>  <r_lp_tautomer_probability>  (82) 
1

>  <r_epik_Ionization_Penalty>  (82) 
2.31825e-06

>  <r_epik_Ionization_Penalty_Charging>  (82) 
0

>  <r_epik_Ionization_Penalty_Neutral>  (82) 
2.31825e-06

>  <r_epik_State_Penalty>  (82) 
-0

>  <r_epik_Charging_Adjusted_Penalty>  (82) 
0

>  <i_epik_Tot_Q>  (82) 
0

>  <i_epik_Tot_abs_Q>  (82) 
0

>  <s_epik_Chemistry_Notes>  (82) 
This compound has an imine and may undergo hydrolysis.

>  <s_lp_Force_Field>  (82) 
OPLS3e

>  <r_lp_Energy>  (82) 
101.886

>  <b_lp_Chiralities_Consistent>  (82) 
1

>  <s_lp_Variant>  (82) 
23:0-1

>  <s_i_glide_gridfile>  (82) 
pfpi4k_grid

>  <i_i_glide_lignum>  (82) 
28

>  <i_i_glide_rotatable_bonds>  (82) 
2

>  <r_i_docking_score>  (82) 
-3.31885

>  <r_i_glide_ligand_efficiency>  (82) 
-0.100571

>  <r_i_glide_ligand_efficiency_sa>  (82) 
-0.322586

>  <r_i_glide_ligand_efficiency_ln>  (82) 
-0.738095

>  <r_i_glide_gscore>  (82) 
-3.31885

>  <r_i_glide_lipo>  (82) 
-0.499197

>  <r_i_glide_hbond>  (82) 
-0.104245

>  <r_i_glide_metal>  (82) 
-0

>  <r_i_glide_rewards>  (82) 
-0.301939

>  <r_i_glide_evdw>  (82) 
-31.894

>  <r_i_glide_ecoul>  (82) 
-4.96164

>  <r_i_glide_erotb>  (82) 
0.096743

>  <r_i_glide_esite>  (82) 
-0.171264

>  <r_i_glide_emodel>  (82) 
-44.365

>  <r_i_glide_energy>  (82) 
-36.8557

>  <r_i_glide_einternal>  (82) 
0.733042

>  <r_i_glide_intrahb_reward>  (82) 
-0

>  <i_i_glide_confnum>  (82) 
4

>  <i_i_glide_posenum>  (82) 
40

>  <r_i_glide_eff_state_penalty>  (82) 
0

>  <ligand_id>  (82) 
23

>  <original_smiles>  (82) 
CC1(C)CC(O)C2(C)CCC3(C)C(=CCC4C5(C)CCC(=NO)C(C)(C)C5CCC43C)C2C1

>  <smiles>  (82) 
[H]ON=C1C([H])([H])C([H])([H])C2(C([H])([H])[H])C([H])(C([H])([H])C([H])([H])C3(C([H])([H])[H])C2([H])C([H])([H])C([H])=C2C4([H])C([H])([H])C(C([H])([H])[H])(C([H])([H])[H])C([H])([H])C([H])(O[H])C4(C([H])([H])[H])C([H])([H])C([H])([H])C23C([H])([H])[H])C1(C([H])([H])[H])C([H])([H])[H]

$$$$
23:0:2
     RDKit          3D

 82 86  0  0  1  0  0  0  0  0999 V2000
    0.9897  -11.5319    3.8524 C   0  0  0  0  0  0  0  0  0  0  0  0
    2.2183  -10.6235    4.0306 C   0  0  0  0  0  0  0  0  0  0  0  0
    2.6648  -10.7256    5.5081 C   0  0  0  0  0  0  0  0  0  0  0  0
    3.3389  -11.0980    3.0850 C   0  0  0  0  0  0  0  0  0  0  0  0
    4.5455  -10.1447    3.0426 C   0  0  1  0  0  0  0  0  0  0  0  0
    5.4572  -10.6545    2.0786 O   0  0  0  0  0  0  0  0  0  0  0  0
    4.1827   -8.6454    2.7679 C   0  0  2  0  0  0  0  0  0  0  0  0
    3.7363   -8.4937    1.2861 C   0  0  0  0  0  0  0  0  0  0  0  0
    5.4429   -7.7749    3.0819 C   0  0  0  0  0  0  0  0  0  0  0  0
    5.2033   -6.4953    3.9346 C   0  0  0  0  0  0  0  0  0  0  0  0
    3.9016   -5.7048    3.5926 C   0  0  1  0  0  0  0  0  0  0  0  0
    4.0559   -5.2156    2.1234 C   0  0  0  0  0  0  0  0  0  0  0  0
    2.7016   -6.6809    3.6771 C   0  0  0  0  0  0  0  0  0  0  0  0
    1.4548   -6.2100    3.9263 C   0  0  0  0  0  0  0  0  0  0  0  0
    1.0905   -4.7567    4.2047 C   0  0  0  0  0  0  0  0  0  0  0  0
    2.2836   -3.7818    4.1432 C   0  0  1  0  0  0  0  0  0  0  0  0
    2.0288   -2.2994    4.6195 C   0  0  2  0  0  0  0  0  0  0  0  0
    2.0739   -2.1481    6.1627 C   0  0  0  0  0  0  0  0  0  0  0  0
    0.6143   -1.8104    4.1951 C   0  0  0  0  0  0  0  0  0  0  0  0
    0.4939   -0.2833    4.0608 C   0  0  0  0  0  0  0  0  0  0  0  0
    1.3638    0.2448    2.9266 C   0  0  0  0  0  0  0  0  0  0  0  0
    1.0750    1.2268    2.1666 N   0  0  0  0  0  0  0  0  0  0  0  0
   -0.1592    1.8438    2.5231 O   0  0  0  0  0  0  0  0  0  0  0  0
    2.6908   -0.5357    2.7154 C   0  0  0  0  0  0  0  0  0  0  0  0
    2.5314   -1.4080    1.4480 C   0  0  0  0  0  0  0  0  0  0  0  0
    3.7990    0.4980    2.4221 C   0  0  0  0  0  0  0  0  0  0  0  0
    3.1247   -1.3724    3.9844 C   0  0  2  0  0  0  0  0  0  0  0  0
    4.4952   -2.0923    3.7904 C   0  0  0  0  0  0  0  0  0  0  0  0
    4.7402   -3.3656    4.6256 C   0  0  0  0  0  0  0  0  0  0  0  0
    3.6292   -4.4672    4.5880 C   0  0  2  0  0  0  0  0  0  0  0  0
    3.5621   -5.0322    6.0461 C   0  0  0  0  0  0  0  0  0  0  0  0
    3.0293   -8.1990    3.7188 C   0  0  1  0  0  0  0  0  0  0  0  0
    1.8252   -9.1747    3.6573 C   0  0  0  0  0  0  0  0  0  0  0  0
    1.2171  -12.5678    4.1094 H   0  0  0  0  0  0  0  0  0  0  0  0
    0.6182  -11.5172    2.8271 H   0  0  0  0  0  0  0  0  0  0  0  0
    0.1777  -11.2204    4.5101 H   0  0  0  0  0  0  0  0  0  0  0  0
    3.6042  -10.2112    5.7185 H   0  0  0  0  0  0  0  0  0  0  0  0
    2.8130  -11.7711    5.7987 H   0  0  0  0  0  0  0  0  0  0  0  0
    1.9068  -10.3084    6.1780 H   0  0  0  0  0  0  0  0  0  0  0  0
    3.6674  -12.0987    3.3730 H   0  0  0  0  0  0  0  0  0  0  0  0
    2.9325  -11.2038    2.0825 H   0  0  0  0  0  0  0  0  0  0  0  0
    5.0424  -10.2105    4.0098 H   0  0  0  0  0  0  0  0  0  0  0  0
    4.9679  -11.1533    1.4241 H   0  0  0  0  0  0  0  0  0  0  0  0
    3.1686   -7.5846    1.1124 H   0  0  0  0  0  0  0  0  0  0  0  0
    3.0836   -9.3023    0.9661 H   0  0  0  0  0  0  0  0  0  0  0  0
    4.5839   -8.4938    0.6033 H   0  0  0  0  0  0  0  0  0  0  0  0
    6.1789   -8.3695    3.6258 H   0  0  0  0  0  0  0  0  0  0  0  0
    5.9567   -7.5181    2.1573 H   0  0  0  0  0  0  0  0  0  0  0  0
    5.1806   -6.8209    4.9731 H   0  0  0  0  0  0  0  0  0  0  0  0
    6.0820   -5.8583    3.8401 H   0  0  0  0  0  0  0  0  0  0  0  0
    4.6796   -4.3326    2.0459 H   0  0  0  0  0  0  0  0  0  0  0  0
    3.0993   -5.0011    1.6495 H   0  0  0  0  0  0  0  0  0  0  0  0
    4.5384   -5.9387    1.4755 H   0  0  0  0  0  0  0  0  0  0  0  0
    0.6213   -6.8789    4.0354 H   0  0  0  0  0  0  0  0  0  0  0  0
    0.3375   -4.4752    3.4701 H   0  0  0  0  0  0  0  0  0  0  0  0
    0.6194   -4.7187    5.1876 H   0  0  0  0  0  0  0  0  0  0  0  0
    2.3815   -3.6241    3.0771 H   0  0  0  0  0  0  0  0  0  0  0  0
    1.6861   -1.1857    6.4943 H   0  0  0  0  0  0  0  0  0  0  0  0
    3.0886   -2.1813    6.5544 H   0  0  0  0  0  0  0  0  0  0  0  0
    1.4885   -2.9167    6.6634 H   0  0  0  0  0  0  0  0  0  0  0  0
    0.3161   -2.2526    3.2474 H   0  0  0  0  0  0  0  0  0  0  0  0
   -0.1249   -2.1643    4.9143 H   0  0  0  0  0  0  0  0  0  0  0  0
   -0.5499   -0.0318    3.8904 H   0  0  0  0  0  0  0  0  0  0  0  0
    0.7779    0.2209    4.9804 H   0  0  0  0  0  0  0  0  0  0  0  0
   -0.1786    2.5901    1.9312 H   0  0  0  0  0  0  0  0  0  0  0  0
    3.4271   -1.9430    1.1482 H   0  0  0  0  0  0  0  0  0  0  0  0
    2.2854   -0.7650    0.6067 H   0  0  0  0  0  0  0  0  0  0  0  0
    1.7235   -2.1335    1.5376 H   0  0  0  0  0  0  0  0  0  0  0  0
    4.7576    0.0302    2.2089 H   0  0  0  0  0  0  0  0  0  0  0  0
    3.9226    1.1757    3.2727 H   0  0  0  0  0  0  0  0  0  0  0  0
    3.5568    1.1068    1.5484 H   0  0  0  0  0  0  0  0  0  0  0  0
    3.3260   -0.6124    4.7402 H   0  0  0  0  0  0  0  0  0  0  0  0
    4.6768   -2.3305    2.7534 H   0  0  0  0  0  0  0  0  0  0  0  0
    5.2907   -1.3850    4.0213 H   0  0  0  0  0  0  0  0  0  0  0  0
    5.7083   -3.7749    4.3486 H   0  0  0  0  0  0  0  0  0  0  0  0
    4.9002   -3.0285    5.6477 H   0  0  0  0  0  0  0  0  0  0  0  0
    3.2818   -4.2967    6.7915 H   0  0  0  0  0  0  0  0  0  0  0  0
    4.5381   -5.3853    6.3790 H   0  0  0  0  0  0  0  0  0  0  0  0
    2.8637   -5.8595    6.1631 H   0  0  0  0  0  0  0  0  0  0  0  0
    3.4191   -8.2920    4.7311 H   0  0  0  0  0  0  0  0  0  0  0  0
    1.3945   -9.1599    2.6553 H   0  0  0  0  0  0  0  0  0  0  0  0
    1.0278   -8.8843    4.3397 H   0  0  0  0  0  0  0  0  0  0  0  0
  1  2  1  0
  1 34  1  0
  1 35  1  0
  1 36  1  0
  2 33  1  0
  2  3  1  0
  2  4  1  0
  3 37  1  0
  3 38  1  0
  3 39  1  0
  4  5  1  0
  4 40  1  0
  4 41  1  0
  5  6  1  0
  5  7  1  0
  5 42  1  1
  6 43  1  0
  7 32  1  0
  7  8  1  6
  7  9  1  0
  8 44  1  0
  8 45  1  0
  8 46  1  0
  9 10  1  0
  9 47  1  0
  9 48  1  0
 10 11  1  0
 10 49  1  0
 10 50  1  0
 11 30  1  0
 11 12  1  6
 11 13  1  0
 12 51  1  0
 12 52  1  0
 12 53  1  0
 13 14  2  0
 13 32  1  0
 14 15  1  0
 14 54  1  0
 15 16  1  0
 15 55  1  0
 15 56  1  0
 16 30  1  0
 16 17  1  0
 16 57  1  6
 17 27  1  0
 17 18  1  1
 17 19  1  0
 18 58  1  0
 18 59  1  0
 18 60  1  0
 19 20  1  0
 19 61  1  0
 19 62  1  0
 20 21  1  0
 20 63  1  0
 20 64  1  0
 21 22  2  3
 21 24  1  0
 22 23  1  0
 23 65  1  0
 24 25  1  0
 24 26  1  0
 24 27  1  0
 25 66  1  0
 25 67  1  0
 25 68  1  0
 26 69  1  0
 26 70  1  0
 26 71  1  0
 27 28  1  0
 27 72  1  1
 28 29  1  0
 28 73  1  0
 28 74  1  0
 29 30  1  0
 29 75  1  0
 29 76  1  0
 30 31  1  1
 31 77  1  0
 31 78  1  0
 31 79  1  0
 32 33  1  0
 32 80  1  1
 33 81  1  0
 33 82  1  0
M  END
>  <i_m_ct_stereo_status>  (83) 
1

>  <s_m_source_file>  (83) 
/var/tmp/pbs.5076255.sched01/tmp361wbqj1/0nt8_y6ui.sdf

>  <i_m_source_file_index>  (83) 
28

>  <i_lp_mmshare_version>  (83) 
48012

>  <i_f3d_flags>  (83) 
0

>  <s_epik_input>  (83) 
W09IXVtDQEBIXTFbQ0gyXUMoW0NIM10pKFtDSDNdKVtDSDJdW0NAQEhdKFtDQF0xMltDSDNdKUM9M1tDQF0oW0NIM10pKFtDSDJdW0NIMl0yKVtDQF00KFtDSDNdKVtDQEBIXShbQ0gyXVtDSF0zKVtDQEBdNShbQ0gzXSlbQ0BASF0oW0NIMl1bQ0gyXTQpQyhbQ0gzXSkoW0NIM10pQyhcW0NIMl1bQ0gyXTUpPU5cW09IXQ==

>  <s_epik_cmdline>  (83) 
J2VwaWtfcHl0aG9uJywgJy1waHQnLCAnMi4wJywgJy1waCcsICc3LjAnLCAnLXRuJywgJzgnLCAnLW1hJywgJzIwMCcsICctaW1hZScsICc8aW5maWxlLm1hZT4nLCAnLW9tYWUnLCAnPG91dGZpbGUubWFlPic=

>  <r_lp_tautomer_probability>  (83) 
1

>  <r_epik_Ionization_Penalty>  (83) 
2.31825e-06

>  <r_epik_Ionization_Penalty_Charging>  (83) 
0

>  <r_epik_Ionization_Penalty_Neutral>  (83) 
2.31825e-06

>  <r_epik_State_Penalty>  (83) 
-0

>  <r_epik_Charging_Adjusted_Penalty>  (83) 
0

>  <i_epik_Tot_Q>  (83) 
0

>  <i_epik_Tot_abs_Q>  (83) 
0

>  <s_epik_Chemistry_Notes>  (83) 
This compound has an imine and may undergo hydrolysis.

>  <s_lp_Force_Field>  (83) 
OPLS3e

>  <r_lp_Energy>  (83) 
101.886

>  <b_lp_Chiralities_Consistent>  (83) 
1

>  <s_lp_Variant>  (83) 
23:0-1

>  <s_i_glide_gridfile>  (83) 
pfpi4k_grid

>  <i_i_glide_lignum>  (83) 
28

>  <i_i_glide_rotatable_bonds>  (83) 
2

>  <r_i_docking_score>  (83) 
-3.04897

>  <r_i_glide_ligand_efficiency>  (83) 
-0.0923931

>  <r_i_glide_ligand_efficiency_sa>  (83) 
-0.296354

>  <r_i_glide_ligand_efficiency_ln>  (83) 
-0.678075

>  <r_i_glide_gscore>  (83) 
-3.04897

>  <r_i_glide_lipo>  (83) 
-0.182427

>  <r_i_glide_hbond>  (83) 
-0.277099

>  <r_i_glide_metal>  (83) 
-0

>  <r_i_glide_rewards>  (83) 
-0.301939

>  <r_i_glide_evdw>  (83) 
-25.1528

>  <r_i_glide_ecoul>  (83) 
-6.52306

>  <r_i_glide_erotb>  (83) 
0.096743

>  <r_i_glide_esite>  (83) 
-0.148146

>  <r_i_glide_emodel>  (83) 
-38.2025

>  <r_i_glide_energy>  (83) 
-31.6759

>  <r_i_glide_einternal>  (83) 
0.903622

>  <r_i_glide_intrahb_reward>  (83) 
-0

>  <i_i_glide_confnum>  (83) 
2

>  <i_i_glide_posenum>  (83) 
10

>  <r_i_glide_eff_state_penalty>  (83) 
0

>  <ligand_id>  (83) 
23

>  <original_smiles>  (83) 
CC1(C)CC(O)C2(C)CCC3(C)C(=CCC4C5(C)CCC(=NO)C(C)(C)C5CCC43C)C2C1

>  <smiles>  (83) 
[H]ON=C1C([H])([H])C([H])([H])C2(C([H])([H])[H])C([H])(C([H])([H])C([H])([H])C3(C([H])([H])[H])C2([H])C([H])([H])C([H])=C2C4([H])C([H])([H])C(C([H])([H])[H])(C([H])([H])[H])C([H])([H])C([H])(O[H])C4(C([H])([H])[H])C([H])([H])C([H])([H])C23C([H])([H])[H])C1(C([H])([H])[H])C([H])([H])[H]

$$$$
23:1:0
     RDKit          3D

 82 86  0  0  1  0  0  0  0  0999 V2000
    0.8910   -7.7502    1.7130 C   0  0  0  0  0  0  0  0  0  0  0  0
    1.9288   -6.9561    2.5295 C   0  0  0  0  0  0  0  0  0  0  0  0
    1.8022   -7.3993    4.0107 C   0  0  0  0  0  0  0  0  0  0  0  0
    3.3465   -7.2579    1.9847 C   0  0  0  0  0  0  0  0  0  0  0  0
    4.4440   -6.2897    2.4958 C   0  0  1  0  0  0  0  0  0  0  0  0
    5.6636   -6.6347    1.8702 O   0  0  0  0  0  0  0  0  0  0  0  0
    4.0857   -4.7847    2.2616 C   0  0  2  0  0  0  0  0  0  0  0  0
    4.0809   -4.5018    0.7289 C   0  0  0  0  0  0  0  0  0  0  0  0
    5.0875   -3.8520    2.9535 C   0  0  0  0  0  0  0  0  0  0  0  0
    4.7137   -2.3591    2.7991 C   0  0  0  0  0  0  0  0  0  0  0  0
    3.2406   -1.9380    3.1644 C   0  0  1  0  0  0  0  0  0  0  0  0
    2.6194   -1.3003    1.8816 C   0  0  0  0  0  0  0  0  0  0  0  0
    2.3341   -3.1507    3.4588 C   0  0  0  0  0  0  0  0  0  0  0  0
    1.2734   -3.0176    4.2790 C   0  0  0  0  0  0  0  0  0  0  0  0
    0.8241   -1.7475    4.9736 C   0  0  0  0  0  0  0  0  0  0  0  0
    1.7443   -0.5220    4.7615 C   0  0  1  0  0  0  0  0  0  0  0  0
    1.5220    0.6423    5.8047 C   0  0  2  0  0  0  0  0  0  0  0  0
    2.0004    0.2798    7.2415 C   0  0  0  0  0  0  0  0  0  0  0  0
    0.0288    0.9887    5.9949 C   0  0  0  0  0  0  0  0  0  0  0  0
   -0.6366    1.5157    4.7306 C   0  0  0  0  0  0  0  0  0  0  0  0
   -0.0358    2.8241    4.2720 C   0  0  0  0  0  0  0  0  0  0  0  0
   -0.8935    3.6989    3.8917 N   0  0  0  0  0  0  0  0  0  0  0  0
   -0.2992    4.8278    3.2799 O   0  0  0  0  0  0  0  0  0  0  0  0
    1.5297    2.8905    4.2437 C   0  0  0  0  0  0  0  0  0  0  0  0
    1.9490    2.5861    2.7906 C   0  0  0  0  0  0  0  0  0  0  0  0
    2.0305    4.3274    4.5809 C   0  0  0  0  0  0  0  0  0  0  0  0
    2.2452    1.9332    5.3129 C   0  0  2  0  0  0  0  0  0  0  0  0
    3.7399    1.6021    5.0278 C   0  0  0  0  0  0  0  0  0  0  0  0
    3.9973    0.3965    4.0865 C   0  0  0  0  0  0  0  0  0  0  0  0
    3.2243   -0.9216    4.4109 C   0  0  2  0  0  0  0  0  0  0  0  0
    3.9043   -1.6177    5.6337 C   0  0  0  0  0  0  0  0  0  0  0  0
    2.7336   -4.5666    2.9920 C   0  0  1  0  0  0  0  0  0  0  0  0
    1.6204   -5.4453    2.3816 C   0  0  0  0  0  0  0  0  0  0  0  0
    1.0720   -8.8238    1.7782 H   0  0  0  0  0  0  0  0  0  0  0  0
    0.9350   -7.4815    0.6586 H   0  0  0  0  0  0  0  0  0  0  0  0
   -0.1272   -7.5660    2.0584 H   0  0  0  0  0  0  0  0  0  0  0  0
    2.6144   -7.0218    4.6356 H   0  0  0  0  0  0  0  0  0  0  0  0
    1.8225   -8.4875    4.1081 H   0  0  0  0  0  0  0  0  0  0  0  0
    0.8674   -7.0488    4.4571 H   0  0  0  0  0  0  0  0  0  0  0  0
    3.6147   -8.2814    2.2399 H   0  0  0  0  0  0  0  0  0  0  0  0
    3.3239   -7.2371    0.8966 H   0  0  0  0  0  0  0  0  0  0  0  0
    4.5907   -6.4579    3.5637 H   0  0  0  0  0  0  0  0  0  0  0  0
    5.9130   -7.5026    2.1509 H   0  0  0  0  0  0  0  0  0  0  0  0
    3.7965   -3.4895    0.4732 H   0  0  0  0  0  0  0  0  0  0  0  0
    3.4199   -5.1554    0.1638 H   0  0  0  0  0  0  0  0  0  0  0  0
    5.0797   -4.6357    0.3084 H   0  0  0  0  0  0  0  0  0  0  0  0
    5.1402   -4.1067    4.0116 H   0  0  0  0  0  0  0  0  0  0  0  0
    6.0920   -4.0213    2.5606 H   0  0  0  0  0  0  0  0  0  0  0  0
    5.4463   -1.7900    3.3661 H   0  0  0  0  0  0  0  0  0  0  0  0
    4.9281   -2.0704    1.7715 H   0  0  0  0  0  0  0  0  0  0  0  0
    3.2161   -0.4950    1.4552 H   0  0  0  0  0  0  0  0  0  0  0  0
    1.6069   -0.9295    2.0205 H   0  0  0  0  0  0  0  0  0  0  0  0
    2.4962   -2.0336    1.0916 H   0  0  0  0  0  0  0  0  0  0  0  0
    0.6800   -3.8807    4.5342 H   0  0  0  0  0  0  0  0  0  0  0  0
   -0.1782   -1.5168    4.6167 H   0  0  0  0  0  0  0  0  0  0  0  0
    0.7335   -1.9877    6.0310 H   0  0  0  0  0  0  0  0  0  0  0  0
    1.3748   -0.0787    3.8508 H   0  0  0  0  0  0  0  0  0  0  0  0
    1.6719    1.0178    7.9729 H   0  0  0  0  0  0  0  0  0  0  0  0
    3.0767    0.2478    7.3522 H   0  0  0  0  0  0  0  0  0  0  0  0
    1.6150   -0.6816    7.5724 H   0  0  0  0  0  0  0  0  0  0  0  0
   -0.5241    0.1337    6.3860 H   0  0  0  0  0  0  0  0  0  0  0  0
   -0.0677    1.7691    6.7548 H   0  0  0  0  0  0  0  0  0  0  0  0
   -0.5774    0.8013    3.9109 H   0  0  0  0  0  0  0  0  0  0  0  0
   -1.7021    1.6454    4.9317 H   0  0  0  0  0  0  0  0  0  0  0  0
   -0.1857    4.5438    2.3572 H   0  0  0  0  0  0  0  0  0  0  0  0
    3.0123    2.7398    2.6219 H   0  0  0  0  0  0  0  0  0  0  0  0
    1.4409    3.2524    2.0955 H   0  0  0  0  0  0  0  0  0  0  0  0
    1.6868    1.5745    2.4861 H   0  0  0  0  0  0  0  0  0  0  0  0
    3.0737    4.3438    4.8831 H   0  0  0  0  0  0  0  0  0  0  0  0
    1.4577    4.7642    5.4011 H   0  0  0  0  0  0  0  0  0  0  0  0
    1.9675    5.0134    3.7345 H   0  0  0  0  0  0  0  0  0  0  0  0
    2.2768    2.5624    6.2039 H   0  0  0  0  0  0  0  0  0  0  0  0
    4.2476    2.4720    4.6158 H   0  0  0  0  0  0  0  0  0  0  0  0
    4.2583    1.4275    5.9700 H   0  0  0  0  0  0  0  0  0  0  0  0
    3.7938    0.7214    3.0752 H   0  0  0  0  0  0  0  0  0  0  0  0
    5.0707    0.2161    4.0939 H   0  0  0  0  0  0  0  0  0  0  0  0
    3.1875   -2.1410    6.2647 H   0  0  0  0  0  0  0  0  0  0  0  0
    4.4495   -0.9188    6.2649 H   0  0  0  0  0  0  0  0  0  0  0  0
    4.6459   -2.3635    5.3610 H   0  0  0  0  0  0  0  0  0  0  0  0
    2.9107   -4.9792    3.9826 H   0  0  0  0  0  0  0  0  0  0  0  0
    1.5173   -5.2029    1.3257 H   0  0  0  0  0  0  0  0  0  0  0  0
    0.6486   -5.2352    2.8247 H   0  0  0  0  0  0  0  0  0  0  0  0
  1  2  1  0
  1 34  1  0
  1 35  1  0
  1 36  1  0
  2 33  1  0
  2  3  1  0
  2  4  1  0
  3 37  1  0
  3 38  1  0
  3 39  1  0
  4  5  1  0
  4 40  1  0
  4 41  1  0
  5  6  1  0
  5  7  1  0
  5 42  1  1
  6 43  1  0
  7 32  1  0
  7  8  1  6
  7  9  1  0
  8 44  1  0
  8 45  1  0
  8 46  1  0
  9 10  1  0
  9 47  1  0
  9 48  1  0
 10 11  1  0
 10 49  1  0
 10 50  1  0
 11 30  1  0
 11 12  1  6
 11 13  1  0
 12 51  1  0
 12 52  1  0
 12 53  1  0
 13 14  2  0
 13 32  1  0
 14 15  1  0
 14 54  1  0
 15 16  1  0
 15 55  1  0
 15 56  1  0
 16 30  1  0
 16 17  1  0
 16 57  1  6
 17 27  1  0
 17 18  1  1
 17 19  1  0
 18 58  1  0
 18 59  1  0
 18 60  1  0
 19 20  1  0
 19 61  1  0
 19 62  1  0
 20 21  1  0
 20 63  1  0
 20 64  1  0
 21 22  2  3
 21 24  1  0
 22 23  1  0
 23 65  1  0
 24 25  1  0
 24 26  1  0
 24 27  1  0
 25 66  1  0
 25 67  1  0
 25 68  1  0
 26 69  1  0
 26 70  1  0
 26 71  1  0
 27 28  1  0
 27 72  1  1
 28 29  1  0
 28 73  1  0
 28 74  1  0
 29 30  1  0
 29 75  1  0
 29 76  1  0
 30 31  1  1
 31 77  1  0
 31 78  1  0
 31 79  1  0
 32 33  1  0
 32 80  1  1
 33 81  1  0
 33 82  1  0
M  END
>  <i_m_ct_stereo_status>  (84) 
1

>  <s_m_source_file>  (84) 
/var/tmp/pbs.5076255.sched01/tmp361wbqj1/0nt8_y6ui.sdf

>  <i_m_source_file_index>  (84) 
29

>  <i_lp_mmshare_version>  (84) 
48012

>  <i_f3d_flags>  (84) 
0

>  <s_epik_input>  (84) 
W09IXVtDQEBIXTFbQ0gyXUMoW0NIM10pKFtDSDNdKVtDSDJdW0NAQEhdKFtDQF0xMltDSDNdKUM9M1tDQF0oW0NIM10pKFtDSDJdW0NIMl0yKVtDQF00KFtDSDNdKVtDQEBIXShbQ0gyXVtDSF0zKVtDQEBdNShbQ0gzXSlbQ0BASF0oW0NIMl1bQ0gyXTQpQyhbQ0gzXSkoW0NIM10pQyhcW0NIMl1bQ0gyXTUpPU5cW09IXQ==

>  <s_epik_cmdline>  (84) 
J2VwaWtfcHl0aG9uJywgJy1waHQnLCAnMi4wJywgJy1waCcsICc3LjAnLCAnLXRuJywgJzgnLCAnLW1hJywgJzIwMCcsICctaW1hZScsICc8aW5maWxlLm1hZT4nLCAnLW9tYWUnLCAnPG91dGZpbGUubWFlPic=

>  <r_lp_tautomer_probability>  (84) 
1

>  <r_epik_Ionization_Penalty>  (84) 
2.31825e-06

>  <r_epik_Ionization_Penalty_Charging>  (84) 
0

>  <r_epik_Ionization_Penalty_Neutral>  (84) 
2.31825e-06

>  <r_epik_State_Penalty>  (84) 
-0

>  <r_epik_Charging_Adjusted_Penalty>  (84) 
0

>  <i_epik_Tot_Q>  (84) 
0

>  <i_epik_Tot_abs_Q>  (84) 
0

>  <s_epik_Chemistry_Notes>  (84) 
This compound has an imine and may undergo hydrolysis.

>  <s_lp_Force_Field>  (84) 
OPLS3e

>  <r_lp_Energy>  (84) 
110.269

>  <b_lp_Chiralities_Consistent>  (84) 
1

>  <s_lp_Variant>  (84) 
23:0-2

>  <s_i_glide_gridfile>  (84) 
pfpi4k_grid

>  <i_i_glide_lignum>  (84) 
29

>  <i_i_glide_rotatable_bonds>  (84) 
2

>  <r_i_docking_score>  (84) 
-3.04318

>  <r_i_glide_ligand_efficiency>  (84) 
-0.0922175

>  <r_i_glide_ligand_efficiency_sa>  (84) 
-0.295791

>  <r_i_glide_ligand_efficiency_ln>  (84) 
-0.676787

>  <r_i_glide_gscore>  (84) 
-3.04318

>  <r_i_glide_lipo>  (84) 
-0.148734

>  <r_i_glide_hbond>  (84) 
-0.16

>  <r_i_glide_metal>  (84) 
-0

>  <r_i_glide_rewards>  (84) 
-0.301939

>  <r_i_glide_evdw>  (84) 
-26.9344

>  <r_i_glide_ecoul>  (84) 
-6.51882

>  <r_i_glide_erotb>  (84) 
0.096743

>  <r_i_glide_esite>  (84) 
-0.204704

>  <r_i_glide_emodel>  (84) 
-39.1467

>  <r_i_glide_energy>  (84) 
-33.4532

>  <r_i_glide_einternal>  (84) 
2.22753

>  <r_i_glide_intrahb_reward>  (84) 
-0

>  <i_i_glide_confnum>  (84) 
4

>  <i_i_glide_posenum>  (84) 
5

>  <r_i_glide_eff_state_penalty>  (84) 
0

>  <ligand_id>  (84) 
23

>  <original_smiles>  (84) 
CC1(C)CC(O)C2(C)CCC3(C)C(=CCC4C5(C)CCC(=NO)C(C)(C)C5CCC43C)C2C1

>  <smiles>  (84) 
[H]ON=C1C([H])([H])C([H])([H])C2(C([H])([H])[H])C([H])(C([H])([H])C([H])([H])C3(C([H])([H])[H])C2([H])C([H])([H])C([H])=C2C4([H])C([H])([H])C(C([H])([H])[H])(C([H])([H])[H])C([H])([H])C([H])(O[H])C4(C([H])([H])[H])C([H])([H])C([H])([H])C23C([H])([H])[H])C1(C([H])([H])[H])C([H])([H])[H]

$$$$
23:1:1
     RDKit          3D

 82 86  0  0  1  0  0  0  0  0999 V2000
   -0.4385   -8.2861    2.3800 C   0  0  0  0  0  0  0  0  0  0  0  0
    0.8177   -7.6307    2.9856 C   0  0  0  0  0  0  0  0  0  0  0  0
    0.8471   -7.9852    4.4960 C   0  0  0  0  0  0  0  0  0  0  0  0
    2.0792   -8.1734    2.2694 C   0  0  0  0  0  0  0  0  0  0  0  0
    3.3721   -7.3699    2.5539 C   0  0  1  0  0  0  0  0  0  0  0  0
    4.4089   -7.9283    1.7722 O   0  0  0  0  0  0  0  0  0  0  0  0
    3.2155   -5.8375    2.2810 C   0  0  2  0  0  0  0  0  0  0  0  0
    3.0269   -5.6181    0.7490 C   0  0  0  0  0  0  0  0  0  0  0  0
    4.4367   -5.0427    2.7659 C   0  0  0  0  0  0  0  0  0  0  0  0
    4.2690   -3.5182    2.5678 C   0  0  0  0  0  0  0  0  0  0  0  0
    2.9435   -2.8576    3.1064 C   0  0  1  0  0  0  0  0  0  0  0  0
    2.2456   -2.1806    1.8849 C   0  0  0  0  0  0  0  0  0  0  0  0
    1.9201   -3.8995    3.5987 C   0  0  0  0  0  0  0  0  0  0  0  0
    1.0224   -3.5682    4.5485 C   0  0  0  0  0  0  0  0  0  0  0  0
    0.8722   -2.2137    5.2145 C   0  0  0  0  0  0  0  0  0  0  0  0
    1.9242   -1.1567    4.7986 C   0  0  1  0  0  0  0  0  0  0  0  0
    2.0324    0.0716    5.7836 C   0  0  2  0  0  0  0  0  0  0  0  0
    2.6603   -0.3012    7.1608 C   0  0  0  0  0  0  0  0  0  0  0  0
    0.6529    0.6535    6.1599 C   0  0  0  0  0  0  0  0  0  0  0  0
   -0.1054    1.2239    4.9695 C   0  0  0  0  0  0  0  0  0  0  0  0
    0.6055    2.3960    4.3400 C   0  0  0  0  0  0  0  0  0  0  0  0
   -0.1672    3.3640    4.0097 N   0  0  0  0  0  0  0  0  0  0  0  0
    0.4999    4.3832    3.2793 O   0  0  0  0  0  0  0  0  0  0  0  0
    2.1418    2.2228    4.0932 C   0  0  0  0  0  0  0  0  0  0  0  0
    2.2798    1.8006    2.6134 C   0  0  0  0  0  0  0  0  0  0  0  0
    2.8957    3.5751    4.2690 C   0  0  0  0  0  0  0  0  0  0  0  0
    2.8593    1.2091    5.1114 C   0  0  2  0  0  0  0  0  0  0  0  0
    4.2299    0.6346    4.6463 C   0  0  0  0  0  0  0  0  0  0  0  0
    4.1650   -0.6320    3.7596 C   0  0  0  0  0  0  0  0  0  0  0  0
    3.2602   -1.7991    4.2735 C   0  0  2  0  0  0  0  0  0  0  0  0
    4.0029   -2.5382    5.4322 C   0  0  0  0  0  0  0  0  0  0  0  0
    2.0309   -5.3800    3.1748 C   0  0  1  0  0  0  0  0  0  0  0  0
    0.7227   -6.1004    2.7822 C   0  0  0  0  0  0  0  0  0  0  0  0
   -0.4103   -9.3727    2.4890 H   0  0  0  0  0  0  0  0  0  0  0  0
   -0.5103   -8.0746    1.3111 H   0  0  0  0  0  0  0  0  0  0  0  0
   -1.3562   -7.9283    2.8504 H   0  0  0  0  0  0  0  0  0  0  0  0
    1.7896   -7.7105    4.9747 H   0  0  0  0  0  0  0  0  0  0  0  0
    0.7215   -9.0588    4.6587 H   0  0  0  0  0  0  0  0  0  0  0  0
    0.0481   -7.4763    5.0425 H   0  0  0  0  0  0  0  0  0  0  0  0
    2.2294   -9.2157    2.5524 H   0  0  0  0  0  0  0  0  0  0  0  0
    1.8937   -8.1995    1.1988 H   0  0  0  0  0  0  0  0  0  0  0  0
    3.6548   -7.5205    3.5948 H   0  0  0  0  0  0  0  0  0  0  0  0
    4.4734   -8.8532    1.9714 H   0  0  0  0  0  0  0  0  0  0  0  0
    2.8648   -4.5851    0.4691 H   0  0  0  0  0  0  0  0  0  0  0  0
    2.1996   -6.1844    0.3259 H   0  0  0  0  0  0  0  0  0  0  0  0
    3.9203   -5.9264    0.2010 H   0  0  0  0  0  0  0  0  0  0  0  0
    4.6036   -5.2574    3.8229 H   0  0  0  0  0  0  0  0  0  0  0  0
    5.3368   -5.3826    2.2516 H   0  0  0  0  0  0  0  0  0  0  0  0
    5.1530   -3.0462    2.9900 H   0  0  0  0  0  0  0  0  0  0  0  0
    4.3720   -3.3107    1.5023 H   0  0  0  0  0  0  0  0  0  0  0  0
    2.8867   -1.4982    1.3273 H   0  0  0  0  0  0  0  0  0  0  0  0
    1.3291   -1.6514    2.1370 H   0  0  0  0  0  0  0  0  0  0  0  0
    1.9054   -2.9179    1.1671 H   0  0  0  0  0  0  0  0  0  0  0  0
    0.3503   -4.3160    4.9375 H   0  0  0  0  0  0  0  0  0  0  0  0
   -0.1280   -1.8432    4.9866 H   0  0  0  0  0  0  0  0  0  0  0  0
    0.9049   -2.3923    6.2877 H   0  0  0  0  0  0  0  0  0  0  0  0
    1.4930   -0.6993    3.9220 H   0  0  0  0  0  0  0  0  0  0  0  0
    2.5547    0.5087    7.8828 H   0  0  0  0  0  0  0  0  0  0  0  0
    3.7246   -0.4985    7.1257 H   0  0  0  0  0  0  0  0  0  0  0  0
    2.1862   -1.1747    7.6044 H   0  0  0  0  0  0  0  0  0  0  0  0
    0.0439   -0.0871    6.6778 H   0  0  0  0  0  0  0  0  0  0  0  0
    0.7873    1.4689    6.8771 H   0  0  0  0  0  0  0  0  0  0  0  0
   -0.2775    0.4741    4.1997 H   0  0  0  0  0  0  0  0  0  0  0  0
   -1.0982    1.5273    5.3136 H   0  0  0  0  0  0  0  0  0  0  0  0
    0.2357    4.2085    2.3578 H   0  0  0  0  0  0  0  0  0  0  0  0
    3.3195    1.7653    2.2960 H   0  0  0  0  0  0  0  0  0  0  0  0
    1.7845    2.5081    1.9431 H   0  0  0  0  0  0  0  0  0  0  0  0
    1.8313    0.8283    2.4177 H   0  0  0  0  0  0  0  0  0  0  0  0
    3.9639    3.4392    4.4228 H   0  0  0  0  0  0  0  0  0  0  0  0
    2.5205    4.1326    5.1300 H   0  0  0  0  0  0  0  0  0  0  0  0
    2.8169    4.2255    3.3964 H   0  0  0  0  0  0  0  0  0  0  0  0
    3.1126    1.8625    5.9483 H   0  0  0  0  0  0  0  0  0  0  0  0
    4.8019    1.3901    4.1128 H   0  0  0  0  0  0  0  0  0  0  0  0
    4.8457    0.4193    5.5170 H   0  0  0  0  0  0  0  0  0  0  0  0
    3.8636   -0.3206    2.7700 H   0  0  0  0  0  0  0  0  0  0  0  0
    5.1889   -0.9787    3.6303 H   0  0  0  0  0  0  0  0  0  0  0  0
    3.3161   -2.9179    6.1877 H   0  0  0  0  0  0  0  0  0  0  0  0
    4.7311   -1.9069    5.9342 H   0  0  0  0  0  0  0  0  0  0  0  0
    4.5765   -3.4000    5.1066 H   0  0  0  0  0  0  0  0  0  0  0  0
    2.2891   -5.7705    4.1554 H   0  0  0  0  0  0  0  0  0  0  0  0
    0.4930   -5.8870    1.7398 H   0  0  0  0  0  0  0  0  0  0  0  0
   -0.1253   -5.7354    3.3561 H   0  0  0  0  0  0  0  0  0  0  0  0
  1  2  1  0
  1 34  1  0
  1 35  1  0
  1 36  1  0
  2 33  1  0
  2  3  1  0
  2  4  1  0
  3 37  1  0
  3 38  1  0
  3 39  1  0
  4  5  1  0
  4 40  1  0
  4 41  1  0
  5  6  1  0
  5  7  1  0
  5 42  1  1
  6 43  1  0
  7 32  1  0
  7  8  1  6
  7  9  1  0
  8 44  1  0
  8 45  1  0
  8 46  1  0
  9 10  1  0
  9 47  1  0
  9 48  1  0
 10 11  1  0
 10 49  1  0
 10 50  1  0
 11 30  1  0
 11 12  1  6
 11 13  1  0
 12 51  1  0
 12 52  1  0
 12 53  1  0
 13 14  2  0
 13 32  1  0
 14 15  1  0
 14 54  1  0
 15 16  1  0
 15 55  1  0
 15 56  1  0
 16 30  1  0
 16 17  1  0
 16 57  1  6
 17 27  1  0
 17 18  1  1
 17 19  1  0
 18 58  1  0
 18 59  1  0
 18 60  1  0
 19 20  1  0
 19 61  1  0
 19 62  1  0
 20 21  1  0
 20 63  1  0
 20 64  1  0
 21 22  2  3
 21 24  1  0
 22 23  1  0
 23 65  1  0
 24 25  1  0
 24 26  1  0
 24 27  1  0
 25 66  1  0
 25 67  1  0
 25 68  1  0
 26 69  1  0
 26 70  1  0
 26 71  1  0
 27 28  1  0
 27 72  1  1
 28 29  1  0
 28 73  1  0
 28 74  1  0
 29 30  1  0
 29 75  1  0
 29 76  1  0
 30 31  1  1
 31 77  1  0
 31 78  1  0
 31 79  1  0
 32 33  1  0
 32 80  1  1
 33 81  1  0
 33 82  1  0
M  END
>  <i_m_ct_stereo_status>  (85) 
1

>  <s_m_source_file>  (85) 
/var/tmp/pbs.5076255.sched01/tmp361wbqj1/0nt8_y6ui.sdf

>  <i_m_source_file_index>  (85) 
29

>  <i_lp_mmshare_version>  (85) 
48012

>  <i_f3d_flags>  (85) 
0

>  <s_epik_input>  (85) 
W09IXVtDQEBIXTFbQ0gyXUMoW0NIM10pKFtDSDNdKVtDSDJdW0NAQEhdKFtDQF0xMltDSDNdKUM9M1tDQF0oW0NIM10pKFtDSDJdW0NIMl0yKVtDQF00KFtDSDNdKVtDQEBIXShbQ0gyXVtDSF0zKVtDQEBdNShbQ0gzXSlbQ0BASF0oW0NIMl1bQ0gyXTQpQyhbQ0gzXSkoW0NIM10pQyhcW0NIMl1bQ0gyXTUpPU5cW09IXQ==

>  <s_epik_cmdline>  (85) 
J2VwaWtfcHl0aG9uJywgJy1waHQnLCAnMi4wJywgJy1waCcsICc3LjAnLCAnLXRuJywgJzgnLCAnLW1hJywgJzIwMCcsICctaW1hZScsICc8aW5maWxlLm1hZT4nLCAnLW9tYWUnLCAnPG91dGZpbGUubWFlPic=

>  <r_lp_tautomer_probability>  (85) 
1

>  <r_epik_Ionization_Penalty>  (85) 
2.31825e-06

>  <r_epik_Ionization_Penalty_Charging>  (85) 
0

>  <r_epik_Ionization_Penalty_Neutral>  (85) 
2.31825e-06

>  <r_epik_State_Penalty>  (85) 
-0

>  <r_epik_Charging_Adjusted_Penalty>  (85) 
0

>  <i_epik_Tot_Q>  (85) 
0

>  <i_epik_Tot_abs_Q>  (85) 
0

>  <s_epik_Chemistry_Notes>  (85) 
This compound has an imine and may undergo hydrolysis.

>  <s_lp_Force_Field>  (85) 
OPLS3e

>  <r_lp_Energy>  (85) 
110.269

>  <b_lp_Chiralities_Consistent>  (85) 
1

>  <s_lp_Variant>  (85) 
23:0-2

>  <s_i_glide_gridfile>  (85) 
pfpi4k_grid

>  <i_i_glide_lignum>  (85) 
29

>  <i_i_glide_rotatable_bonds>  (85) 
2

>  <r_i_docking_score>  (85) 
-2.82811

>  <r_i_glide_ligand_efficiency>  (85) 
-0.0857003

>  <r_i_glide_ligand_efficiency_sa>  (85) 
-0.274887

>  <r_i_glide_ligand_efficiency_ln>  (85) 
-0.628957

>  <r_i_glide_gscore>  (85) 
-2.82811

>  <r_i_glide_lipo>  (85) 
-0.0821351

>  <r_i_glide_hbond>  (85) 
-0.16

>  <r_i_glide_metal>  (85) 
-0

>  <r_i_glide_rewards>  (85) 
-0.301939

>  <r_i_glide_evdw>  (85) 
-27.6636

>  <r_i_glide_ecoul>  (85) 
-5.46491

>  <r_i_glide_erotb>  (85) 
0.096743

>  <r_i_glide_esite>  (85) 
-0.17786

>  <r_i_glide_emodel>  (85) 
-38.0452

>  <r_i_glide_energy>  (85) 
-33.1285

>  <r_i_glide_einternal>  (85) 
2.36465

>  <r_i_glide_intrahb_reward>  (85) 
-0

>  <i_i_glide_confnum>  (85) 
2

>  <i_i_glide_posenum>  (85) 
8

>  <r_i_glide_eff_state_penalty>  (85) 
0

>  <ligand_id>  (85) 
23

>  <original_smiles>  (85) 
CC1(C)CC(O)C2(C)CCC3(C)C(=CCC4C5(C)CCC(=NO)C(C)(C)C5CCC43C)C2C1

>  <smiles>  (85) 
[H]ON=C1C([H])([H])C([H])([H])C2(C([H])([H])[H])C([H])(C([H])([H])C([H])([H])C3(C([H])([H])[H])C2([H])C([H])([H])C([H])=C2C4([H])C([H])([H])C(C([H])([H])[H])(C([H])([H])[H])C([H])([H])C([H])(O[H])C4(C([H])([H])[H])C([H])([H])C([H])([H])C23C([H])([H])[H])C1(C([H])([H])[H])C([H])([H])[H]

$$$$
23:1:2
     RDKit          3D

 82 86  0  0  1  0  0  0  0  0999 V2000
    0.6327  -11.2157    3.2926 C   0  0  0  0  0  0  0  0  0  0  0  0
    1.8465  -10.3876    3.7400 C   0  0  0  0  0  0  0  0  0  0  0  0
    1.9346  -10.4686    5.2767 C   0  0  0  0  0  0  0  0  0  0  0  0
    3.1315  -10.9820    3.1163 C   0  0  0  0  0  0  0  0  0  0  0  0
    4.3732  -10.0640    3.1817 C   0  0  1  0  0  0  0  0  0  0  0  0
    5.4141  -10.7102    2.4776 O   0  0  0  0  0  0  0  0  0  0  0  0
    4.1018   -8.6217    2.6436 C   0  0  2  0  0  0  0  0  0  0  0  0
    3.8630   -8.6958    1.1100 C   0  0  0  0  0  0  0  0  0  0  0  0
    5.2751   -7.6787    2.9377 C   0  0  0  0  0  0  0  0  0  0  0  0
    5.0007   -6.2285    2.4777 C   0  0  0  0  0  0  0  0  0  0  0  0
    3.6462   -5.5634    2.9382 C   0  0  1  0  0  0  0  0  0  0  0  0
    2.8694   -5.1653    1.6438 C   0  0  0  0  0  0  0  0  0  0  0  0
    2.7112   -6.5630    3.6507 C   0  0  0  0  0  0  0  0  0  0  0  0
    1.8163   -6.1249    4.5617 C   0  0  0  0  0  0  0  0  0  0  0  0
    1.5904   -4.6870    4.9850 C   0  0  0  0  0  0  0  0  0  0  0  0
    2.5576   -3.6583    4.3497 C   0  0  1  0  0  0  0  0  0  0  0  0
    2.6089   -2.2727    5.1015 C   0  0  2  0  0  0  0  0  0  0  0  0
    3.2962   -2.3564    6.4984 C   0  0  0  0  0  0  0  0  0  0  0  0
    1.2040   -1.7190    5.4209 C   0  0  0  0  0  0  0  0  0  0  0  0
    0.3751   -1.4217    4.1825 C   0  0  0  0  0  0  0  0  0  0  0  0
    0.9852   -0.3254    3.3395 C   0  0  0  0  0  0  0  0  0  0  0  0
    0.1523    0.5377    2.8958 N   0  0  0  0  0  0  0  0  0  0  0  0
    0.7221    1.4353    1.9589 O   0  0  0  0  0  0  0  0  0  0  0  0
    2.5281   -0.4570    3.0637 C   0  0  0  0  0  0  0  0  0  0  0  0
    2.6752   -1.1148    1.6791 C   0  0  0  0  0  0  0  0  0  0  0  0
    3.1822    0.9442    2.9755 C   0  0  0  0  0  0  0  0  0  0  0  0
    3.3393   -1.2198    4.2143 C   0  0  2  0  0  0  0  0  0  0  0  0
    4.7324   -1.7816    3.7982 C   0  0  0  0  0  0  0  0  0  0  0  0
    4.7331   -3.1880    3.1535 C   0  0  0  0  0  0  0  0  0  0  0  0
    3.9205   -4.2990    3.8956 C   0  0  2  0  0  0  0  0  0  0  0  0
    4.7413   -4.7747    5.1366 C   0  0  0  0  0  0  0  0  0  0  0  0
    2.9051   -8.0845    3.4786 C   0  0  1  0  0  0  0  0  0  0  0  0
    1.6347   -8.9285    3.2586 C   0  0  0  0  0  0  0  0  0  0  0  0
    0.7282  -12.2586    3.6027 H   0  0  0  0  0  0  0  0  0  0  0  0
    0.5001  -11.1950    2.2104 H   0  0  0  0  0  0  0  0  0  0  0  0
   -0.2792  -10.8171    3.7351 H   0  0  0  0  0  0  0  0  0  0  0  0
    2.8685  -10.0616    5.6683 H   0  0  0  0  0  0  0  0  0  0  0  0
    1.8916  -11.5066    5.6177 H   0  0  0  0  0  0  0  0  0  0  0  0
    1.1061   -9.9363    5.7522 H   0  0  0  0  0  0  0  0  0  0  0  0
    3.3557  -11.9478    3.5728 H   0  0  0  0  0  0  0  0  0  0  0  0
    2.9167  -11.2125    2.0755 H   0  0  0  0  0  0  0  0  0  0  0  0
    4.7036  -10.0014    4.2174 H   0  0  0  0  0  0  0  0  0  0  0  0
    5.0282  -11.1377    1.7155 H   0  0  0  0  0  0  0  0  0  0  0  0
    3.6284   -7.7360    0.6701 H   0  0  0  0  0  0  0  0  0  0  0  0
    3.0601   -9.3759    0.8292 H   0  0  0  0  0  0  0  0  0  0  0  0
    4.7589   -9.0400    0.5913 H   0  0  0  0  0  0  0  0  0  0  0  0
    5.4827   -7.6947    4.0083 H   0  0  0  0  0  0  0  0  0  0  0  0
    6.1799   -8.0486    2.4549 H   0  0  0  0  0  0  0  0  0  0  0  0
    5.8579   -5.6348    2.7833 H   0  0  0  0  0  0  0  0  0  0  0  0
    5.0623   -6.2036    1.3901 H   0  0  0  0  0  0  0  0  0  0  0  0
    3.4533   -4.5573    0.9578 H   0  0  0  0  0  0  0  0  0  0  0  0
    1.9344   -4.6517    1.8401 H   0  0  0  0  0  0  0  0  0  0  0  0
    2.5590   -6.0395    1.0846 H   0  0  0  0  0  0  0  0  0  0  0  0
    1.2072   -6.8361    5.0960 H   0  0  0  0  0  0  0  0  0  0  0  0
    0.5626   -4.4250    4.7349 H   0  0  0  0  0  0  0  0  0  0  0  0
    1.6694   -4.6752    6.0695 H   0  0  0  0  0  0  0  0  0  0  0  0
    2.0738   -3.3900    3.4232 H   0  0  0  0  0  0  0  0  0  0  0  0
    3.1550   -1.4383    7.0687 H   0  0  0  0  0  0  0  0  0  0  0  0
    4.3697   -2.4909    6.4597 H   0  0  0  0  0  0  0  0  0  0  0  0
    2.8904   -3.1636    7.1068 H   0  0  0  0  0  0  0  0  0  0  0  0
    0.6608   -2.3941    6.0776 H   0  0  0  0  0  0  0  0  0  0  0  0
    1.3035   -0.7863    5.9820 H   0  0  0  0  0  0  0  0  0  0  0  0
    0.2368   -2.2984    3.5536 H   0  0  0  0  0  0  0  0  0  0  0  0
   -0.6219   -1.1151    4.5038 H   0  0  0  0  0  0  0  0  0  0  0  0
   -0.0259    1.9478    1.6794 H   0  0  0  0  0  0  0  0  0  0  0  0
    3.7105   -1.1315    1.3392 H   0  0  0  0  0  0  0  0  0  0  0  0
    2.1337   -0.5504    0.9179 H   0  0  0  0  0  0  0  0  0  0  0  0
    2.2822   -2.1295    1.6599 H   0  0  0  0  0  0  0  0  0  0  0  0
    4.2611    0.9006    3.1055 H   0  0  0  0  0  0  0  0  0  0  0  0
    2.7984    1.6213    3.7407 H   0  0  0  0  0  0  0  0  0  0  0  0
    3.0332    1.4208    2.0042 H   0  0  0  0  0  0  0  0  0  0  0  0
    3.5711   -0.4181    4.9174 H   0  0  0  0  0  0  0  0  0  0  0  0
    5.2432   -1.0937    3.1263 H   0  0  0  0  0  0  0  0  0  0  0  0
    5.3841   -1.8048    4.6696 H   0  0  0  0  0  0  0  0  0  0  0  0
    4.3873   -3.0768    2.1344 H   0  0  0  0  0  0  0  0  0  0  0  0
    5.7737   -3.4902    3.0500 H   0  0  0  0  0  0  0  0  0  0  0  0
    4.1004   -5.0575    5.9693 H   0  0  0  0  0  0  0  0  0  0  0  0
    5.4365   -4.0208    5.4917 H   0  0  0  0  0  0  0  0  0  0  0  0
    5.3618   -5.6430    4.9445 H   0  0  0  0  0  0  0  0  0  0  0  0
    3.2095   -8.2777    4.5041 H   0  0  0  0  0  0  0  0  0  0  0  0
    1.3581   -8.9131    2.2052 H   0  0  0  0  0  0  0  0  0  0  0  0
    0.7720   -8.5179    3.7794 H   0  0  0  0  0  0  0  0  0  0  0  0
  1  2  1  0
  1 34  1  0
  1 35  1  0
  1 36  1  0
  2 33  1  0
  2  3  1  0
  2  4  1  0
  3 37  1  0
  3 38  1  0
  3 39  1  0
  4  5  1  0
  4 40  1  0
  4 41  1  0
  5  6  1  0
  5  7  1  0
  5 42  1  1
  6 43  1  0
  7 32  1  0
  7  8  1  6
  7  9  1  0
  8 44  1  0
  8 45  1  0
  8 46  1  0
  9 10  1  0
  9 47  1  0
  9 48  1  0
 10 11  1  0
 10 49  1  0
 10 50  1  0
 11 30  1  0
 11 12  1  6
 11 13  1  0
 12 51  1  0
 12 52  1  0
 12 53  1  0
 13 14  2  0
 13 32  1  0
 14 15  1  0
 14 54  1  0
 15 16  1  0
 15 55  1  0
 15 56  1  0
 16 30  1  0
 16 17  1  0
 16 57  1  6
 17 27  1  0
 17 18  1  1
 17 19  1  0
 18 58  1  0
 18 59  1  0
 18 60  1  0
 19 20  1  0
 19 61  1  0
 19 62  1  0
 20 21  1  0
 20 63  1  0
 20 64  1  0
 21 22  2  3
 21 24  1  0
 22 23  1  0
 23 65  1  0
 24 25  1  0
 24 26  1  0
 24 27  1  0
 25 66  1  0
 25 67  1  0
 25 68  1  0
 26 69  1  0
 26 70  1  0
 26 71  1  0
 27 28  1  0
 27 72  1  1
 28 29  1  0
 28 73  1  0
 28 74  1  0
 29 30  1  0
 29 75  1  0
 29 76  1  0
 30 31  1  1
 31 77  1  0
 31 78  1  0
 31 79  1  0
 32 33  1  0
 32 80  1  1
 33 81  1  0
 33 82  1  0
M  END
>  <i_m_ct_stereo_status>  (86) 
1

>  <s_m_source_file>  (86) 
/var/tmp/pbs.5076255.sched01/tmp361wbqj1/0nt8_y6ui.sdf

>  <i_m_source_file_index>  (86) 
29

>  <i_lp_mmshare_version>  (86) 
48012

>  <i_f3d_flags>  (86) 
0

>  <s_epik_input>  (86) 
W09IXVtDQEBIXTFbQ0gyXUMoW0NIM10pKFtDSDNdKVtDSDJdW0NAQEhdKFtDQF0xMltDSDNdKUM9M1tDQF0oW0NIM10pKFtDSDJdW0NIMl0yKVtDQF00KFtDSDNdKVtDQEBIXShbQ0gyXVtDSF0zKVtDQEBdNShbQ0gzXSlbQ0BASF0oW0NIMl1bQ0gyXTQpQyhbQ0gzXSkoW0NIM10pQyhcW0NIMl1bQ0gyXTUpPU5cW09IXQ==

>  <s_epik_cmdline>  (86) 
J2VwaWtfcHl0aG9uJywgJy1waHQnLCAnMi4wJywgJy1waCcsICc3LjAnLCAnLXRuJywgJzgnLCAnLW1hJywgJzIwMCcsICctaW1hZScsICc8aW5maWxlLm1hZT4nLCAnLW9tYWUnLCAnPG91dGZpbGUubWFlPic=

>  <r_lp_tautomer_probability>  (86) 
1

>  <r_epik_Ionization_Penalty>  (86) 
2.31825e-06

>  <r_epik_Ionization_Penalty_Charging>  (86) 
0

>  <r_epik_Ionization_Penalty_Neutral>  (86) 
2.31825e-06

>  <r_epik_State_Penalty>  (86) 
-0

>  <r_epik_Charging_Adjusted_Penalty>  (86) 
0

>  <i_epik_Tot_Q>  (86) 
0

>  <i_epik_Tot_abs_Q>  (86) 
0

>  <s_epik_Chemistry_Notes>  (86) 
This compound has an imine and may undergo hydrolysis.

>  <s_lp_Force_Field>  (86) 
OPLS3e

>  <r_lp_Energy>  (86) 
110.269

>  <b_lp_Chiralities_Consistent>  (86) 
1

>  <s_lp_Variant>  (86) 
23:0-2

>  <s_i_glide_gridfile>  (86) 
pfpi4k_grid

>  <i_i_glide_lignum>  (86) 
29

>  <i_i_glide_rotatable_bonds>  (86) 
2

>  <r_i_docking_score>  (86) 
-2.69434

>  <r_i_glide_ligand_efficiency>  (86) 
-0.0816467

>  <r_i_glide_ligand_efficiency_sa>  (86) 
-0.261884

>  <r_i_glide_ligand_efficiency_ln>  (86) 
-0.599207

>  <r_i_glide_gscore>  (86) 
-2.69434

>  <r_i_glide_lipo>  (86) 
-0.201033

>  <r_i_glide_hbond>  (86) 
-0.16

>  <r_i_glide_metal>  (86) 
-0

>  <r_i_glide_rewards>  (86) 
-0.301939

>  <r_i_glide_evdw>  (86) 
-28.295

>  <r_i_glide_ecoul>  (86) 
-3.98526

>  <r_i_glide_erotb>  (86) 
0.096743

>  <r_i_glide_esite>  (86) 
-0.115574

>  <r_i_glide_emodel>  (86) 
-37.8864

>  <r_i_glide_energy>  (86) 
-32.2802

>  <r_i_glide_einternal>  (86) 
0.537325

>  <r_i_glide_intrahb_reward>  (86) 
-0

>  <i_i_glide_confnum>  (86) 
2

>  <i_i_glide_posenum>  (86) 
36

>  <r_i_glide_eff_state_penalty>  (86) 
0

>  <ligand_id>  (86) 
23

>  <original_smiles>  (86) 
CC1(C)CC(O)C2(C)CCC3(C)C(=CCC4C5(C)CCC(=NO)C(C)(C)C5CCC43C)C2C1

>  <smiles>  (86) 
[H]ON=C1C([H])([H])C([H])([H])C2(C([H])([H])[H])C([H])(C([H])([H])C([H])([H])C3(C([H])([H])[H])C2([H])C([H])([H])C([H])=C2C4([H])C([H])([H])C(C([H])([H])[H])(C([H])([H])[H])C([H])([H])C([H])(O[H])C4(C([H])([H])[H])C([H])([H])C([H])([H])C23C([H])([H])[H])C1(C([H])([H])[H])C([H])([H])[H]

$$$$
24:1:0
     RDKit          3D

 57 61  0  0  1  0  0  0  0  0999 V2000
    6.6254   -1.4766   -0.0997 C   0  0  0  0  0  0  0  0  0  0  0  0
    5.7411   -2.7242   -0.0201 C   0  0  0  0  0  0  0  0  0  0  0  0
    6.0596   -3.5717   -1.2717 C   0  0  0  0  0  0  0  0  0  0  0  0
    6.1673   -3.4887    1.2326 C   0  0  0  0  0  0  0  0  0  0  0  0
    6.8333   -4.5233    1.2010 O   0  0  0  0  0  0  0  0  0  0  0  0
    5.7708   -2.8302    2.5443 C   0  0  0  0  0  0  0  0  0  0  0  0
    4.2758   -2.4022    2.7001 C   0  0  1  0  0  0  0  0  0  0  0  0
    4.2123   -1.4802    3.9519 C   0  0  0  0  0  0  0  0  0  0  0  0
    3.9717   -1.5815    1.4251 C   0  0  0  0  0  0  0  0  0  0  0  0
    3.6073   -0.4089    1.4665 O   0  0  0  0  0  0  0  0  0  0  0  0
    4.2229   -2.3424    0.1034 C   0  0  1  0  0  0  0  0  0  0  0  0
    3.7591   -1.4575   -1.0859 C   0  0  0  0  0  0  0  0  0  0  0  0
    3.3779   -3.6170    0.2225 C   0  0  0  0  0  0  0  0  0  0  0  0
    3.0871   -4.0543   -1.0017 O   0  0  0  0  0  0  0  0  0  0  0  0
    2.9481   -4.2165    1.3660 C   0  0  0  0  0  0  0  0  0  0  0  0
    2.1454   -5.4816    1.3302 C   0  0  0  0  0  0  0  0  0  0  0  0
    1.5439   -5.8317    0.3167 O   0  0  0  0  0  0  0  0  0  0  0  0
    2.0769   -6.2812    2.5736 C   0  0  0  0  0  0  0  0  0  0  0  0
    0.8866   -6.9028    2.9934 C   0  0  0  0  0  0  0  0  0  0  0  0
   -0.2529   -6.8768    2.4838 O   0  0  0  0  0  0  0  0  0  0  0  0
    0.9143   -7.6561    4.2799 C   0  0  0  0  0  0  0  0  0  0  0  0
   -0.2517   -8.2695    4.8072 C   0  0  0  0  0  0  0  0  0  0  0  0
   -0.2170   -9.0129    6.0072 C   0  0  0  0  0  0  0  0  0  0  0  0
    0.9787   -9.1662    6.7188 C   0  0  0  0  0  0  0  0  0  0  0  0
    2.1419   -8.5571    6.2318 C   0  0  0  0  0  0  0  0  0  0  0  0
    2.1118   -7.7978    5.0305 C   0  0  0  0  0  0  0  0  0  0  0  0
    3.3865   -7.2118    4.5570 C   0  0  0  0  0  0  0  0  0  0  0  0
    4.4644   -7.4657    5.0882 O   0  0  0  0  0  0  0  0  0  0  0  0
    3.3645   -6.1936    3.3930 C   0  0  1  0  0  0  0  0  0  0  0  0
    4.4896   -6.4936    2.5623 O   0  0  0  0  0  0  0  0  0  0  0  0
    3.4589   -4.7162    3.8855 C   0  0  1  0  0  0  0  0  0  0  0  0
    4.6211   -4.5286    4.6601 O   0  0  0  0  0  0  0  0  0  0  0  0
    3.2377   -3.6134    2.7589 C   0  0  1  0  0  0  0  0  0  0  0  0
    2.0128   -3.0063    3.1574 O   0  0  0  0  0  0  0  0  0  0  0  0
    6.4141   -1.0044   -1.0512 H   0  0  0  0  0  0  0  0  0  0  0  0
    7.6915   -1.7221   -0.0705 H   0  0  0  0  0  0  0  0  0  0  0  0
    6.4461   -0.7385    0.6850 H   0  0  0  0  0  0  0  0  0  0  0  0
    5.7105   -3.1271   -2.2022 H   0  0  0  0  0  0  0  0  0  0  0  0
    5.6112   -4.5613   -1.1978 H   0  0  0  0  0  0  0  0  0  0  0  0
    7.1349   -3.7322   -1.3760 H   0  0  0  0  0  0  0  0  0  0  0  0
    6.1143   -3.4666    3.3480 H   0  0  0  0  0  0  0  0  0  0  0  0
    6.3725   -1.9302    2.6114 H   0  0  0  0  0  0  0  0  0  0  0  0
    4.4834   -2.0021    4.8626 H   0  0  0  0  0  0  0  0  0  0  0  0
    3.2301   -1.0467    4.1008 H   0  0  0  0  0  0  0  0  0  0  0  0
    4.9098   -0.6526    3.8544 H   0  0  0  0  0  0  0  0  0  0  0  0
    2.6948   -1.2826   -0.9899 H   0  0  0  0  0  0  0  0  0  0  0  0
    3.8895   -1.9166   -2.0653 H   0  0  0  0  0  0  0  0  0  0  0  0
    4.2359   -0.4796   -1.0951 H   0  0  0  0  0  0  0  0  0  0  0  0
   -1.2001   -8.2004    4.2972 H   0  0  0  0  0  0  0  0  0  0  0  0
   -1.1289   -9.4652    6.3649 H   0  0  0  0  0  0  0  0  0  0  0  0
    0.9904   -9.7653    7.6196 H   0  0  0  0  0  0  0  0  0  0  0  0
    3.0582   -8.6951    6.7912 H   0  0  0  0  0  0  0  0  0  0  0  0
    4.5232   -5.9049    1.8281 H   0  0  0  0  0  0  0  0  0  0  0  0
    2.6579   -4.6054    4.6205 H   0  0  0  0  0  0  0  0  0  0  0  0
    4.5406   -3.7052    5.1120 H   0  0  0  0  0  0  0  0  0  0  0  0
    1.8159   -2.2895    2.5744 H   0  0  0  0  0  0  0  0  0  0  0  0
    2.6731   -4.9048   -0.9328 H   0  0  0  0  0  0  0  0  0  0  0  0
  1  2  1  0
  1 35  1  0
  1 36  1  0
  1 37  1  0
  2 11  1  0
  2  3  1  0
  2  4  1  0
  3 38  1  0
  3 39  1  0
  3 40  1  0
  4  5  2  0
  4  6  1  0
  6  7  1  0
  6 41  1  0
  6 42  1  0
  7 33  1  0
  7  8  1  1
  7  9  1  0
  8 43  1  0
  8 44  1  0
  8 45  1  0
  9 10  2  0
  9 11  1  0
 11 12  1  6
 11 13  1  0
 12 46  1  0
 12 47  1  0
 12 48  1  0
 13 14  1  0
 13 15  2  0
 14 57  1  0
 15 33  1  0
 15 16  1  0
 16 18  1  0
 16 17  2  0
 18 19  2  0
 18 29  1  0
 19 21  1  0
 19 20  1  0
 21 26  2  0
 21 22  1  0
 22 23  2  0
 22 49  1  0
 23 24  1  0
 23 50  1  0
 24 25  2  0
 24 51  1  0
 25 26  1  0
 25 52  1  0
 26 27  1  0
 27 28  2  0
 27 29  1  0
 29 30  1  6
 29 31  1  0
 30 53  1  0
 31 32  1  0
 31 33  1  0
 31 54  1  1
 32 55  1  0
 33 34  1  1
 34 56  1  0
M  CHG  1  20  -1
M  END
>  <i_m_ct_stereo_status>  (87) 
1

>  <s_m_source_file>  (87) 
/var/tmp/pbs.5076255.sched01/tmp361wbqj1/0nt8_y6ui.sdf

>  <i_m_source_file_index>  (87) 
31

>  <i_lp_mmshare_version>  (87) 
48012

>  <i_f3d_flags>  (87) 
0

>  <s_epik_input>  (87) 
Tz1DKFtDSDJdMSlDKFtDSDNdKShbQ0gzXSlbQ0BAXShDMj1PKShbQ0gzXSlDKD1PKVtDQEhdKFtDQF0zKFtPSF0pW0NAQF0xMltDSDNdKUMoPU8pW0NAQEhdNFtDQEBdKFtPSF0pKFtDQEhdM1tPSF0pQyg9TyljNWMoQzQ9TylbY0hdW2NIXVtjSF1bY0hdNQ==

>  <s_epik_cmdline>  (87) 
J2VwaWtfcHl0aG9uJywgJy1waHQnLCAnMi4wJywgJy1waCcsICc3LjAnLCAnLXRuJywgJzgnLCAnLW1hJywgJzIwMCcsICctaW1hZScsICc8aW5maWxlLm1hZT4nLCAnLW9tYWUnLCAnPG91dGZpbGUubWFlPic=

>  <r_lp_tautomer_probability>  (87) 
0.99995

>  <r_epik_Ionization_Penalty>  (87) 
0.067939

>  <r_epik_Ionization_Penalty_Charging>  (87) 
0.00462753

>  <r_epik_Ionization_Penalty_Neutral>  (87) 
0.0633115

>  <r_epik_State_Penalty>  (87) 
0.563839

>  <r_epik_Charging_Adjusted_Penalty>  (87) 
0.568466

>  <i_epik_Tot_Q>  (87) 
-1

>  <i_epik_Tot_abs_Q>  (87) 
1

>  <s_lp_Force_Field>  (87) 
OPLS3e

>  <r_lp_Energy>  (87) 
72.0721

>  <b_lp_Chiralities_Consistent>  (87) 
1

>  <s_lp_Variant>  (87) 
24:0-2

>  <s_i_glide_gridfile>  (87) 
pfpi4k_grid

>  <i_i_glide_lignum>  (87) 
31

>  <i_i_glide_rotatable_bonds>  (87) 
4

>  <r_i_docking_score>  (87) 
-2.94161

>  <r_i_glide_ligand_efficiency>  (87) 
-0.0865179

>  <r_i_glide_ligand_efficiency_sa>  (87) 
-0.280284

>  <r_i_glide_ligand_efficiency_ln>  (87) 
-0.649884

>  <r_i_glide_gscore>  (87) 
-2.94161

>  <r_i_glide_lipo>  (87) 
-0.171489

>  <r_i_glide_hbond>  (87) 
-0.31745

>  <r_i_glide_metal>  (87) 
-0

>  <r_i_glide_rewards>  (87) 
-0.842285

>  <r_i_glide_evdw>  (87) 
-21.401

>  <r_i_glide_ecoul>  (87) 
-3.28284

>  <r_i_glide_erotb>  (87) 
0

>  <r_i_glide_esite>  (87) 
-0.0479106

>  <r_i_glide_emodel>  (87) 
-34.5048

>  <r_i_glide_energy>  (87) 
-24.6838

>  <r_i_glide_einternal>  (87) 
0.435824

>  <r_i_glide_intrahb_reward>  (87) 
-0.5

>  <i_i_glide_confnum>  (87) 
2

>  <i_i_glide_posenum>  (87) 
24

>  <r_i_glide_eff_state_penalty>  (87) 
0

>  <ligand_id>  (87) 
24

>  <original_smiles>  (87) 
CC1(C)C(=O)CC2(C)C(=O)C1(C)C(=O)C1C(=O)C3C(=O)c4ccccc4C(=O)C3(O)C(O)C12O

>  <smiles>  (87) 
[H]OC1=C2C(=O)C3=C([O-])c4c([H])c([H])c([H])c([H])c4C(=O)C3(O[H])C([H])(O[H])C2(O[H])C2(C([H])([H])[H])C(=O)C1(C([H])([H])[H])C(C([H])([H])[H])(C([H])([H])[H])C(=O)C2([H])[H]

$$$$
24:1:1
     RDKit          3D

 57 61  0  0  1  0  0  0  0  0999 V2000
    6.6265   -1.1732    0.2435 C   0  0  0  0  0  0  0  0  0  0  0  0
    5.8027   -2.4656    0.2500 C   0  0  0  0  0  0  0  0  0  0  0  0
    6.2931   -3.3277   -0.9416 C   0  0  0  0  0  0  0  0  0  0  0  0
    6.1156   -3.1967    1.5577 C   0  0  0  0  0  0  0  0  0  0  0  0
    6.7938   -4.2174    1.6107 O   0  0  0  0  0  0  0  0  0  0  0  0
    5.5615   -2.5387    2.8217 C   0  0  0  0  0  0  0  0  0  0  0  0
    4.0524   -2.1802    2.8146 C   0  0  1  0  0  0  0  0  0  0  0  0
    3.8213   -1.2489    4.0390 C   0  0  0  0  0  0  0  0  0  0  0  0
    3.8375   -1.3988    1.4960 C   0  0  0  0  0  0  0  0  0  0  0  0
    3.4229   -0.2460    1.4798 O   0  0  0  0  0  0  0  0  0  0  0  0
    4.2621   -2.1641    0.2166 C   0  0  1  0  0  0  0  0  0  0  0  0
    3.8658   -1.3197   -1.0253 C   0  0  0  0  0  0  0  0  0  0  0  0
    3.4772   -3.4829    0.2740 C   0  0  0  0  0  0  0  0  0  0  0  0
    3.3347   -3.9573   -0.9660 O   0  0  0  0  0  0  0  0  0  0  0  0
    2.9567   -4.0770    1.3824 C   0  0  0  0  0  0  0  0  0  0  0  0
    2.2206   -5.3739    1.2922 C   0  0  0  0  0  0  0  0  0  0  0  0
    1.7082   -5.7390    0.2354 O   0  0  0  0  0  0  0  0  0  0  0  0
    2.0735   -6.1688    2.5369 C   0  0  0  0  0  0  0  0  0  0  0  0
    0.8725   -6.8425    2.8475 C   0  0  0  0  0  0  0  0  0  0  0  0
   -0.2231   -6.8592    2.2434 O   0  0  0  0  0  0  0  0  0  0  0  0
    0.8010   -7.5753    4.1399 C   0  0  0  0  0  0  0  0  0  0  0  0
   -0.3837   -8.2339    4.5639 C   0  0  0  0  0  0  0  0  0  0  0  0
   -0.4294   -8.9543    5.7776 C   0  0  0  0  0  0  0  0  0  0  0  0
    0.6955   -9.0445    6.6046 C   0  0  0  0  0  0  0  0  0  0  0  0
    1.8719   -8.3877    6.2229 C   0  0  0  0  0  0  0  0  0  0  0  0
    1.9230   -7.6475    5.0093 C   0  0  0  0  0  0  0  0  0  0  0  0
    3.2114   -7.0031    4.6579 C   0  0  0  0  0  0  0  0  0  0  0  0
    4.2438   -7.1926    5.2926 O   0  0  0  0  0  0  0  0  0  0  0  0
    3.2604   -5.9948    3.4884 C   0  0  1  0  0  0  0  0  0  0  0  0
    4.4936   -6.2173    2.7977 O   0  0  0  0  0  0  0  0  0  0  0  0
    3.2311   -4.5113    3.9600 C   0  0  1  0  0  0  0  0  0  0  0  0
    4.3047   -4.2661    4.8415 O   0  0  0  0  0  0  0  0  0  0  0  0
    3.0813   -3.4432    2.7868 C   0  0  1  0  0  0  0  0  0  0  0  0
    1.7947   -2.8965    3.0463 O   0  0  0  0  0  0  0  0  0  0  0  0
    6.4997   -0.6933   -0.7209 H   0  0  0  0  0  0  0  0  0  0  0  0
    7.6918   -1.3618    0.3899 H   0  0  0  0  0  0  0  0  0  0  0  0
    6.3285   -0.4463    0.9983 H   0  0  0  0  0  0  0  0  0  0  0  0
    6.0134   -2.9124   -1.9086 H   0  0  0  0  0  0  0  0  0  0  0  0
    5.8803   -4.3343   -0.8946 H   0  0  0  0  0  0  0  0  0  0  0  0
    7.3796   -3.4408   -0.9390 H   0  0  0  0  0  0  0  0  0  0  0  0
    5.8513   -3.1295    3.6798 H   0  0  0  0  0  0  0  0  0  0  0  0
    6.1272   -1.6180    2.9378 H   0  0  0  0  0  0  0  0  0  0  0  0
    4.0217   -1.7572    4.9761 H   0  0  0  0  0  0  0  0  0  0  0  0
    2.8086   -0.8631    4.0812 H   0  0  0  0  0  0  0  0  0  0  0  0
    4.4863   -0.3923    3.9992 H   0  0  0  0  0  0  0  0  0  0  0  0
    2.7919   -1.1913   -1.0379 H   0  0  0  0  0  0  0  0  0  0  0  0
    4.1215   -1.7802   -1.9771 H   0  0  0  0  0  0  0  0  0  0  0  0
    4.2932   -0.3194   -0.9986 H   0  0  0  0  0  0  0  0  0  0  0  0
   -1.2774   -8.2176    3.9608 H   0  0  0  0  0  0  0  0  0  0  0  0
   -1.3459   -9.4355    6.0907 H   0  0  0  0  0  0  0  0  0  0  0  0
    0.6405   -9.6300    7.5123 H   0  0  0  0  0  0  0  0  0  0  0  0
    2.7339   -8.4724    6.8753 H   0  0  0  0  0  0  0  0  0  0  0  0
    4.5287   -5.7127    2.0027 H   0  0  0  0  0  0  0  0  0  0  0  0
    2.3536   -4.4261    4.6041 H   0  0  0  0  0  0  0  0  0  0  0  0
    5.1069   -4.4735    4.3855 H   0  0  0  0  0  0  0  0  0  0  0  0
    1.6104   -2.2160    2.4187 H   0  0  0  0  0  0  0  0  0  0  0  0
    2.9315   -4.8130   -0.9203 H   0  0  0  0  0  0  0  0  0  0  0  0
  1  2  1  0
  1 35  1  0
  1 36  1  0
  1 37  1  0
  2 11  1  0
  2  3  1  0
  2  4  1  0
  3 38  1  0
  3 39  1  0
  3 40  1  0
  4  5  2  0
  4  6  1  0
  6  7  1  0
  6 41  1  0
  6 42  1  0
  7 33  1  0
  7  8  1  1
  7  9  1  0
  8 43  1  0
  8 44  1  0
  8 45  1  0
  9 10  2  0
  9 11  1  0
 11 12  1  6
 11 13  1  0
 12 46  1  0
 12 47  1  0
 12 48  1  0
 13 14  1  0
 13 15  2  0
 14 57  1  0
 15 33  1  0
 15 16  1  0
 16 18  1  0
 16 17  2  0
 18 19  2  0
 18 29  1  0
 19 21  1  0
 19 20  1  0
 21 26  2  0
 21 22  1  0
 22 23  2  0
 22 49  1  0
 23 24  1  0
 23 50  1  0
 24 25  2  0
 24 51  1  0
 25 26  1  0
 25 52  1  0
 26 27  1  0
 27 28  2  0
 27 29  1  0
 29 30  1  6
 29 31  1  0
 30 53  1  0
 31 32  1  0
 31 33  1  0
 31 54  1  1
 32 55  1  0
 33 34  1  1
 34 56  1  0
M  CHG  1  20  -1
M  END
>  <i_m_ct_stereo_status>  (88) 
1

>  <s_m_source_file>  (88) 
/var/tmp/pbs.5076255.sched01/tmp361wbqj1/0nt8_y6ui.sdf

>  <i_m_source_file_index>  (88) 
31

>  <i_lp_mmshare_version>  (88) 
48012

>  <i_f3d_flags>  (88) 
0

>  <s_epik_input>  (88) 
Tz1DKFtDSDJdMSlDKFtDSDNdKShbQ0gzXSlbQ0BAXShDMj1PKShbQ0gzXSlDKD1PKVtDQEhdKFtDQF0zKFtPSF0pW0NAQF0xMltDSDNdKUMoPU8pW0NAQEhdNFtDQEBdKFtPSF0pKFtDQEhdM1tPSF0pQyg9TyljNWMoQzQ9TylbY0hdW2NIXVtjSF1bY0hdNQ==

>  <s_epik_cmdline>  (88) 
J2VwaWtfcHl0aG9uJywgJy1waHQnLCAnMi4wJywgJy1waCcsICc3LjAnLCAnLXRuJywgJzgnLCAnLW1hJywgJzIwMCcsICctaW1hZScsICc8aW5maWxlLm1hZT4nLCAnLW9tYWUnLCAnPG91dGZpbGUubWFlPic=

>  <r_lp_tautomer_probability>  (88) 
0.99995

>  <r_epik_Ionization_Penalty>  (88) 
0.067939

>  <r_epik_Ionization_Penalty_Charging>  (88) 
0.00462753

>  <r_epik_Ionization_Penalty_Neutral>  (88) 
0.0633115

>  <r_epik_State_Penalty>  (88) 
0.563839

>  <r_epik_Charging_Adjusted_Penalty>  (88) 
0.568466

>  <i_epik_Tot_Q>  (88) 
-1

>  <i_epik_Tot_abs_Q>  (88) 
1

>  <s_lp_Force_Field>  (88) 
OPLS3e

>  <r_lp_Energy>  (88) 
72.0721

>  <b_lp_Chiralities_Consistent>  (88) 
1

>  <s_lp_Variant>  (88) 
24:0-2

>  <s_i_glide_gridfile>  (88) 
pfpi4k_grid

>  <i_i_glide_lignum>  (88) 
31

>  <i_i_glide_rotatable_bonds>  (88) 
4

>  <r_i_docking_score>  (88) 
-2.89492

>  <r_i_glide_ligand_efficiency>  (88) 
-0.0851447

>  <r_i_glide_ligand_efficiency_sa>  (88) 
-0.275836

>  <r_i_glide_ligand_efficiency_ln>  (88) 
-0.639569

>  <r_i_glide_gscore>  (88) 
-2.89492

>  <r_i_glide_lipo>  (88) 
-0.190836

>  <r_i_glide_hbond>  (88) 
-0.267242

>  <r_i_glide_metal>  (88) 
-0

>  <r_i_glide_rewards>  (88) 
-0.833421

>  <r_i_glide_evdw>  (88) 
-21.9029

>  <r_i_glide_ecoul>  (88) 
-3.04254

>  <r_i_glide_erotb>  (88) 
0

>  <r_i_glide_esite>  (88) 
-0.0518972

>  <r_i_glide_emodel>  (88) 
-34.8619

>  <r_i_glide_energy>  (88) 
-24.9454

>  <r_i_glide_einternal>  (88) 
0.107889

>  <r_i_glide_intrahb_reward>  (88) 
-0.5

>  <i_i_glide_confnum>  (88) 
2

>  <i_i_glide_posenum>  (88) 
15

>  <r_i_glide_eff_state_penalty>  (88) 
0

>  <ligand_id>  (88) 
24

>  <original_smiles>  (88) 
CC1(C)C(=O)CC2(C)C(=O)C1(C)C(=O)C1C(=O)C3C(=O)c4ccccc4C(=O)C3(O)C(O)C12O

>  <smiles>  (88) 
[H]OC1=C2C(=O)C3=C([O-])c4c([H])c([H])c([H])c([H])c4C(=O)C3(O[H])C([H])(O[H])C2(O[H])C2(C([H])([H])[H])C(=O)C1(C([H])([H])[H])C(C([H])([H])[H])(C([H])([H])[H])C(=O)C2([H])[H]

$$$$
24:1:2
     RDKit          3D

 57 61  0  0  1  0  0  0  0  0999 V2000
    6.6421   -1.1895    0.2230 C   0  0  0  0  0  0  0  0  0  0  0  0
    5.8123   -2.4764    0.2096 C   0  0  0  0  0  0  0  0  0  0  0  0
    6.2957   -3.3301   -0.9918 C   0  0  0  0  0  0  0  0  0  0  0  0
    6.1315   -3.2143    1.5105 C   0  0  0  0  0  0  0  0  0  0  0  0
    6.8306   -4.2205    1.5640 O   0  0  0  0  0  0  0  0  0  0  0  0
    5.5866   -2.5509    2.7759 C   0  0  0  0  0  0  0  0  0  0  0  0
    4.0784   -2.1879    2.7781 C   0  0  1  0  0  0  0  0  0  0  0  0
    3.8555   -1.2598    4.0054 C   0  0  0  0  0  0  0  0  0  0  0  0
    3.8577   -1.4028    1.4632 C   0  0  0  0  0  0  0  0  0  0  0  0
    3.4461   -0.2470    1.4523 O   0  0  0  0  0  0  0  0  0  0  0  0
    4.2728   -2.1648    0.1805 C   0  0  1  0  0  0  0  0  0  0  0  0
    3.8745   -1.3150   -1.0578 C   0  0  0  0  0  0  0  0  0  0  0  0
    3.4847   -3.4787    0.2352 C   0  0  0  0  0  0  0  0  0  0  0  0
    3.3314   -3.9453   -1.0049 O   0  0  0  0  0  0  0  0  0  0  0  0
    2.9684   -4.0773    1.3442 C   0  0  0  0  0  0  0  0  0  0  0  0
    2.2226   -5.3713    1.2554 C   0  0  0  0  0  0  0  0  0  0  0  0
    1.7029   -5.7312    0.1976 O   0  0  0  0  0  0  0  0  0  0  0  0
    2.0760   -6.1602    2.5010 C   0  0  0  0  0  0  0  0  0  0  0  0
    0.8800   -6.8394    2.8156 C   0  0  0  0  0  0  0  0  0  0  0  0
   -0.2167   -6.8549    2.2160 O   0  0  0  0  0  0  0  0  0  0  0  0
    0.8188   -7.5772    4.1079 C   0  0  0  0  0  0  0  0  0  0  0  0
   -0.3664   -8.2299    4.5363 C   0  0  0  0  0  0  0  0  0  0  0  0
   -0.4089   -8.9491    5.7506 C   0  0  0  0  0  0  0  0  0  0  0  0
    0.7223   -9.0457    6.5689 C   0  0  0  0  0  0  0  0  0  0  0  0
    1.9005   -8.3950    6.1821 C   0  0  0  0  0  0  0  0  0  0  0  0
    1.9480   -7.6548    4.9680 C   0  0  0  0  0  0  0  0  0  0  0  0
    3.2364   -7.0135    4.6001 C   0  0  0  0  0  0  0  0  0  0  0  0
    4.2826   -7.2035    5.2117 O   0  0  0  0  0  0  0  0  0  0  0  0
    3.2762   -5.9974    3.4366 C   0  0  1  0  0  0  0  0  0  0  0  0
    4.4911   -6.1998    2.7126 O   0  0  0  0  0  0  0  0  0  0  0  0
    3.2561   -4.5192    3.9225 C   0  0  1  0  0  0  0  0  0  0  0  0
    4.3356   -4.2910    4.8076 O   0  0  0  0  0  0  0  0  0  0  0  0
    3.1048   -3.4469    2.7519 C   0  0  1  0  0  0  0  0  0  0  0  0
    1.8212   -2.8975    3.0203 O   0  0  0  0  0  0  0  0  0  0  0  0
    6.4932   -0.7001   -0.7224 H   0  0  0  0  0  0  0  0  0  0  0  0
    7.7107   -1.3792    0.3440 H   0  0  0  0  0  0  0  0  0  0  0  0
    6.3470   -0.4593    0.9748 H   0  0  0  0  0  0  0  0  0  0  0  0
    6.0122   -2.9104   -1.9558 H   0  0  0  0  0  0  0  0  0  0  0  0
    5.8793   -4.3357   -0.9465 H   0  0  0  0  0  0  0  0  0  0  0  0
    7.3817   -3.4446   -0.9949 H   0  0  0  0  0  0  0  0  0  0  0  0
    5.8803   -3.1439    3.6293 H   0  0  0  0  0  0  0  0  0  0  0  0
    6.1552   -1.6306    2.8881 H   0  0  0  0  0  0  0  0  0  0  0  0
    4.0583   -1.7707    4.9412 H   0  0  0  0  0  0  0  0  0  0  0  0
    2.8438   -0.8698    4.0541 H   0  0  0  0  0  0  0  0  0  0  0  0
    4.5215   -0.4033    3.9650 H   0  0  0  0  0  0  0  0  0  0  0  0
    2.8008   -1.1831   -1.0651 H   0  0  0  0  0  0  0  0  0  0  0  0
    4.1236   -1.7734   -2.0133 H   0  0  0  0  0  0  0  0  0  0  0  0
    4.3046   -0.3153   -1.0316 H   0  0  0  0  0  0  0  0  0  0  0  0
   -1.2619   -8.2121    3.9364 H   0  0  0  0  0  0  0  0  0  0  0  0
   -1.3236   -9.4307    6.0670 H   0  0  0  0  0  0  0  0  0  0  0  0
    0.6695   -9.6366    7.4735 H   0  0  0  0  0  0  0  0  0  0  0  0
    2.7651   -8.4854    6.8289 H   0  0  0  0  0  0  0  0  0  0  0  0
    5.2078   -6.1378    3.3206 H   0  0  0  0  0  0  0  0  0  0  0  0
    2.3797   -4.4332    4.5707 H   0  0  0  0  0  0  0  0  0  0  0  0
    5.1420   -4.3349    4.3192 H   0  0  0  0  0  0  0  0  0  0  0  0
    1.6358   -2.2186    2.3918 H   0  0  0  0  0  0  0  0  0  0  0  0
    2.9471   -4.8092   -0.9546 H   0  0  0  0  0  0  0  0  0  0  0  0
  1  2  1  0
  1 35  1  0
  1 36  1  0
  1 37  1  0
  2 11  1  0
  2  3  1  0
  2  4  1  0
  3 38  1  0
  3 39  1  0
  3 40  1  0
  4  5  2  0
  4  6  1  0
  6  7  1  0
  6 41  1  0
  6 42  1  0
  7 33  1  0
  7  8  1  1
  7  9  1  0
  8 43  1  0
  8 44  1  0
  8 45  1  0
  9 10  2  0
  9 11  1  0
 11 12  1  6
 11 13  1  0
 12 46  1  0
 12 47  1  0
 12 48  1  0
 13 14  1  0
 13 15  2  0
 14 57  1  0
 15 33  1  0
 15 16  1  0
 16 18  1  0
 16 17  2  0
 18 19  2  0
 18 29  1  0
 19 21  1  0
 19 20  1  0
 21 26  2  0
 21 22  1  0
 22 23  2  0
 22 49  1  0
 23 24  1  0
 23 50  1  0
 24 25  2  0
 24 51  1  0
 25 26  1  0
 25 52  1  0
 26 27  1  0
 27 28  2  0
 27 29  1  0
 29 30  1  6
 29 31  1  0
 30 53  1  0
 31 32  1  0
 31 33  1  0
 31 54  1  1
 32 55  1  0
 33 34  1  1
 34 56  1  0
M  CHG  1  20  -1
M  END
>  <i_m_ct_stereo_status>  (89) 
1

>  <s_m_source_file>  (89) 
/var/tmp/pbs.5076255.sched01/tmp361wbqj1/0nt8_y6ui.sdf

>  <i_m_source_file_index>  (89) 
31

>  <i_lp_mmshare_version>  (89) 
48012

>  <i_f3d_flags>  (89) 
0

>  <s_epik_input>  (89) 
Tz1DKFtDSDJdMSlDKFtDSDNdKShbQ0gzXSlbQ0BAXShDMj1PKShbQ0gzXSlDKD1PKVtDQEhdKFtDQF0zKFtPSF0pW0NAQF0xMltDSDNdKUMoPU8pW0NAQEhdNFtDQEBdKFtPSF0pKFtDQEhdM1tPSF0pQyg9TyljNWMoQzQ9TylbY0hdW2NIXVtjSF1bY0hdNQ==

>  <s_epik_cmdline>  (89) 
J2VwaWtfcHl0aG9uJywgJy1waHQnLCAnMi4wJywgJy1waCcsICc3LjAnLCAnLXRuJywgJzgnLCAnLW1hJywgJzIwMCcsICctaW1hZScsICc8aW5maWxlLm1hZT4nLCAnLW9tYWUnLCAnPG91dGZpbGUubWFlPic=

>  <r_lp_tautomer_probability>  (89) 
0.99995

>  <r_epik_Ionization_Penalty>  (89) 
0.067939

>  <r_epik_Ionization_Penalty_Charging>  (89) 
0.00462753

>  <r_epik_Ionization_Penalty_Neutral>  (89) 
0.0633115

>  <r_epik_State_Penalty>  (89) 
0.563839

>  <r_epik_Charging_Adjusted_Penalty>  (89) 
0.568466

>  <i_epik_Tot_Q>  (89) 
-1

>  <i_epik_Tot_abs_Q>  (89) 
1

>  <s_lp_Force_Field>  (89) 
OPLS3e

>  <r_lp_Energy>  (89) 
72.0721

>  <b_lp_Chiralities_Consistent>  (89) 
1

>  <s_lp_Variant>  (89) 
24:0-2

>  <s_i_glide_gridfile>  (89) 
pfpi4k_grid

>  <i_i_glide_lignum>  (89) 
31

>  <i_i_glide_rotatable_bonds>  (89) 
4

>  <r_i_docking_score>  (89) 
-2.89456

>  <r_i_glide_ligand_efficiency>  (89) 
-0.085134

>  <r_i_glide_ligand_efficiency_sa>  (89) 
-0.275801

>  <r_i_glide_ligand_efficiency_ln>  (89) 
-0.639488

>  <r_i_glide_gscore>  (89) 
-2.89456

>  <r_i_glide_lipo>  (89) 
-0.189433

>  <r_i_glide_hbond>  (89) 
-0.2652

>  <r_i_glide_metal>  (89) 
-0

>  <r_i_glide_rewards>  (89) 
-0.837754

>  <r_i_glide_evdw>  (89) 
-22.1487

>  <r_i_glide_ecoul>  (89) 
-2.94684

>  <r_i_glide_erotb>  (89) 
0

>  <r_i_glide_esite>  (89) 
-0.0527072

>  <r_i_glide_emodel>  (89) 
-34.0714

>  <r_i_glide_energy>  (89) 
-25.0955

>  <r_i_glide_einternal>  (89) 
1.85849

>  <r_i_glide_intrahb_reward>  (89) 
-0.5

>  <i_i_glide_confnum>  (89) 
2

>  <i_i_glide_posenum>  (89) 
13

>  <r_i_glide_eff_state_penalty>  (89) 
0

>  <ligand_id>  (89) 
24

>  <original_smiles>  (89) 
CC1(C)C(=O)CC2(C)C(=O)C1(C)C(=O)C1C(=O)C3C(=O)c4ccccc4C(=O)C3(O)C(O)C12O

>  <smiles>  (89) 
[H]OC1=C2C(=O)C3=C([O-])c4c([H])c([H])c([H])c([H])c4C(=O)C3(O[H])C([H])(O[H])C2(O[H])C2(C([H])([H])[H])C(=O)C1(C([H])([H])[H])C(C([H])([H])[H])(C([H])([H])[H])C(=O)C2([H])[H]

$$$$
25:0:0
     RDKit          3D

 38 41  0  0  1  0  0  0  0  0999 V2000
    7.3900   -2.2600   -1.1577 O   0  0  0  0  0  0  0  0  0  0  0  0
    6.7950   -2.8988   -0.2917 C   0  0  0  0  0  0  0  0  0  0  0  0
    7.0627   -4.2166    0.0191 O   0  0  0  0  0  0  0  0  0  0  0  0
    6.7123   -4.8569    1.2814 C   0  0  0  0  0  0  0  0  0  0  0  0
    5.1707   -5.0976    1.5988 C   0  0  0  0  0  0  0  0  0  0  0  0
    4.7316   -6.0406    0.6678 O   0  0  0  0  0  0  0  0  0  0  0  0
    3.9738   -6.9836    1.3850 C   0  0  0  0  0  0  0  0  0  0  0  0
    4.7757   -7.0285    2.6721 C   0  0  0  0  0  0  0  0  0  0  0  0
    5.0833   -5.6649    2.8677 O   0  0  0  0  0  0  0  0  0  0  0  0
    4.1748   -3.8742    1.5466 C   0  0  1  0  0  0  0  0  0  0  0  0
    4.2712   -2.8749    2.7679 C   0  0  0  0  0  0  0  0  0  0  0  0
    4.3822   -1.3499    2.3610 C   0  0  0  0  0  0  0  0  0  0  0  0
    5.3644   -1.0560    1.1639 C   0  0  0  0  0  0  0  0  0  0  0  0
    5.6070   -2.4127    0.5006 C   0  0  1  0  0  0  0  0  0  0  0  0
    4.4323   -3.2336    0.2918 N   0  0  0  0  0  0  0  0  0  0  0  0
    3.3012   -2.6360   -0.4144 C   0  0  0  0  0  0  0  0  0  0  0  0
    3.5376   -2.1827   -1.8172 C   0  0  0  0  0  0  0  0  0  0  0  0
    3.2633   -2.8853   -3.0172 C   0  0  0  0  0  0  0  0  0  0  0  0
    3.7085   -2.2080   -4.0490 N   0  0  0  0  0  0  0  0  0  0  0  0
    4.2270   -1.0292   -3.5035 O   0  0  0  0  0  0  0  0  0  0  0  0
    4.1235   -1.0470   -2.1057 N   0  0  0  0  0  0  0  0  0  0  0  0
    7.1971   -5.8313    1.2793 H   0  0  0  0  0  0  0  0  0  0  0  0
    7.1744   -4.2989    2.0935 H   0  0  0  0  0  0  0  0  0  0  0  0
    2.9694   -6.5999    1.5710 H   0  0  0  0  0  0  0  0  0  0  0  0
    3.8982   -7.9409    0.8676 H   0  0  0  0  0  0  0  0  0  0  0  0
    4.2263   -7.4335    3.5201 H   0  0  0  0  0  0  0  0  0  0  0  0
    5.6920   -7.6018    2.5213 H   0  0  0  0  0  0  0  0  0  0  0  0
    3.1689   -4.2832    1.5532 H   0  0  0  0  0  0  0  0  0  0  0  0
    3.3968   -3.0021    3.4044 H   0  0  0  0  0  0  0  0  0  0  0  0
    5.1265   -3.1223    3.3950 H   0  0  0  0  0  0  0  0  0  0  0  0
    3.3894   -0.9882    2.0886 H   0  0  0  0  0  0  0  0  0  0  0  0
    4.6657   -0.7452    3.2237 H   0  0  0  0  0  0  0  0  0  0  0  0
    4.9380   -0.3188    0.4762 H   0  0  0  0  0  0  0  0  0  0  0  0
    6.3095   -0.6497    1.5344 H   0  0  0  0  0  0  0  0  0  0  0  0
    6.0788   -2.7015    1.4294 H   0  0  0  0  0  0  0  0  0  0  0  0
    2.5034   -3.3767   -0.4527 H   0  0  0  0  0  0  0  0  0  0  0  0
    2.8694   -1.8186    0.1588 H   0  0  0  0  0  0  0  0  0  0  0  0
    2.8079   -3.8511   -3.1493 H   0  0  0  0  0  0  0  0  0  0  0  0
  1  2  2  0
  2 14  1  0
  2  3  1  0
  3  4  1  0
  4  5  1  0
  4 22  1  0
  4 23  1  0
  5  9  1  0
  5  6  1  0
  5 10  1  0
  6  7  1  0
  7  8  1  0
  7 24  1  0
  7 25  1  0
  8  9  1  0
  8 26  1  0
  8 27  1  0
 10 15  1  0
 10 11  1  0
 10 28  1  6
 11 12  1  0
 11 29  1  0
 11 30  1  0
 12 13  1  0
 12 31  1  0
 12 32  1  0
 13 14  1  0
 13 33  1  0
 13 34  1  0
 14 15  1  0
 14 35  1  1
 15 16  1  0
 16 17  1  0
 16 36  1  0
 16 37  1  0
 17 21  2  0
 17 18  1  0
 18 19  2  0
 18 38  1  0
 19 20  1  0
 20 21  1  0
M  END
>  <i_m_ct_stereo_status>  (90) 
1

>  <s_m_source_file>  (90) 
/var/tmp/pbs.5076255.sched01/tmp361wbqj1/0nt8_y6ui.sdf

>  <i_m_source_file_index>  (90) 
32

>  <i_lp_mmshare_version>  (90) 
48012

>  <i_f3d_flags>  (90) 
0

>  <s_epik_input>  (90) 
bjFvbltjSF1jMVtDSDJdTjJbQ0BASF0oQyg9TylPW0NIMl0zKVtDSDJdW0NIMl1bQ0gyXVtDQEBIXTJDMzRPW0NIMl1bQ0gyXU80

>  <s_epik_cmdline>  (90) 
J2VwaWtfcHl0aG9uJywgJy1waHQnLCAnMi4wJywgJy1waCcsICc3LjAnLCAnLXRuJywgJzgnLCAnLW1hJywgJzIwMCcsICctaW1hZScsICc8aW5maWxlLm1hZT4nLCAnLW9tYWUnLCAnPG91dGZpbGUubWFlPic=

>  <r_lp_tautomer_probability>  (90) 
1

>  <r_epik_Ionization_Penalty>  (90) 
0.00104289

>  <r_epik_Ionization_Penalty_Charging>  (90) 
0

>  <r_epik_Ionization_Penalty_Neutral>  (90) 
0.00104289

>  <r_epik_State_Penalty>  (90) 
0.000681753

>  <r_epik_Charging_Adjusted_Penalty>  (90) 
0.000681753

>  <i_epik_Tot_Q>  (90) 
0

>  <i_epik_Tot_abs_Q>  (90) 
0

>  <s_epik_Chemistry_Notes>  (90) 
This compound has an ester and may undergo hydrolysis at high or low pH.

>  <s_lp_Force_Field>  (90) 
OPLS3e

>  <r_lp_Energy>  (90) 
64.829

>  <b_lp_Chiralities_Consistent>  (90) 
1

>  <s_lp_Variant>  (90) 
25:0-1

>  <s_i_glide_gridfile>  (90) 
pfpi4k_grid

>  <i_i_glide_lignum>  (90) 
32

>  <i_i_glide_rotatable_bonds>  (90) 
2

>  <r_i_docking_score>  (90) 
-3.94084

>  <r_i_glide_ligand_efficiency>  (90) 
-0.187659

>  <r_i_glide_ligand_efficiency_sa>  (90) 
-0.517738

>  <r_i_glide_ligand_efficiency_ln>  (90) 
-0.974366

>  <r_i_glide_gscore>  (90) 
-3.94084

>  <r_i_glide_lipo>  (90) 
-0.417094

>  <r_i_glide_hbond>  (90) 
-0.16

>  <r_i_glide_metal>  (90) 
-0

>  <r_i_glide_rewards>  (90) 
-1.51248

>  <r_i_glide_evdw>  (90) 
-27.296

>  <r_i_glide_ecoul>  (90) 
-5.85151

>  <r_i_glide_erotb>  (90) 
0.419787

>  <r_i_glide_esite>  (90) 
-0.0285288

>  <r_i_glide_emodel>  (90) 
-41.1454

>  <r_i_glide_energy>  (90) 
-33.1475

>  <r_i_glide_einternal>  (90) 
0.400961

>  <r_i_glide_intrahb_reward>  (90) 
-0

>  <i_i_glide_confnum>  (90) 
2

>  <i_i_glide_posenum>  (90) 
1

>  <r_i_glide_eff_state_penalty>  (90) 
0

>  <ligand_id>  (90) 
25

>  <original_smiles>  (90) 
O=C1OCC2(OCCO2)C2CCCC1N2Cc1cnon1

>  <smiles>  (90) 
[H]c1nonc1C([H])([H])N1C2([H])C(=O)OC([H])([H])C3(OC([H])([H])C([H])([H])O3)C1([H])C([H])([H])C([H])([H])C2([H])[H]

$$$$
25:0:1
     RDKit          3D

 38 41  0  0  1  0  0  0  0  0999 V2000
    7.3556   -2.2544   -1.0884 O   0  0  0  0  0  0  0  0  0  0  0  0
    6.7586   -2.9506   -0.2710 C   0  0  0  0  0  0  0  0  0  0  0  0
    7.1256   -4.2401    0.0862 O   0  0  0  0  0  0  0  0  0  0  0  0
    6.7490   -4.8860    1.3405 C   0  0  0  0  0  0  0  0  0  0  0  0
    5.2261   -5.2893    1.5483 C   0  0  0  0  0  0  0  0  0  0  0  0
    4.9630   -6.2915    0.6138 O   0  0  0  0  0  0  0  0  0  0  0  0
    4.2554   -7.2975    1.2960 C   0  0  0  0  0  0  0  0  0  0  0  0
    4.9478   -7.2262    2.6445 C   0  0  0  0  0  0  0  0  0  0  0  0
    5.0962   -5.8340    2.8230 O   0  0  0  0  0  0  0  0  0  0  0  0
    4.1083   -4.1875    1.3857 C   0  0  1  0  0  0  0  0  0  0  0  0
    3.9862   -3.1547    2.5779 C   0  0  0  0  0  0  0  0  0  0  0  0
    3.9648   -1.6340    2.1335 C   0  0  0  0  0  0  0  0  0  0  0  0
    5.0074   -1.2536    1.0154 C   0  0  0  0  0  0  0  0  0  0  0  0
    5.4561   -2.5886    0.4203 C   0  0  1  0  0  0  0  0  0  0  0  0
    4.3983   -3.5408    0.1453 N   0  0  0  0  0  0  0  0  0  0  0  0
    3.2726   -3.1032   -0.6775 C   0  0  0  0  0  0  0  0  0  0  0  0
    3.6054   -2.6158   -2.0408 C   0  0  0  0  0  0  0  0  0  0  0  0
    3.1897   -1.4307   -2.6904 C   0  0  0  0  0  0  0  0  0  0  0  0
    3.7971   -1.3129   -3.8414 N   0  0  0  0  0  0  0  0  0  0  0  0
    4.6098   -2.4519   -3.9265 O   0  0  0  0  0  0  0  0  0  0  0  0
    4.4475   -3.2685   -2.8050 N   0  0  0  0  0  0  0  0  0  0  0  0
    7.3367   -5.7974    1.4166 H   0  0  0  0  0  0  0  0  0  0  0  0
    7.0693   -4.2619    2.1711 H   0  0  0  0  0  0  0  0  0  0  0  0
    3.2030   -7.0255    1.3873 H   0  0  0  0  0  0  0  0  0  0  0  0
    4.3332   -8.2657    0.7983 H   0  0  0  0  0  0  0  0  0  0  0  0
    4.3747   -7.6711    3.4560 H   0  0  0  0  0  0  0  0  0  0  0  0
    5.9273   -7.7026    2.5862 H   0  0  0  0  0  0  0  0  0  0  0  0
    3.1536   -4.7058    1.3175 H   0  0  0  0  0  0  0  0  0  0  0  0
    3.0773   -3.3665    3.1406 H   0  0  0  0  0  0  0  0  0  0  0  0
    4.8064   -3.2932    3.2834 H   0  0  0  0  0  0  0  0  0  0  0  0
    2.9660   -1.3902    1.7696 H   0  0  0  0  0  0  0  0  0  0  0  0
    4.1044   -0.9871    2.9998 H   0  0  0  0  0  0  0  0  0  0  0  0
    4.5653   -0.5892    0.2680 H   0  0  0  0  0  0  0  0  0  0  0  0
    5.8650   -0.7351    1.4500 H   0  0  0  0  0  0  0  0  0  0  0  0
    5.8770   -2.8082    1.3913 H   0  0  0  0  0  0  0  0  0  0  0  0
    2.5931   -3.9476   -0.7968 H   0  0  0  0  0  0  0  0  0  0  0  0
    2.6788   -2.3496   -0.1646 H   0  0  0  0  0  0  0  0  0  0  0  0
    2.5262   -0.6549   -2.3320 H   0  0  0  0  0  0  0  0  0  0  0  0
  1  2  2  0
  2 14  1  0
  2  3  1  0
  3  4  1  0
  4  5  1  0
  4 22  1  0
  4 23  1  0
  5  9  1  0
  5  6  1  0
  5 10  1  0
  6  7  1  0
  7  8  1  0
  7 24  1  0
  7 25  1  0
  8  9  1  0
  8 26  1  0
  8 27  1  0
 10 15  1  0
 10 11  1  0
 10 28  1  6
 11 12  1  0
 11 29  1  0
 11 30  1  0
 12 13  1  0
 12 31  1  0
 12 32  1  0
 13 14  1  0
 13 33  1  0
 13 34  1  0
 14 15  1  0
 14 35  1  1
 15 16  1  0
 16 17  1  0
 16 36  1  0
 16 37  1  0
 17 21  2  0
 17 18  1  0
 18 19  2  0
 18 38  1  0
 19 20  1  0
 20 21  1  0
M  END
>  <i_m_ct_stereo_status>  (91) 
1

>  <s_m_source_file>  (91) 
/var/tmp/pbs.5076255.sched01/tmp361wbqj1/0nt8_y6ui.sdf

>  <i_m_source_file_index>  (91) 
32

>  <i_lp_mmshare_version>  (91) 
48012

>  <i_f3d_flags>  (91) 
0

>  <s_epik_input>  (91) 
bjFvbltjSF1jMVtDSDJdTjJbQ0BASF0oQyg9TylPW0NIMl0zKVtDSDJdW0NIMl1bQ0gyXVtDQEBIXTJDMzRPW0NIMl1bQ0gyXU80

>  <s_epik_cmdline>  (91) 
J2VwaWtfcHl0aG9uJywgJy1waHQnLCAnMi4wJywgJy1waCcsICc3LjAnLCAnLXRuJywgJzgnLCAnLW1hJywgJzIwMCcsICctaW1hZScsICc8aW5maWxlLm1hZT4nLCAnLW9tYWUnLCAnPG91dGZpbGUubWFlPic=

>  <r_lp_tautomer_probability>  (91) 
1

>  <r_epik_Ionization_Penalty>  (91) 
0.00104289

>  <r_epik_Ionization_Penalty_Charging>  (91) 
0

>  <r_epik_Ionization_Penalty_Neutral>  (91) 
0.00104289

>  <r_epik_State_Penalty>  (91) 
0.000681753

>  <r_epik_Charging_Adjusted_Penalty>  (91) 
0.000681753

>  <i_epik_Tot_Q>  (91) 
0

>  <i_epik_Tot_abs_Q>  (91) 
0

>  <s_epik_Chemistry_Notes>  (91) 
This compound has an ester and may undergo hydrolysis at high or low pH.

>  <s_lp_Force_Field>  (91) 
OPLS3e

>  <r_lp_Energy>  (91) 
64.829

>  <b_lp_Chiralities_Consistent>  (91) 
1

>  <s_lp_Variant>  (91) 
25:0-1

>  <s_i_glide_gridfile>  (91) 
pfpi4k_grid

>  <i_i_glide_lignum>  (91) 
32

>  <i_i_glide_rotatable_bonds>  (91) 
2

>  <r_i_docking_score>  (91) 
-3.67136

>  <r_i_glide_ligand_efficiency>  (91) 
-0.174827

>  <r_i_glide_ligand_efficiency_sa>  (91) 
-0.482333

>  <r_i_glide_ligand_efficiency_ln>  (91) 
-0.907736

>  <r_i_glide_gscore>  (91) 
-3.67136

>  <r_i_glide_lipo>  (91) 
-0.327469

>  <r_i_glide_hbond>  (91) 
-0.16

>  <r_i_glide_metal>  (91) 
-0

>  <r_i_glide_rewards>  (91) 
-1.53343

>  <r_i_glide_evdw>  (91) 
-27.065

>  <r_i_glide_ecoul>  (91) 
-4.7652

>  <r_i_glide_erotb>  (91) 
0.419787

>  <r_i_glide_esite>  (91) 
-0.00221537

>  <r_i_glide_emodel>  (91) 
-39.0475

>  <r_i_glide_energy>  (91) 
-31.8302

>  <r_i_glide_einternal>  (91) 
0.667379

>  <r_i_glide_intrahb_reward>  (91) 
-0

>  <i_i_glide_confnum>  (91) 
2

>  <i_i_glide_posenum>  (91) 
11

>  <r_i_glide_eff_state_penalty>  (91) 
0

>  <ligand_id>  (91) 
25

>  <original_smiles>  (91) 
O=C1OCC2(OCCO2)C2CCCC1N2Cc1cnon1

>  <smiles>  (91) 
[H]c1nonc1C([H])([H])N1C2([H])C(=O)OC([H])([H])C3(OC([H])([H])C([H])([H])O3)C1([H])C([H])([H])C([H])([H])C2([H])[H]

$$$$
25:0:2
     RDKit          3D

 38 41  0  0  1  0  0  0  0  0999 V2000
    7.9832   -1.4345    0.4408 O   0  0  0  0  0  0  0  0  0  0  0  0
    6.9826   -2.0886    0.6858 C   0  0  0  0  0  0  0  0  0  0  0  0
    6.9735   -3.4621    0.8412 O   0  0  0  0  0  0  0  0  0  0  0  0
    5.9716   -4.1887    1.6095 C   0  0  0  0  0  0  0  0  0  0  0  0
    4.5052   -4.2943    0.9868 C   0  0  0  0  0  0  0  0  0  0  0  0
    4.5983   -5.0413   -0.1800 O   0  0  0  0  0  0  0  0  0  0  0  0
    4.6099   -6.3923    0.2157 C   0  0  0  0  0  0  0  0  0  0  0  0
    3.7419   -6.3633    1.4720 C   0  0  0  0  0  0  0  0  0  0  0  0
    3.7087   -5.0048    1.8721 O   0  0  0  0  0  0  0  0  0  0  0  0
    3.7564   -2.9640    0.6130 C   0  0  1  0  0  0  0  0  0  0  0  0
    3.1766   -2.1352    1.8332 C   0  0  0  0  0  0  0  0  0  0  0  0
    3.5547   -0.5976    1.8298 C   0  0  0  0  0  0  0  0  0  0  0  0
    5.0470   -0.2860    1.4433 C   0  0  0  0  0  0  0  0  0  0  0  0
    5.5682   -1.5511    0.7772 C   0  0  1  0  0  0  0  0  0  0  0  0
    4.6815   -2.1866   -0.1677 N   0  0  0  0  0  0  0  0  0  0  0  0
    4.1160   -1.3994   -1.2611 C   0  0  0  0  0  0  0  0  0  0  0  0
    3.7369   -2.1774   -2.4805 C   0  0  0  0  0  0  0  0  0  0  0  0
    2.4897   -2.7685   -2.8093 C   0  0  0  0  0  0  0  0  0  0  0  0
    2.5885   -3.4525   -3.9197 N   0  0  0  0  0  0  0  0  0  0  0  0
    3.9271   -3.3096   -4.3041 O   0  0  0  0  0  0  0  0  0  0  0  0
    4.6189   -2.4899   -3.3996 N   0  0  0  0  0  0  0  0  0  0  0  0
    6.3687   -5.1895    1.7474 H   0  0  0  0  0  0  0  0  0  0  0  0
    5.9026   -3.7865    2.6221 H   0  0  0  0  0  0  0  0  0  0  0  0
    4.2215   -7.0540   -0.5590 H   0  0  0  0  0  0  0  0  0  0  0  0
    5.6338   -6.6955    0.4347 H   0  0  0  0  0  0  0  0  0  0  0  0
    2.7217   -6.6785    1.2592 H   0  0  0  0  0  0  0  0  0  0  0  0
    4.1489   -6.9957    2.2605 H   0  0  0  0  0  0  0  0  0  0  0  0
    2.9086   -3.2560   -0.0071 H   0  0  0  0  0  0  0  0  0  0  0  0
    2.0919   -2.2228    1.8453 H   0  0  0  0  0  0  0  0  0  0  0  0
    3.5199   -2.5667    2.7720 H   0  0  0  0  0  0  0  0  0  0  0  0
    2.9045   -0.0740    1.1272 H   0  0  0  0  0  0  0  0  0  0  0  0
    3.3286   -0.1501    2.7995 H   0  0  0  0  0  0  0  0  0  0  0  0
    5.1037    0.5630    0.7657 H   0  0  0  0  0  0  0  0  0  0  0  0
    5.6378   -0.0528    2.3335 H   0  0  0  0  0  0  0  0  0  0  0  0
    5.4365   -2.0125    1.7460 H   0  0  0  0  0  0  0  0  0  0  0  0
    3.2309   -0.8693   -0.9116 H   0  0  0  0  0  0  0  0  0  0  0  0
    4.8288   -0.6220   -1.5472 H   0  0  0  0  0  0  0  0  0  0  0  0
    1.5631   -2.7435   -2.2483 H   0  0  0  0  0  0  0  0  0  0  0  0
  1  2  2  0
  2 14  1  0
  2  3  1  0
  3  4  1  0
  4  5  1  0
  4 22  1  0
  4 23  1  0
  5  9  1  0
  5  6  1  0
  5 10  1  0
  6  7  1  0
  7  8  1  0
  7 24  1  0
  7 25  1  0
  8  9  1  0
  8 26  1  0
  8 27  1  0
 10 15  1  0
 10 11  1  0
 10 28  1  6
 11 12  1  0
 11 29  1  0
 11 30  1  0
 12 13  1  0
 12 31  1  0
 12 32  1  0
 13 14  1  0
 13 33  1  0
 13 34  1  0
 14 15  1  0
 14 35  1  1
 15 16  1  0
 16 17  1  0
 16 36  1  0
 16 37  1  0
 17 21  2  0
 17 18  1  0
 18 19  2  0
 18 38  1  0
 19 20  1  0
 20 21  1  0
M  END
>  <i_m_ct_stereo_status>  (92) 
1

>  <s_m_source_file>  (92) 
/var/tmp/pbs.5076255.sched01/tmp361wbqj1/0nt8_y6ui.sdf

>  <i_m_source_file_index>  (92) 
32

>  <i_lp_mmshare_version>  (92) 
48012

>  <i_f3d_flags>  (92) 
0

>  <s_epik_input>  (92) 
bjFvbltjSF1jMVtDSDJdTjJbQ0BASF0oQyg9TylPW0NIMl0zKVtDSDJdW0NIMl1bQ0gyXVtDQEBIXTJDMzRPW0NIMl1bQ0gyXU80

>  <s_epik_cmdline>  (92) 
J2VwaWtfcHl0aG9uJywgJy1waHQnLCAnMi4wJywgJy1waCcsICc3LjAnLCAnLXRuJywgJzgnLCAnLW1hJywgJzIwMCcsICctaW1hZScsICc8aW5maWxlLm1hZT4nLCAnLW9tYWUnLCAnPG91dGZpbGUubWFlPic=

>  <r_lp_tautomer_probability>  (92) 
1

>  <r_epik_Ionization_Penalty>  (92) 
0.00104289

>  <r_epik_Ionization_Penalty_Charging>  (92) 
0

>  <r_epik_Ionization_Penalty_Neutral>  (92) 
0.00104289

>  <r_epik_State_Penalty>  (92) 
0.000681753

>  <r_epik_Charging_Adjusted_Penalty>  (92) 
0.000681753

>  <i_epik_Tot_Q>  (92) 
0

>  <i_epik_Tot_abs_Q>  (92) 
0

>  <s_epik_Chemistry_Notes>  (92) 
This compound has an ester and may undergo hydrolysis at high or low pH.

>  <s_lp_Force_Field>  (92) 
OPLS3e

>  <r_lp_Energy>  (92) 
64.829

>  <b_lp_Chiralities_Consistent>  (92) 
1

>  <s_lp_Variant>  (92) 
25:0-1

>  <s_i_glide_gridfile>  (92) 
pfpi4k_grid

>  <i_i_glide_lignum>  (92) 
32

>  <i_i_glide_rotatable_bonds>  (92) 
2

>  <r_i_docking_score>  (92) 
-3.3597

>  <r_i_glide_ligand_efficiency>  (92) 
-0.159986

>  <r_i_glide_ligand_efficiency_sa>  (92) 
-0.441389

>  <r_i_glide_ligand_efficiency_ln>  (92) 
-0.83068

>  <r_i_glide_gscore>  (92) 
-3.3597

>  <r_i_glide_lipo>  (92) 
-0.499475

>  <r_i_glide_hbond>  (92) 
-0.0299282

>  <r_i_glide_metal>  (92) 
-0

>  <r_i_glide_rewards>  (92) 
-1.49

>  <r_i_glide_evdw>  (92) 
-29.0632

>  <r_i_glide_ecoul>  (92) 
-1.81804

>  <r_i_glide_erotb>  (92) 
0.419787

>  <r_i_glide_esite>  (92) 
-0.0342249

>  <r_i_glide_emodel>  (92) 
-36.7365

>  <r_i_glide_energy>  (92) 
-30.8812

>  <r_i_glide_einternal>  (92) 
1.88997

>  <r_i_glide_intrahb_reward>  (92) 
-0

>  <i_i_glide_confnum>  (92) 
4

>  <i_i_glide_posenum>  (92) 
24

>  <r_i_glide_eff_state_penalty>  (92) 
0

>  <ligand_id>  (92) 
25

>  <original_smiles>  (92) 
O=C1OCC2(OCCO2)C2CCCC1N2Cc1cnon1

>  <smiles>  (92) 
[H]c1nonc1C([H])([H])N1C2([H])C(=O)OC([H])([H])C3(OC([H])([H])C([H])([H])O3)C1([H])C([H])([H])C([H])([H])C2([H])[H]

$$$$
25:1:0
     RDKit          3D

 38 41  0  0  1  0  0  0  0  0999 V2000
    1.4598   -1.5225    2.7180 O   0  0  0  0  0  0  0  0  0  0  0  0
    2.4093   -2.0819    2.2060 C   0  0  0  0  0  0  0  0  0  0  0  0
    2.6266   -3.4093    2.4062 O   0  0  0  0  0  0  0  0  0  0  0  0
    3.9028   -4.0163    2.5430 C   0  0  0  0  0  0  0  0  0  0  0  0
    4.5839   -4.3147    1.1936 C   0  0  0  0  0  0  0  0  0  0  0  0
    5.7492   -5.0402    1.4104 O   0  0  0  0  0  0  0  0  0  0  0  0
    5.3488   -6.3880    1.5220 C   0  0  0  0  0  0  0  0  0  0  0  0
    4.1499   -6.4551    0.5820 C   0  0  0  0  0  0  0  0  0  0  0  0
    3.7229   -5.1107    0.4498 O   0  0  0  0  0  0  0  0  0  0  0  0
    4.9285   -3.0668    0.3595 C   0  0  2  0  0  0  0  0  0  0  0  0
    6.1428   -2.2622    0.8820 C   0  0  0  0  0  0  0  0  0  0  0  0
    5.8107   -1.3321    2.0497 C   0  0  0  0  0  0  0  0  0  0  0  0
    4.4890   -0.5580    1.8241 C   0  0  0  0  0  0  0  0  0  0  0  0
    3.3432   -1.3794    1.1742 C   0  0  1  0  0  0  0  0  0  0  0  0
    3.7671   -2.2147    0.0354 N   0  0  0  0  0  0  0  0  0  0  0  0
    3.8961   -1.5003   -1.2401 C   0  0  0  0  0  0  0  0  0  0  0  0
    3.9767   -2.2931   -2.5115 C   0  0  0  0  0  0  0  0  0  0  0  0
    4.9801   -3.2200   -2.9644 C   0  0  0  0  0  0  0  0  0  0  0  0
    4.5767   -3.8259   -4.0312 N   0  0  0  0  0  0  0  0  0  0  0  0
    3.3196   -3.2666   -4.3292 O   0  0  0  0  0  0  0  0  0  0  0  0
    3.0070   -2.2744   -3.3700 N   0  0  0  0  0  0  0  0  0  0  0  0
    4.5714   -3.4710    3.2037 H   0  0  0  0  0  0  0  0  0  0  0  0
    3.6949   -4.9616    3.0452 H   0  0  0  0  0  0  0  0  0  0  0  0
    6.1443   -7.0899    1.2708 H   0  0  0  0  0  0  0  0  0  0  0  0
    5.0542   -6.5738    2.5523 H   0  0  0  0  0  0  0  0  0  0  0  0
    4.4296   -6.8673   -0.3881 H   0  0  0  0  0  0  0  0  0  0  0  0
    3.3397   -7.0567    0.9859 H   0  0  0  0  0  0  0  0  0  0  0  0
    5.3010   -3.5296   -0.5468 H   0  0  0  0  0  0  0  0  0  0  0  0
    6.9821   -2.9058    1.1183 H   0  0  0  0  0  0  0  0  0  0  0  0
    6.4868   -1.6364    0.0652 H   0  0  0  0  0  0  0  0  0  0  0  0
    5.7695   -1.8991    2.9760 H   0  0  0  0  0  0  0  0  0  0  0  0
    6.6328   -0.6284    2.1980 H   0  0  0  0  0  0  0  0  0  0  0  0
    4.1634   -0.1286    2.7761 H   0  0  0  0  0  0  0  0  0  0  0  0
    4.6948    0.2936    1.1679 H   0  0  0  0  0  0  0  0  0  0  0  0
    2.6797   -0.6119    0.7777 H   0  0  0  0  0  0  0  0  0  0  0  0
    3.0231   -0.8476   -1.3271 H   0  0  0  0  0  0  0  0  0  0  0  0
    4.7285   -0.8138   -1.1879 H   0  0  0  0  0  0  0  0  0  0  0  0
    5.8948   -3.5186   -2.4828 H   0  0  0  0  0  0  0  0  0  0  0  0
  1  2  2  0
  2 14  1  0
  2  3  1  0
  3  4  1  0
  4  5  1  0
  4 22  1  0
  4 23  1  0
  5  9  1  0
  5  6  1  0
  5 10  1  0
  6  7  1  0
  7  8  1  0
  7 24  1  0
  7 25  1  0
  8  9  1  0
  8 26  1  0
  8 27  1  0
 10 15  1  0
 10 11  1  0
 10 28  1  6
 11 12  1  0
 11 29  1  0
 11 30  1  0
 12 13  1  0
 12 31  1  0
 12 32  1  0
 13 14  1  0
 13 33  1  0
 13 34  1  0
 14 15  1  0
 14 35  1  6
 15 16  1  0
 16 17  1  0
 16 36  1  0
 16 37  1  0
 17 21  2  0
 17 18  1  0
 18 19  2  0
 18 38  1  0
 19 20  1  0
 20 21  1  0
M  END
>  <i_m_ct_stereo_status>  (93) 
1

>  <s_m_source_file>  (93) 
/var/tmp/pbs.5076255.sched01/tmp361wbqj1/0nt8_y6ui.sdf

>  <i_m_source_file_index>  (93) 
33

>  <i_lp_mmshare_version>  (93) 
48012

>  <i_f3d_flags>  (93) 
0

>  <s_epik_input>  (93) 
bjFvbltjSF1jMVtDSDJdTjJbQ0BASF0oQyg9TylPW0NIMl0zKVtDSDJdW0NIMl1bQ0gyXVtDQEBIXTJDMzRPW0NIMl1bQ0gyXU80

>  <s_epik_cmdline>  (93) 
J2VwaWtfcHl0aG9uJywgJy1waHQnLCAnMi4wJywgJy1waCcsICc3LjAnLCAnLXRuJywgJzgnLCAnLW1hJywgJzIwMCcsICctaW1hZScsICc8aW5maWxlLm1hZT4nLCAnLW9tYWUnLCAnPG91dGZpbGUubWFlPic=

>  <r_lp_tautomer_probability>  (93) 
1

>  <r_epik_Ionization_Penalty>  (93) 
0.00104289

>  <r_epik_Ionization_Penalty_Charging>  (93) 
0

>  <r_epik_Ionization_Penalty_Neutral>  (93) 
0.00104289

>  <r_epik_State_Penalty>  (93) 
0.000681753

>  <r_epik_Charging_Adjusted_Penalty>  (93) 
0.000681753

>  <i_epik_Tot_Q>  (93) 
0

>  <i_epik_Tot_abs_Q>  (93) 
0

>  <s_epik_Chemistry_Notes>  (93) 
This compound has an ester and may undergo hydrolysis at high or low pH.

>  <s_lp_Force_Field>  (93) 
OPLS3e

>  <r_lp_Energy>  (93) 
25.0785

>  <b_lp_Chiralities_Consistent>  (93) 
1

>  <s_lp_Variant>  (93) 
25:0-2

>  <s_i_glide_gridfile>  (93) 
pfpi4k_grid

>  <i_i_glide_lignum>  (93) 
33

>  <i_i_glide_rotatable_bonds>  (93) 
2

>  <r_i_docking_score>  (93) 
-3.13272

>  <r_i_glide_ligand_efficiency>  (93) 
-0.149177

>  <r_i_glide_ligand_efficiency_sa>  (93) 
-0.411569

>  <r_i_glide_ligand_efficiency_ln>  (93) 
-0.774559

>  <r_i_glide_gscore>  (93) 
-3.13272

>  <r_i_glide_lipo>  (93) 
-0.826281

>  <r_i_glide_hbond>  (93) 
0

>  <r_i_glide_metal>  (93) 
-0

>  <r_i_glide_rewards>  (93) 
-1.43299

>  <r_i_glide_evdw>  (93) 
-28.8714

>  <r_i_glide_ecoul>  (93) 
1.41818

>  <r_i_glide_erotb>  (93) 
0.419787

>  <r_i_glide_esite>  (93) 
-0.0623903

>  <r_i_glide_emodel>  (93) 
-32.5074

>  <r_i_glide_energy>  (93) 
-27.4533

>  <r_i_glide_einternal>  (93) 
0.453421

>  <r_i_glide_intrahb_reward>  (93) 
-0

>  <i_i_glide_confnum>  (93) 
4

>  <i_i_glide_posenum>  (93) 
12

>  <r_i_glide_eff_state_penalty>  (93) 
0

>  <ligand_id>  (93) 
25

>  <original_smiles>  (93) 
O=C1OCC2(OCCO2)C2CCCC1N2Cc1cnon1

>  <smiles>  (93) 
[H]c1nonc1C([H])([H])N1C2([H])C(=O)OC([H])([H])C3(OC([H])([H])C([H])([H])O3)C1([H])C([H])([H])C([H])([H])C2([H])[H]

$$$$
25:1:1
     RDKit          3D

 38 41  0  0  1  0  0  0  0  0999 V2000
    1.1978   -1.4003    2.8199 O   0  0  0  0  0  0  0  0  0  0  0  0
    2.2037   -1.9484    2.3785 C   0  0  0  0  0  0  0  0  0  0  0  0
    2.4399   -3.2634    2.6173 O   0  0  0  0  0  0  0  0  0  0  0  0
    3.7290   -3.8281    2.8350 C   0  0  0  0  0  0  0  0  0  0  0  0
    4.5203   -4.0845    1.5471 C   0  0  0  0  0  0  0  0  0  0  0  0
    5.6964   -4.7480    1.8950 O   0  0  0  0  0  0  0  0  0  0  0  0
    5.8486   -5.8016    0.9722 C   0  0  0  0  0  0  0  0  0  0  0  0
    4.3985   -6.1818    0.7283 C   0  0  0  0  0  0  0  0  0  0  0  0
    3.7631   -4.9221    0.7292 O   0  0  0  0  0  0  0  0  0  0  0  0
    4.8749   -2.8205    0.7377 C   0  0  2  0  0  0  0  0  0  0  0  0
    6.0119   -1.9720    1.3537 C   0  0  0  0  0  0  0  0  0  0  0  0
    5.5459   -1.0525    2.4885 C   0  0  0  0  0  0  0  0  0  0  0  0
    4.2267   -0.3323    2.1488 C   0  0  0  0  0  0  0  0  0  0  0  0
    3.1722   -1.2048    1.4220 C   0  0  1  0  0  0  0  0  0  0  0  0
    3.7099   -2.0276    0.3271 N   0  0  0  0  0  0  0  0  0  0  0  0
    3.9115   -1.3057   -0.9351 C   0  0  0  0  0  0  0  0  0  0  0  0
    4.1467   -2.1175   -2.1670 C   0  0  0  0  0  0  0  0  0  0  0  0
    3.1774   -2.6238   -3.0716 C   0  0  0  0  0  0  0  0  0  0  0  0
    3.7383   -3.4461   -3.9211 N   0  0  0  0  0  0  0  0  0  0  0  0
    5.0940   -3.4461   -3.5785 O   0  0  0  0  0  0  0  0  0  0  0  0
    5.3312   -2.5606   -2.5193 N   0  0  0  0  0  0  0  0  0  0  0  0
    4.3111   -3.2509    3.5456 H   0  0  0  0  0  0  0  0  0  0  0  0
    3.5716   -4.7995    3.2999 H   0  0  0  0  0  0  0  0  0  0  0  0
    6.3154   -5.4412    0.0546 H   0  0  0  0  0  0  0  0  0  0  0  0
    6.4520   -6.6149    1.3766 H   0  0  0  0  0  0  0  0  0  0  0  0
    4.2432   -6.7338   -0.2005 H   0  0  0  0  0  0  0  0  0  0  0  0
    4.0128   -6.7706    1.5605 H   0  0  0  0  0  0  0  0  0  0  0  0
    5.3264   -3.2599   -0.1434 H   0  0  0  0  0  0  0  0  0  0  0  0
    6.8465   -2.5908    1.6701 H   0  0  0  0  0  0  0  0  0  0  0  0
    6.4165   -1.3380    0.5654 H   0  0  0  0  0  0  0  0  0  0  0  0
    5.4485   -1.6170    3.4128 H   0  0  0  0  0  0  0  0  0  0  0  0
    6.3224   -0.3130    2.6976 H   0  0  0  0  0  0  0  0  0  0  0  0
    3.8109    0.0915    3.0653 H   0  0  0  0  0  0  0  0  0  0  0  0
    4.4531    0.5214    1.5072 H   0  0  0  0  0  0  0  0  0  0  0  0
    2.5173   -0.4658    0.9613 H   0  0  0  0  0  0  0  0  0  0  0  0
    3.0210   -0.7162   -1.1304 H   0  0  0  0  0  0  0  0  0  0  0  0
    4.7105   -0.5767   -0.8137 H   0  0  0  0  0  0  0  0  0  0  0  0
    2.1109   -2.4720   -3.0748 H   0  0  0  0  0  0  0  0  0  0  0  0
  1  2  2  0
  2 14  1  0
  2  3  1  0
  3  4  1  0
  4  5  1  0
  4 22  1  0
  4 23  1  0
  5  9  1  0
  5  6  1  0
  5 10  1  0
  6  7  1  0
  7  8  1  0
  7 24  1  0
  7 25  1  0
  8  9  1  0
  8 26  1  0
  8 27  1  0
 10 15  1  0
 10 11  1  0
 10 28  1  6
 11 12  1  0
 11 29  1  0
 11 30  1  0
 12 13  1  0
 12 31  1  0
 12 32  1  0
 13 14  1  0
 13 33  1  0
 13 34  1  0
 14 15  1  0
 14 35  1  6
 15 16  1  0
 16 17  1  0
 16 36  1  0
 16 37  1  0
 17 21  2  0
 17 18  1  0
 18 19  2  0
 18 38  1  0
 19 20  1  0
 20 21  1  0
M  END
>  <i_m_ct_stereo_status>  (94) 
1

>  <s_m_source_file>  (94) 
/var/tmp/pbs.5076255.sched01/tmp361wbqj1/0nt8_y6ui.sdf

>  <i_m_source_file_index>  (94) 
33

>  <i_lp_mmshare_version>  (94) 
48012

>  <i_f3d_flags>  (94) 
0

>  <s_epik_input>  (94) 
bjFvbltjSF1jMVtDSDJdTjJbQ0BASF0oQyg9TylPW0NIMl0zKVtDSDJdW0NIMl1bQ0gyXVtDQEBIXTJDMzRPW0NIMl1bQ0gyXU80

>  <s_epik_cmdline>  (94) 
J2VwaWtfcHl0aG9uJywgJy1waHQnLCAnMi4wJywgJy1waCcsICc3LjAnLCAnLXRuJywgJzgnLCAnLW1hJywgJzIwMCcsICctaW1hZScsICc8aW5maWxlLm1hZT4nLCAnLW9tYWUnLCAnPG91dGZpbGUubWFlPic=

>  <r_lp_tautomer_probability>  (94) 
1

>  <r_epik_Ionization_Penalty>  (94) 
0.00104289

>  <r_epik_Ionization_Penalty_Charging>  (94) 
0

>  <r_epik_Ionization_Penalty_Neutral>  (94) 
0.00104289

>  <r_epik_State_Penalty>  (94) 
0.000681753

>  <r_epik_Charging_Adjusted_Penalty>  (94) 
0.000681753

>  <i_epik_Tot_Q>  (94) 
0

>  <i_epik_Tot_abs_Q>  (94) 
0

>  <s_epik_Chemistry_Notes>  (94) 
This compound has an ester and may undergo hydrolysis at high or low pH.

>  <s_lp_Force_Field>  (94) 
OPLS3e

>  <r_lp_Energy>  (94) 
25.0785

>  <b_lp_Chiralities_Consistent>  (94) 
1

>  <s_lp_Variant>  (94) 
25:0-2

>  <s_i_glide_gridfile>  (94) 
pfpi4k_grid

>  <i_i_glide_lignum>  (94) 
33

>  <i_i_glide_rotatable_bonds>  (94) 
2

>  <r_i_docking_score>  (94) 
-3.00603

>  <r_i_glide_ligand_efficiency>  (94) 
-0.143144

>  <r_i_glide_ligand_efficiency_sa>  (94) 
-0.394924

>  <r_i_glide_ligand_efficiency_ln>  (94) 
-0.743235

>  <r_i_glide_gscore>  (94) 
-3.00603

>  <r_i_glide_lipo>  (94) 
-0.594742

>  <r_i_glide_hbond>  (94) 
0

>  <r_i_glide_metal>  (94) 
-0

>  <r_i_glide_rewards>  (94) 
-1.42456

>  <r_i_glide_evdw>  (94) 
-28.0402

>  <r_i_glide_ecoul>  (94) 
0.0708152

>  <r_i_glide_erotb>  (94) 
0.419787

>  <r_i_glide_esite>  (94) 
-0.015127

>  <r_i_glide_emodel>  (94) 
-33.0495

>  <r_i_glide_energy>  (94) 
-27.9694

>  <r_i_glide_einternal>  (94) 
0.404405

>  <r_i_glide_intrahb_reward>  (94) 
-0

>  <i_i_glide_confnum>  (94) 
3

>  <i_i_glide_posenum>  (94) 
40

>  <r_i_glide_eff_state_penalty>  (94) 
0

>  <ligand_id>  (94) 
25

>  <original_smiles>  (94) 
O=C1OCC2(OCCO2)C2CCCC1N2Cc1cnon1

>  <smiles>  (94) 
[H]c1nonc1C([H])([H])N1C2([H])C(=O)OC([H])([H])C3(OC([H])([H])C([H])([H])O3)C1([H])C([H])([H])C([H])([H])C2([H])[H]

$$$$
25:1:2
     RDKit          3D

 38 41  0  0  1  0  0  0  0  0999 V2000
    4.5162   -1.8207   -3.4164 O   0  0  0  0  0  0  0  0  0  0  0  0
    4.5702   -1.9574   -2.1969 C   0  0  0  0  0  0  0  0  0  0  0  0
    3.8871   -1.1463   -1.3768 O   0  0  0  0  0  0  0  0  0  0  0  0
    4.3366   -0.7260   -0.0977 C   0  0  0  0  0  0  0  0  0  0  0  0
    4.1164   -1.7542    1.0421 C   0  0  0  0  0  0  0  0  0  0  0  0
    4.4489   -1.1643    2.2631 O   0  0  0  0  0  0  0  0  0  0  0  0
    3.3142   -0.4157    2.6506 C   0  0  0  0  0  0  0  0  0  0  0  0
    2.1688   -1.2621    2.0997 C   0  0  0  0  0  0  0  0  0  0  0  0
    2.7644   -2.0737    1.1012 O   0  0  0  0  0  0  0  0  0  0  0  0
    4.9159   -3.0625    0.8645 C   0  0  2  0  0  0  0  0  0  0  0  0
    6.4281   -2.9049    1.1660 C   0  0  0  0  0  0  0  0  0  0  0  0
    7.2350   -2.2973    0.0075 C   0  0  0  0  0  0  0  0  0  0  0  0
    6.8409   -2.8849   -1.3602 C   0  0  0  0  0  0  0  0  0  0  0  0
    5.3271   -3.1392   -1.5609 C   0  0  1  0  0  0  0  0  0  0  0  0
    4.6570   -3.7503   -0.4078 N   0  0  0  0  0  0  0  0  0  0  0  0
    4.7708   -5.2027   -0.3132 C   0  0  0  0  0  0  0  0  0  0  0  0
    3.7155   -5.9060    0.4833 C   0  0  0  0  0  0  0  0  0  0  0  0
    3.8321   -7.0369    1.3336 C   0  0  0  0  0  0  0  0  0  0  0  0
    2.6775   -7.3270    1.8771 N   0  0  0  0  0  0  0  0  0  0  0  0
    1.7909   -6.3759    1.3595 O   0  0  0  0  0  0  0  0  0  0  0  0
    2.4684   -5.5022    0.4960 N   0  0  0  0  0  0  0  0  0  0  0  0
    5.3540   -0.3580   -0.1041 H   0  0  0  0  0  0  0  0  0  0  0  0
    3.7299    0.1420    0.1175 H   0  0  0  0  0  0  0  0  0  0  0  0
    3.2650   -0.2700    3.7289 H   0  0  0  0  0  0  0  0  0  0  0  0
    3.3405    0.5680    2.1807 H   0  0  0  0  0  0  0  0  0  0  0  0
    1.7421   -1.9012    2.8719 H   0  0  0  0  0  0  0  0  0  0  0  0
    1.3671   -0.6574    1.6800 H   0  0  0  0  0  0  0  0  0  0  0  0
    4.5414   -3.7006    1.6690 H   0  0  0  0  0  0  0  0  0  0  0  0
    6.5998   -2.3382    2.0774 H   0  0  0  0  0  0  0  0  0  0  0  0
    6.8395   -3.8935    1.3639 H   0  0  0  0  0  0  0  0  0  0  0  0
    7.1268   -1.2156    0.0084 H   0  0  0  0  0  0  0  0  0  0  0  0
    8.3021   -2.4709    0.1782 H   0  0  0  0  0  0  0  0  0  0  0  0
    7.2438   -2.2779   -2.1722 H   0  0  0  0  0  0  0  0  0  0  0  0
    7.3485   -3.8448   -1.4564 H   0  0  0  0  0  0  0  0  0  0  0  0
    5.3006   -3.8792   -2.3646 H   0  0  0  0  0  0  0  0  0  0  0  0
    4.7613   -5.6310   -1.3113 H   0  0  0  0  0  0  0  0  0  0  0  0
    5.7456   -5.4670    0.0848 H   0  0  0  0  0  0  0  0  0  0  0  0
    4.7075   -7.6145    1.5768 H   0  0  0  0  0  0  0  0  0  0  0  0
  1  2  2  0
  2 14  1  0
  2  3  1  0
  3  4  1  0
  4  5  1  0
  4 22  1  0
  4 23  1  0
  5  9  1  0
  5  6  1  0
  5 10  1  0
  6  7  1  0
  7  8  1  0
  7 24  1  0
  7 25  1  0
  8  9  1  0
  8 26  1  0
  8 27  1  0
 10 15  1  0
 10 11  1  0
 10 28  1  1
 11 12  1  0
 11 29  1  0
 11 30  1  0
 12 13  1  0
 12 31  1  0
 12 32  1  0
 13 14  1  0
 13 33  1  0
 13 34  1  0
 14 15  1  0
 14 35  1  6
 15 16  1  0
 16 17  1  0
 16 36  1  0
 16 37  1  0
 17 21  2  0
 17 18  1  0
 18 19  2  0
 18 38  1  0
 19 20  1  0
 20 21  1  0
M  END
>  <i_m_ct_stereo_status>  (95) 
1

>  <s_m_source_file>  (95) 
/var/tmp/pbs.5076255.sched01/tmp361wbqj1/0nt8_y6ui.sdf

>  <i_m_source_file_index>  (95) 
33

>  <i_lp_mmshare_version>  (95) 
48012

>  <i_f3d_flags>  (95) 
0

>  <s_epik_input>  (95) 
bjFvbltjSF1jMVtDSDJdTjJbQ0BASF0oQyg9TylPW0NIMl0zKVtDSDJdW0NIMl1bQ0gyXVtDQEBIXTJDMzRPW0NIMl1bQ0gyXU80

>  <s_epik_cmdline>  (95) 
J2VwaWtfcHl0aG9uJywgJy1waHQnLCAnMi4wJywgJy1waCcsICc3LjAnLCAnLXRuJywgJzgnLCAnLW1hJywgJzIwMCcsICctaW1hZScsICc8aW5maWxlLm1hZT4nLCAnLW9tYWUnLCAnPG91dGZpbGUubWFlPic=

>  <r_lp_tautomer_probability>  (95) 
1

>  <r_epik_Ionization_Penalty>  (95) 
0.00104289

>  <r_epik_Ionization_Penalty_Charging>  (95) 
0

>  <r_epik_Ionization_Penalty_Neutral>  (95) 
0.00104289

>  <r_epik_State_Penalty>  (95) 
0.000681753

>  <r_epik_Charging_Adjusted_Penalty>  (95) 
0.000681753

>  <i_epik_Tot_Q>  (95) 
0

>  <i_epik_Tot_abs_Q>  (95) 
0

>  <s_epik_Chemistry_Notes>  (95) 
This compound has an ester and may undergo hydrolysis at high or low pH.

>  <s_lp_Force_Field>  (95) 
OPLS3e

>  <r_lp_Energy>  (95) 
25.0785

>  <b_lp_Chiralities_Consistent>  (95) 
1

>  <s_lp_Variant>  (95) 
25:0-2

>  <s_i_glide_gridfile>  (95) 
pfpi4k_grid

>  <i_i_glide_lignum>  (95) 
33

>  <i_i_glide_rotatable_bonds>  (95) 
2

>  <r_i_docking_score>  (95) 
-2.89642

>  <r_i_glide_ligand_efficiency>  (95) 
-0.137925

>  <r_i_glide_ligand_efficiency_sa>  (95) 
-0.380525

>  <r_i_glide_ligand_efficiency_ln>  (95) 
-0.716135

>  <r_i_glide_gscore>  (95) 
-2.89642

>  <r_i_glide_lipo>  (95) 
-0.295781

>  <r_i_glide_hbond>  (95) 
0

>  <r_i_glide_metal>  (95) 
-0

>  <r_i_glide_rewards>  (95) 
-1.39574

>  <r_i_glide_evdw>  (95) 
-27.5267

>  <r_i_glide_ecoul>  (95) 
-0.941055

>  <r_i_glide_erotb>  (95) 
0.419787

>  <r_i_glide_esite>  (95) 
-0.107195

>  <r_i_glide_emodel>  (95) 
-33.0784

>  <r_i_glide_energy>  (95) 
-28.4678

>  <r_i_glide_einternal>  (95) 
1.06064

>  <r_i_glide_intrahb_reward>  (95) 
-0

>  <i_i_glide_confnum>  (95) 
4

>  <i_i_glide_posenum>  (95) 
10

>  <r_i_glide_eff_state_penalty>  (95) 
0

>  <ligand_id>  (95) 
25

>  <original_smiles>  (95) 
O=C1OCC2(OCCO2)C2CCCC1N2Cc1cnon1

>  <smiles>  (95) 
[H]c1nonc1C([H])([H])N1C2([H])C(=O)OC([H])([H])C3(OC([H])([H])C([H])([H])O3)C1([H])C([H])([H])C([H])([H])C2([H])[H]

$$$$
26:0:0
     RDKit          3D

 39 42  0  0  1  0  0  0  0  0999 V2000
    6.3546   -3.0105   -1.9324 C   0  0  0  0  0  0  0  0  0  0  0  0
    5.7136   -2.3098   -0.8325 N   0  0  0  0  0  0  0  0  0  0  0  0
    6.4122   -2.2388    0.3292 N   0  0  0  0  0  0  0  0  0  0  0  0
    5.6462   -1.5402    1.1534 C   0  0  0  0  0  0  0  0  0  0  0  0
    4.4388   -1.1377    0.5134 C   0  0  0  0  0  0  0  0  0  0  0  0
    3.3711   -0.3790    1.0681 N   0  0  0  0  0  0  0  0  0  0  0  0
    3.3133    0.2196    2.2709 C   0  0  0  0  0  0  0  0  0  0  0  0
    4.2160    0.1968    3.1024 O   0  0  0  0  0  0  0  0  0  0  0  0
    2.0281    0.9211    2.4914 C   0  0  0  0  0  0  0  0  0  0  0  0
    0.7478    0.5461    2.0469 C   0  0  0  0  0  0  0  0  0  0  0  0
   -0.2143    1.3281    2.4594 N   0  0  0  0  0  0  0  0  0  0  0  0
    0.4417    2.2946    3.1610 N   0  0  0  0  0  0  0  0  0  0  0  0
   -0.1561    3.3641    3.7500 C   0  0  0  0  0  0  0  0  0  0  0  0
    0.6430    4.2195    4.4585 C   0  0  0  0  0  0  0  0  0  0  0  0
    2.0307    3.9570    4.5267 C   0  0  0  0  0  0  0  0  0  0  0  0
    2.6131    2.9156    3.9344 N   0  0  0  0  0  0  0  0  0  0  0  0
    1.8396    2.0691    3.2345 C   0  0  0  0  0  0  0  0  0  0  0  0
    4.4837   -1.6538   -0.7546 C   0  0  0  0  0  0  0  0  0  0  0  0
    3.5117   -1.6075   -1.9084 C   0  0  2  0  0  0  0  0  0  0  0  0
    2.8778   -2.9496   -2.3398 C   0  0  0  0  0  0  0  0  0  0  0  0
    2.8600   -2.8818   -3.8623 C   0  0  0  0  0  0  0  0  0  0  0  0
    3.3978   -1.4849   -4.1779 C   0  0  0  0  0  0  0  0  0  0  0  0
    4.2200   -1.1766   -3.0707 O   0  0  0  0  0  0  0  0  0  0  0  0
    5.6319   -3.5317   -2.5641 H   0  0  0  0  0  0  0  0  0  0  0  0
    7.0656   -3.7469   -1.5469 H   0  0  0  0  0  0  0  0  0  0  0  0
    6.8909   -2.2898   -2.5524 H   0  0  0  0  0  0  0  0  0  0  0  0
    5.9971   -1.3862    2.1576 H   0  0  0  0  0  0  0  0  0  0  0  0
    2.5317   -0.2789    0.5101 H   0  0  0  0  0  0  0  0  0  0  0  0
    0.4951   -0.3030    1.4392 H   0  0  0  0  0  0  0  0  0  0  0  0
   -1.2221    3.4592    3.6038 H   0  0  0  0  0  0  0  0  0  0  0  0
    0.2048    5.0902    4.9412 H   0  0  0  0  0  0  0  0  0  0  0  0
    2.6703    4.6481    5.0771 H   0  0  0  0  0  0  0  0  0  0  0  0
    2.7174   -0.8805   -1.7464 H   0  0  0  0  0  0  0  0  0  0  0  0
    3.4883   -3.8125   -2.0609 H   0  0  0  0  0  0  0  0  0  0  0  0
    1.8957   -3.1130   -1.8910 H   0  0  0  0  0  0  0  0  0  0  0  0
    3.5160   -3.6405   -4.2914 H   0  0  0  0  0  0  0  0  0  0  0  0
    1.8606   -3.0328   -4.2760 H   0  0  0  0  0  0  0  0  0  0  0  0
    3.9709   -1.4354   -5.1006 H   0  0  0  0  0  0  0  0  0  0  0  0
    2.5850   -0.7622   -4.2512 H   0  0  0  0  0  0  0  0  0  0  0  0
  1  2  1  0
  1 24  1  0
  1 25  1  0
  1 26  1  0
  2 18  1  0
  2  3  1  0
  3  4  2  0
  4  5  1  0
  4 27  1  0
  5  6  1  0
  5 18  2  0
  6  7  1  0
  6 28  1  0
  7  8  2  0
  7  9  1  0
  9 17  2  0
  9 10  1  0
 10 11  2  0
 10 29  1  0
 11 12  1  0
 12 17  1  0
 12 13  1  0
 13 14  2  0
 13 30  1  0
 14 15  1  0
 14 31  1  0
 15 16  2  0
 15 32  1  0
 16 17  1  0
 18 19  1  0
 19 23  1  0
 19 20  1  0
 19 33  1  1
 20 21  1  0
 20 34  1  0
 20 35  1  0
 21 22  1  0
 21 36  1  0
 21 37  1  0
 22 23  1  0
 22 38  1  0
 22 39  1  0
M  END
>  <i_m_ct_stereo_status>  (96) 
1

>  <s_m_source_file>  (96) 
/var/tmp/pbs.5076255.sched01/tmp361wbqj1/0nt8_y6ui.sdf

>  <i_m_source_file_index>  (96) 
34

>  <i_lp_mmshare_version>  (96) 
48012

>  <i_f3d_flags>  (96) 
0

>  <s_epik_input>  (96) 
TzFbQ0gyXVtDSDJdW0NIMl1bQ0BIXTFjMmMoW2NIXW5uMltDSDNdKVtOSF1DKD1PKWMoW2NIXW4zKWMobjM0KW5bY0hdW2NIXVtjSF00

>  <s_epik_cmdline>  (96) 
J2VwaWtfcHl0aG9uJywgJy1waHQnLCAnMi4wJywgJy1waCcsICc3LjAnLCAnLXRuJywgJzgnLCAnLW1hJywgJzIwMCcsICctaW1hZScsICc8aW5maWxlLm1hZT4nLCAnLW9tYWUnLCAnPG91dGZpbGUubWFlPic=

>  <r_lp_tautomer_probability>  (96) 
1

>  <r_epik_Ionization_Penalty>  (96) 
6.61297e-05

>  <r_epik_Ionization_Penalty_Charging>  (96) 
0

>  <r_epik_Ionization_Penalty_Neutral>  (96) 
6.61297e-05

>  <r_epik_State_Penalty>  (96) 
-0

>  <r_epik_Charging_Adjusted_Penalty>  (96) 
0

>  <i_epik_Tot_Q>  (96) 
0

>  <i_epik_Tot_abs_Q>  (96) 
0

>  <s_lp_Force_Field>  (96) 
OPLS3e

>  <r_lp_Energy>  (96) 
20.3176

>  <b_lp_Chiralities_Consistent>  (96) 
1

>  <s_lp_Variant>  (96) 
26:0-1

>  <s_i_glide_gridfile>  (96) 
pfpi4k_grid

>  <i_i_glide_lignum>  (96) 
34

>  <i_i_glide_rotatable_bonds>  (96) 
4

>  <r_i_docking_score>  (96) 
-3.08851

>  <r_i_glide_ligand_efficiency>  (96) 
-0.134283

>  <r_i_glide_ligand_efficiency_sa>  (96) 
-0.381883

>  <r_i_glide_ligand_efficiency_ln>  (96) 
-0.74683

>  <r_i_glide_gscore>  (96) 
-3.08851

>  <r_i_glide_lipo>  (96) 
-0.345336

>  <r_i_glide_hbond>  (96) 
-0.0395146

>  <r_i_glide_metal>  (96) 
-0

>  <r_i_glide_rewards>  (96) 
-1.3342

>  <r_i_glide_evdw>  (96) 
-32.5684

>  <r_i_glide_ecoul>  (96) 
-2.38817

>  <r_i_glide_erotb>  (96) 
0.760985

>  <r_i_glide_esite>  (96) 
-0.143802

>  <r_i_glide_emodel>  (96) 
-41.2596

>  <r_i_glide_energy>  (96) 
-34.9566

>  <r_i_glide_einternal>  (96) 
0.846963

>  <r_i_glide_intrahb_reward>  (96) 
-0

>  <i_i_glide_confnum>  (96) 
6

>  <i_i_glide_posenum>  (96) 
10

>  <r_i_glide_eff_state_penalty>  (96) 
0

>  <ligand_id>  (96) 
26

>  <original_smiles>  (96) 
Cn1ncc(NC(=O)c2cnn3cccnc23)c1C1CCCO1

>  <smiles>  (96) 
[H]c1nc2c(C(=O)N([H])c3c([H])nn(C([H])([H])[H])c3C3([H])OC([H])([H])C([H])([H])C3([H])[H])c([H])nn2c([H])c1[H]

$$$$
26:0:1
     RDKit          3D

 39 42  0  0  1  0  0  0  0  0999 V2000
    6.3216   -2.6956   -1.7937 C   0  0  0  0  0  0  0  0  0  0  0  0
    5.5840   -2.0992   -0.6981 N   0  0  0  0  0  0  0  0  0  0  0  0
    6.2094   -2.0520    0.5029 N   0  0  0  0  0  0  0  0  0  0  0  0
    5.3469   -1.4574    1.3119 C   0  0  0  0  0  0  0  0  0  0  0  0
    4.1481   -1.1128    0.6278 C   0  0  0  0  0  0  0  0  0  0  0  0
    2.9781   -0.5215    1.1821 N   0  0  0  0  0  0  0  0  0  0  0  0
    2.8226    0.0367    2.3992 C   0  0  0  0  0  0  0  0  0  0  0  0
    3.7021    0.1044    3.2510 O   0  0  0  0  0  0  0  0  0  0  0  0
    1.4448    0.5432    2.6233 C   0  0  0  0  0  0  0  0  0  0  0  0
    0.5063    0.9753    1.6714 C   0  0  0  0  0  0  0  0  0  0  0  0
   -0.6456    1.3386    2.1673 N   0  0  0  0  0  0  0  0  0  0  0  0
   -0.4635    1.2109    3.5009 N   0  0  0  0  0  0  0  0  0  0  0  0
   -1.4040    1.5134    4.4280 C   0  0  0  0  0  0  0  0  0  0  0  0
   -1.0727    1.3107    5.7391 C   0  0  0  0  0  0  0  0  0  0  0  0
    0.2154    0.8079    6.0454 C   0  0  0  0  0  0  0  0  0  0  0  0
    1.1351    0.5144    5.1319 N   0  0  0  0  0  0  0  0  0  0  0  0
    0.8226    0.7150    3.8427 C   0  0  0  0  0  0  0  0  0  0  0  0
    4.3112   -1.5262   -0.6708 C   0  0  0  0  0  0  0  0  0  0  0  0
    3.4092   -1.4831   -1.8861 C   0  0  2  0  0  0  0  0  0  0  0  0
    2.7806   -2.8240   -2.3168 C   0  0  0  0  0  0  0  0  0  0  0  0
    2.8156   -2.7920   -3.8397 C   0  0  0  0  0  0  0  0  0  0  0  0
    3.4081   -1.4215   -4.1651 C   0  0  0  0  0  0  0  0  0  0  0  0
    4.1803   -1.0976   -3.0235 O   0  0  0  0  0  0  0  0  0  0  0  0
    5.6525   -3.2218   -2.4807 H   0  0  0  0  0  0  0  0  0  0  0  0
    7.0749   -3.4008   -1.4286 H   0  0  0  0  0  0  0  0  0  0  0  0
    6.8260   -1.8959   -2.3205 H   0  0  0  0  0  0  0  0  0  0  0  0
    5.6142   -1.3432    2.3470 H   0  0  0  0  0  0  0  0  0  0  0  0
    2.1499   -0.5110    0.5914 H   0  0  0  0  0  0  0  0  0  0  0  0
    0.6220    0.9834    0.6047 H   0  0  0  0  0  0  0  0  0  0  0  0
   -2.3478    1.8893    4.0556 H   0  0  0  0  0  0  0  0  0  0  0  0
   -1.8001    1.5584    6.5068 H   0  0  0  0  0  0  0  0  0  0  0  0
    0.4851    0.6525    7.0884 H   0  0  0  0  0  0  0  0  0  0  0  0
    2.6186   -0.7392   -1.7861 H   0  0  0  0  0  0  0  0  0  0  0  0
    3.3847   -3.6753   -1.9962 H   0  0  0  0  0  0  0  0  0  0  0  0
    1.7791   -2.9686   -1.9034 H   0  0  0  0  0  0  0  0  0  0  0  0
    3.4547   -3.5868   -4.2285 H   0  0  0  0  0  0  0  0  0  0  0  0
    1.8261   -2.9172   -4.2822 H   0  0  0  0  0  0  0  0  0  0  0  0
    4.0170   -1.4201   -5.0682 H   0  0  0  0  0  0  0  0  0  0  0  0
    2.6183   -0.6816   -4.2952 H   0  0  0  0  0  0  0  0  0  0  0  0
  1  2  1  0
  1 24  1  0
  1 25  1  0
  1 26  1  0
  2 18  1  0
  2  3  1  0
  3  4  2  0
  4  5  1  0
  4 27  1  0
  5  6  1  0
  5 18  2  0
  6  7  1  0
  6 28  1  0
  7  8  2  0
  7  9  1  0
  9 17  2  0
  9 10  1  0
 10 11  2  0
 10 29  1  0
 11 12  1  0
 12 17  1  0
 12 13  1  0
 13 14  2  0
 13 30  1  0
 14 15  1  0
 14 31  1  0
 15 16  2  0
 15 32  1  0
 16 17  1  0
 18 19  1  0
 19 23  1  0
 19 20  1  0
 19 33  1  1
 20 21  1  0
 20 34  1  0
 20 35  1  0
 21 22  1  0
 21 36  1  0
 21 37  1  0
 22 23  1  0
 22 38  1  0
 22 39  1  0
M  END
>  <i_m_ct_stereo_status>  (97) 
1

>  <s_m_source_file>  (97) 
/var/tmp/pbs.5076255.sched01/tmp361wbqj1/0nt8_y6ui.sdf

>  <i_m_source_file_index>  (97) 
34

>  <i_lp_mmshare_version>  (97) 
48012

>  <i_f3d_flags>  (97) 
0

>  <s_epik_input>  (97) 
TzFbQ0gyXVtDSDJdW0NIMl1bQ0BIXTFjMmMoW2NIXW5uMltDSDNdKVtOSF1DKD1PKWMoW2NIXW4zKWMobjM0KW5bY0hdW2NIXVtjSF00

>  <s_epik_cmdline>  (97) 
J2VwaWtfcHl0aG9uJywgJy1waHQnLCAnMi4wJywgJy1waCcsICc3LjAnLCAnLXRuJywgJzgnLCAnLW1hJywgJzIwMCcsICctaW1hZScsICc8aW5maWxlLm1hZT4nLCAnLW9tYWUnLCAnPG91dGZpbGUubWFlPic=

>  <r_lp_tautomer_probability>  (97) 
1

>  <r_epik_Ionization_Penalty>  (97) 
6.61297e-05

>  <r_epik_Ionization_Penalty_Charging>  (97) 
0

>  <r_epik_Ionization_Penalty_Neutral>  (97) 
6.61297e-05

>  <r_epik_State_Penalty>  (97) 
-0

>  <r_epik_Charging_Adjusted_Penalty>  (97) 
0

>  <i_epik_Tot_Q>  (97) 
0

>  <i_epik_Tot_abs_Q>  (97) 
0

>  <s_lp_Force_Field>  (97) 
OPLS3e

>  <r_lp_Energy>  (97) 
20.3176

>  <b_lp_Chiralities_Consistent>  (97) 
1

>  <s_lp_Variant>  (97) 
26:0-1

>  <s_i_glide_gridfile>  (97) 
pfpi4k_grid

>  <i_i_glide_lignum>  (97) 
34

>  <i_i_glide_rotatable_bonds>  (97) 
4

>  <r_i_docking_score>  (97) 
-3.05889

>  <r_i_glide_ligand_efficiency>  (97) 
-0.132995

>  <r_i_glide_ligand_efficiency_sa>  (97) 
-0.378221

>  <r_i_glide_ligand_efficiency_ln>  (97) 
-0.739668

>  <r_i_glide_gscore>  (97) 
-3.05889

>  <r_i_glide_lipo>  (97) 
-0.269958

>  <r_i_glide_hbond>  (97) 
-0.15747

>  <r_i_glide_metal>  (97) 
-0

>  <r_i_glide_rewards>  (97) 
-1.27959

>  <r_i_glide_evdw>  (97) 
-31.7311

>  <r_i_glide_ecoul>  (97) 
-2.68798

>  <r_i_glide_erotb>  (97) 
0.760985

>  <r_i_glide_esite>  (97) 
-0.123103

>  <r_i_glide_emodel>  (97) 
-40.6533

>  <r_i_glide_energy>  (97) 
-34.4191

>  <r_i_glide_einternal>  (97) 
0.763831

>  <r_i_glide_intrahb_reward>  (97) 
-0

>  <i_i_glide_confnum>  (97) 
6

>  <i_i_glide_posenum>  (97) 
30

>  <r_i_glide_eff_state_penalty>  (97) 
0

>  <ligand_id>  (97) 
26

>  <original_smiles>  (97) 
Cn1ncc(NC(=O)c2cnn3cccnc23)c1C1CCCO1

>  <smiles>  (97) 
[H]c1nc2c(C(=O)N([H])c3c([H])nn(C([H])([H])[H])c3C3([H])OC([H])([H])C([H])([H])C3([H])[H])c([H])nn2c([H])c1[H]

$$$$
26:0:2
     RDKit          3D

 39 42  0  0  1  0  0  0  0  0999 V2000
    6.5255   -3.0551   -2.1404 C   0  0  0  0  0  0  0  0  0  0  0  0
    5.8070   -2.9056   -0.8911 N   0  0  0  0  0  0  0  0  0  0  0  0
    6.4081   -3.3226    0.2446 N   0  0  0  0  0  0  0  0  0  0  0  0
    5.5454   -3.0434    1.2026 C   0  0  0  0  0  0  0  0  0  0  0  0
    4.3644   -2.4308    0.6823 C   0  0  0  0  0  0  0  0  0  0  0  0
    3.2156   -1.9615    1.3893 N   0  0  0  0  0  0  0  0  0  0  0  0
    2.9161   -2.2505    2.6691 C   0  0  0  0  0  0  0  0  0  0  0  0
    3.5542   -3.0502    3.3493 O   0  0  0  0  0  0  0  0  0  0  0  0
    1.6846   -1.6358    3.2194 C   0  0  0  0  0  0  0  0  0  0  0  0
    0.8292   -2.1715    4.1997 C   0  0  0  0  0  0  0  0  0  0  0  0
   -0.1713   -1.3872    4.5034 N   0  0  0  0  0  0  0  0  0  0  0  0
    0.0421   -0.2753    3.7339 N   0  0  0  0  0  0  0  0  0  0  0  0
   -0.7410    0.8323    3.7086 C   0  0  0  0  0  0  0  0  0  0  0  0
   -0.3726    1.8545    2.8692 C   0  0  0  0  0  0  0  0  0  0  0  0
    0.7958    1.6984    2.0888 C   0  0  0  0  0  0  0  0  0  0  0  0
    1.5721    0.6140    2.1040 N   0  0  0  0  0  0  0  0  0  0  0  0
    1.1976   -0.3834    2.9318 C   0  0  0  0  0  0  0  0  0  0  0  0
    4.5555   -2.3434   -0.6668 C   0  0  0  0  0  0  0  0  0  0  0  0
    3.6578   -1.7993   -1.7461 C   0  0  2  0  0  0  0  0  0  0  0  0
    2.8210   -2.8559   -2.4853 C   0  0  0  0  0  0  0  0  0  0  0  0
    2.8233   -2.3847   -3.9364 C   0  0  0  0  0  0  0  0  0  0  0  0
    3.6126   -1.0780   -3.9116 C   0  0  0  0  0  0  0  0  0  0  0  0
    4.4461   -1.1906   -2.7624 O   0  0  0  0  0  0  0  0  0  0  0  0
    5.8395   -3.2854   -2.9529 H   0  0  0  0  0  0  0  0  0  0  0  0
    7.2679   -3.8478   -2.0685 H   0  0  0  0  0  0  0  0  0  0  0  0
    7.0539   -2.1301   -2.3305 H   0  0  0  0  0  0  0  0  0  0  0  0
    5.8180   -3.2796    2.2264 H   0  0  0  0  0  0  0  0  0  0  0  0
    2.5609   -1.3654    0.8883 H   0  0  0  0  0  0  0  0  0  0  0  0
    0.9179   -3.1287    4.6748 H   0  0  0  0  0  0  0  0  0  0  0  0
   -1.6227    0.8458    4.3454 H   0  0  0  0  0  0  0  0  0  0  0  0
   -0.9655    2.7509    2.7925 H   0  0  0  0  0  0  0  0  0  0  0  0
    1.0913    2.5015    1.4152 H   0  0  0  0  0  0  0  0  0  0  0  0
    3.0133   -1.0224   -1.3388 H   0  0  0  0  0  0  0  0  0  0  0  0
    3.2940   -3.8331   -2.4505 H   0  0  0  0  0  0  0  0  0  0  0  0
    1.8131   -2.9540   -2.0706 H   0  0  0  0  0  0  0  0  0  0  0  0
    3.3169   -3.1220   -4.5737 H   0  0  0  0  0  0  0  0  0  0  0  0
    1.8180   -2.2370   -4.3211 H   0  0  0  0  0  0  0  0  0  0  0  0
    4.2003   -0.9217   -4.8140 H   0  0  0  0  0  0  0  0  0  0  0  0
    2.9482   -0.2231   -3.7826 H   0  0  0  0  0  0  0  0  0  0  0  0
  1  2  1  0
  1 24  1  0
  1 25  1  0
  1 26  1  0
  2 18  1  0
  2  3  1  0
  3  4  2  0
  4  5  1  0
  4 27  1  0
  5  6  1  0
  5 18  2  0
  6  7  1  0
  6 28  1  0
  7  8  2  0
  7  9  1  0
  9 17  2  0
  9 10  1  0
 10 11  2  0
 10 29  1  0
 11 12  1  0
 12 17  1  0
 12 13  1  0
 13 14  2  0
 13 30  1  0
 14 15  1  0
 14 31  1  0
 15 16  2  0
 15 32  1  0
 16 17  1  0
 18 19  1  0
 19 23  1  0
 19 20  1  0
 19 33  1  1
 20 21  1  0
 20 34  1  0
 20 35  1  0
 21 22  1  0
 21 36  1  0
 21 37  1  0
 22 23  1  0
 22 38  1  0
 22 39  1  0
M  END
>  <i_m_ct_stereo_status>  (98) 
1

>  <s_m_source_file>  (98) 
/var/tmp/pbs.5076255.sched01/tmp361wbqj1/0nt8_y6ui.sdf

>  <i_m_source_file_index>  (98) 
34

>  <i_lp_mmshare_version>  (98) 
48012

>  <i_f3d_flags>  (98) 
0

>  <s_epik_input>  (98) 
TzFbQ0gyXVtDSDJdW0NIMl1bQ0BIXTFjMmMoW2NIXW5uMltDSDNdKVtOSF1DKD1PKWMoW2NIXW4zKWMobjM0KW5bY0hdW2NIXVtjSF00

>  <s_epik_cmdline>  (98) 
J2VwaWtfcHl0aG9uJywgJy1waHQnLCAnMi4wJywgJy1waCcsICc3LjAnLCAnLXRuJywgJzgnLCAnLW1hJywgJzIwMCcsICctaW1hZScsICc8aW5maWxlLm1hZT4nLCAnLW9tYWUnLCAnPG91dGZpbGUubWFlPic=

>  <r_lp_tautomer_probability>  (98) 
1

>  <r_epik_Ionization_Penalty>  (98) 
6.61297e-05

>  <r_epik_Ionization_Penalty_Charging>  (98) 
0

>  <r_epik_Ionization_Penalty_Neutral>  (98) 
6.61297e-05

>  <r_epik_State_Penalty>  (98) 
-0

>  <r_epik_Charging_Adjusted_Penalty>  (98) 
0

>  <i_epik_Tot_Q>  (98) 
0

>  <i_epik_Tot_abs_Q>  (98) 
0

>  <s_lp_Force_Field>  (98) 
OPLS3e

>  <r_lp_Energy>  (98) 
20.3176

>  <b_lp_Chiralities_Consistent>  (98) 
1

>  <s_lp_Variant>  (98) 
26:0-1

>  <s_i_glide_gridfile>  (98) 
pfpi4k_grid

>  <i_i_glide_lignum>  (98) 
34

>  <i_i_glide_rotatable_bonds>  (98) 
4

>  <r_i_docking_score>  (98) 
-2.98363

>  <r_i_glide_ligand_efficiency>  (98) 
-0.129723

>  <r_i_glide_ligand_efficiency_sa>  (98) 
-0.368915

>  <r_i_glide_ligand_efficiency_ln>  (98) 
-0.721469

>  <r_i_glide_gscore>  (98) 
-2.98363

>  <r_i_glide_lipo>  (98) 
-0.407827

>  <r_i_glide_hbond>  (98) 
0

>  <r_i_glide_metal>  (98) 
-0

>  <r_i_glide_rewards>  (98) 
-1.30146

>  <r_i_glide_evdw>  (98) 
-30.1108

>  <r_i_glide_ecoul>  (98) 
-3.08888

>  <r_i_glide_erotb>  (98) 
0.760985

>  <r_i_glide_esite>  (98) 
-0.0664568

>  <r_i_glide_emodel>  (98) 
-39.7237

>  <r_i_glide_energy>  (98) 
-33.1997

>  <r_i_glide_einternal>  (98) 
0.478553

>  <r_i_glide_intrahb_reward>  (98) 
-0

>  <i_i_glide_confnum>  (98) 
1

>  <i_i_glide_posenum>  (98) 
34

>  <r_i_glide_eff_state_penalty>  (98) 
0

>  <ligand_id>  (98) 
26

>  <original_smiles>  (98) 
Cn1ncc(NC(=O)c2cnn3cccnc23)c1C1CCCO1

>  <smiles>  (98) 
[H]c1nc2c(C(=O)N([H])c3c([H])nn(C([H])([H])[H])c3C3([H])OC([H])([H])C([H])([H])C3([H])[H])c([H])nn2c([H])c1[H]

$$$$
27:0:0
     RDKit          3D

 39 45  0  0  1  0  0  0  0  0999 V2000
    4.2392   -1.5707   -2.6044 C   0  0  0  0  0  0  0  0  0  0  0  0
    4.5044   -2.1889   -1.2027 C   0  0  1  0  0  0  0  0  0  0  0  0
    3.9450   -3.7741   -0.9681 C   0  0  1  0  0  0  0  0  0  0  0  0
    4.5988   -5.1723   -0.1760 C   0  0  0  0  0  0  0  0  0  0  0  0
    5.1652   -4.8821    1.3701 C   0  0  2  0  0  0  0  0  0  0  0  0
    4.0685   -4.7902    2.4904 C   0  0  0  0  0  0  0  0  0  0  0  0
    3.9192   -3.2552    2.7703 C   0  0  1  0  0  0  0  0  0  0  0  0
    5.3166   -2.8716    2.8822 N   0  0  0  0  0  0  0  0  0  0  0  0
    5.9463   -3.4789    1.7140 C   0  0  2  0  0  0  0  0  0  0  0  0
    6.1448   -2.2913    0.6966 C   0  0  1  0  0  0  0  0  0  0  0  0
    5.0630   -2.8421   -0.1268 C   0  0  1  0  0  0  0  0  0  0  0  0
    3.5908   -3.1382    0.3318 C   0  0  1  0  0  0  0  0  0  0  0  0
    3.3230   -1.3970    0.9238 C   0  0  2  0  0  0  0  0  0  0  0  0
    4.5782   -0.4558    0.9163 C   0  0  0  0  0  0  0  0  0  0  0  0
    5.3968   -1.2604   -0.1299 C   0  0  2  0  0  0  0  0  0  0  0  0
    3.0802   -2.4741    1.5896 C   0  0  1  0  0  0  0  0  0  0  0  0
    3.4548   -2.3019   -0.2120 C   0  0  1  0  0  0  0  0  0  0  0  0
    3.4799   -2.1145   -3.1673 H   0  0  0  0  0  0  0  0  0  0  0  0
    5.1539   -1.6086   -3.1880 H   0  0  0  0  0  0  0  0  0  0  0  0
    3.9331   -0.5277   -2.5319 H   0  0  0  0  0  0  0  0  0  0  0  0
    3.1109   -4.0517   -1.6312 H   0  0  0  0  0  0  0  0  0  0  0  0
    3.8541   -5.9721   -0.1404 H   0  0  0  0  0  0  0  0  0  0  0  0
    5.4056   -5.5862   -0.7813 H   0  0  0  0  0  0  0  0  0  0  0  0
    5.8111   -5.7232    1.6292 H   0  0  0  0  0  0  0  0  0  0  0  0
    3.1284   -5.2763    2.2296 H   0  0  0  0  0  0  0  0  0  0  0  0
    4.4229   -5.2918    3.3930 H   0  0  0  0  0  0  0  0  0  0  0  0
    3.4320   -3.0784    3.7317 H   0  0  0  0  0  0  0  0  0  0  0  0
    5.4512   -1.8724    2.9081 H   0  0  0  0  0  0  0  0  0  0  0  0
    6.9524   -3.7597    2.0278 H   0  0  0  0  0  0  0  0  0  0  0  0
    7.1502   -2.3720    0.2689 H   0  0  0  0  0  0  0  0  0  0  0  0
    5.9064   -3.5112   -0.6831 H   0  0  0  0  0  0  0  0  0  0  0  0
    2.8820   -4.1163    0.4712 H   0  0  0  0  0  0  0  0  0  0  0  0
    2.3642   -0.8232    0.9261 H   0  0  0  0  0  0  0  0  0  0  0  0
    4.2992    0.5184    0.5005 H   0  0  0  0  0  0  0  0  0  0  0  0
    5.0643   -0.3116    1.8827 H   0  0  0  0  0  0  0  0  0  0  0  0
    6.0925   -0.6000   -0.6543 H   0  0  0  0  0  0  0  0  0  0  0  0
    2.0024   -2.5482    1.8321 H   0  0  0  0  0  0  0  0  0  0  0  0
    2.6746   -1.8924   -1.0041 H   0  0  0  0  0  0  0  0  0  0  0  0
    5.6947   -3.3146    3.7088 H   0  0  0  0  0  0  0  0  0  0  0  0
  2  1  1  6
  1 18  1  0
  1 19  1  0
  1 20  1  0
  2 15  1  0
  2 17  1  0
  2  3  1  0
  3 12  1  0
  3  4  1  0
  3 21  1  6
  4  5  1  0
  4 22  1  0
  4 23  1  0
  5  9  1  0
  5  6  1  0
  5 24  1  1
  6  7  1  0
  6 25  1  0
  6 26  1  0
  7 16  1  0
  7  8  1  0
  7 27  1  1
  8  9  1  0
  8 28  1  0
  8 39  1  0
  9 10  1  0
  9 29  1  1
 10 15  1  0
 10 11  1  0
 10 30  1  6
 11 17  1  0
 11 12  1  0
 11 31  1  6
 12 13  1  0
 12 32  1  1
 13 14  1  0
 13 16  1  0
 13 33  1  6
 14 15  1  0
 14 34  1  0
 14 35  1  0
 15 36  1  6
 16 17  1  0
 16 37  1  6
 17 38  1  6
M  CHG  1   8   1
M  END
>  <i_m_ct_stereo_status>  (99) 
1

>  <s_m_source_file>  (99) 
/var/tmp/pbs.5076255.sched01/tmp361wbqj1/0nt8_y6ui.sdf

>  <i_m_source_file_index>  (99) 
35

>  <i_lp_mmshare_version>  (99) 
48012

>  <i_f3d_flags>  (99) 
0

>  <s_epik_input>  (99) 
W0NIM11bQ0BAXTEyW0NAQEhdM1tDQEhdNFtDSF01W0NAQEhdNltDQEBIXTdbQ0BIXShbQ0gyXTMpW0NIMl1bQ0BASF0oW05IXTcpW0NASF0oW0NAQEhdMjUpW0NAQEhdNFtDSDJdW0NASF0xNg==

>  <s_epik_cmdline>  (99) 
J2VwaWtfcHl0aG9uJywgJy1waHQnLCAnMi4wJywgJy1waCcsICc3LjAnLCAnLXRuJywgJzgnLCAnLW1hJywgJzIwMCcsICctaW1hZScsICc8aW5maWxlLm1hZT4nLCAnLW9tYWUnLCAnPG91dGZpbGUubWFlPic=

>  <r_lp_tautomer_probability>  (99) 
1

>  <r_epik_Ionization_Penalty>  (99) 
8.62805e-06

>  <r_epik_Ionization_Penalty_Charging>  (99) 
8.62805e-06

>  <r_epik_Ionization_Penalty_Neutral>  (99) 
0

>  <r_epik_State_Penalty>  (99) 
-0

>  <r_epik_Charging_Adjusted_Penalty>  (99) 
8.62805e-06

>  <i_epik_Tot_Q>  (99) 
1

>  <i_epik_Tot_abs_Q>  (99) 
1

>  <s_lp_Force_Field>  (99) 
OPLS3e

>  <r_lp_Energy>  (99) 
999.461

>  <b_lp_Chiralities_Consistent>  (99) 
1

>  <s_lp_Variant>  (99) 
27:0-1

>  <s_i_glide_gridfile>  (99) 
pfpi4k_grid

>  <i_i_glide_lignum>  (99) 
35

>  <i_i_glide_rotatable_bonds>  (99) 
0

>  <r_i_docking_score>  (99) 
-3.3351

>  <r_i_glide_ligand_efficiency>  (99) 
-0.196183

>  <r_i_glide_ligand_efficiency_sa>  (99) 
-0.504441

>  <r_i_glide_ligand_efficiency_ln>  (99) 
-0.870055

>  <r_i_glide_gscore>  (99) 
-3.3351

>  <r_i_glide_lipo>  (99) 
-0.341658

>  <r_i_glide_hbond>  (99) 
0

>  <r_i_glide_metal>  (99) 
-0

>  <r_i_glide_rewards>  (99) 
-1.85214

>  <r_i_glide_evdw>  (99) 
-17.6293

>  <r_i_glide_ecoul>  (99) 
-1.73228

>  <r_i_glide_erotb>  (99) 
0

>  <r_i_glide_esite>  (99) 
0

>  <r_i_glide_emodel>  (99) 
-23.0947

>  <r_i_glide_energy>  (99) 
-19.3615

>  <r_i_glide_einternal>  (99) 
0

>  <r_i_glide_intrahb_reward>  (99) 
-0

>  <i_i_glide_confnum>  (99) 
1

>  <i_i_glide_posenum>  (99) 
3

>  <r_i_glide_eff_state_penalty>  (99) 
0

>  <ligand_id>  (99) 
27

>  <original_smiles>  (99) 
CC12C3CC4CC5NC4C4C6C3C(CC41)C5C62

>  <smiles>  (99) 
[H]C([H])([H])C12C3([H])C([H])([H])C4([H])C([H])([H])C5([H])C6([H])C7([H])C([H])([H])C1([H])C([H])(C([H])(C73[H])C62[H])C4([H])[N+]5([H])[H]

$$$$
27:0:1
     RDKit          3D

 39 45  0  0  1  0  0  0  0  0999 V2000
    3.4403   -3.0523   -3.2434 C   0  0  0  0  0  0  0  0  0  0  0  0
    3.8629   -3.2224   -1.7539 C   0  0  1  0  0  0  0  0  0  0  0  0
    2.6838   -3.8560   -0.7062 C   0  0  1  0  0  0  0  0  0  0  0  0
    2.7324   -5.0097    0.5913 C   0  0  0  0  0  0  0  0  0  0  0  0
    3.9375   -4.7230    1.7200 C   0  0  2  0  0  0  0  0  0  0  0  0
    3.6337   -3.5905    2.7653 C   0  0  0  0  0  0  0  0  0  0  0  0
    4.4702   -2.3623    2.2676 C   0  0  1  0  0  0  0  0  0  0  0  0
    5.7529   -2.9988    2.0200 N   0  0  0  0  0  0  0  0  0  0  0  0
    5.4164   -4.1852    1.2411 C   0  0  2  0  0  0  0  0  0  0  0  0
    5.7852   -3.8124   -0.2451 C   0  0  1  0  0  0  0  0  0  0  0  0
    4.3566   -3.7167   -0.5621 C   0  0  1  0  0  0  0  0  0  0  0  0
    3.2967   -2.7974    0.1439 C   0  0  1  0  0  0  0  0  0  0  0  0
    4.2852   -1.2589   -0.1687 C   0  0  2  0  0  0  0  0  0  0  0  0
    5.7105   -1.4575   -0.7866 C   0  0  0  0  0  0  0  0  0  0  0  0
    5.4574   -2.8665   -1.3854 C   0  0  2  0  0  0  0  0  0  0  0  0
    3.7938   -1.6290    0.9593 C   0  0  1  0  0  0  0  0  0  0  0  0
    3.4299   -2.3039   -0.7238 C   0  0  1  0  0  0  0  0  0  0  0  0
    2.3581   -3.0927   -3.3781 H   0  0  0  0  0  0  0  0  0  0  0  0
    3.8648   -3.8610   -3.8371 H   0  0  0  0  0  0  0  0  0  0  0  0
    3.8018   -2.1131   -3.6600 H   0  0  0  0  0  0  0  0  0  0  0  0
    1.6513   -3.7004   -1.0605 H   0  0  0  0  0  0  0  0  0  0  0  0
    1.7756   -5.0537    1.1115 H   0  0  0  0  0  0  0  0  0  0  0  0
    2.8559   -6.0111    0.1773 H   0  0  0  0  0  0  0  0  0  0  0  0
    4.0621   -5.6481    2.2866 H   0  0  0  0  0  0  0  0  0  0  0  0
    2.5725   -3.3710    2.8835 H   0  0  0  0  0  0  0  0  0  0  0  0
    3.9880   -3.8934    3.7523 H   0  0  0  0  0  0  0  0  0  0  0  0
    4.5962   -1.6256    3.0623 H   0  0  0  0  0  0  0  0  0  0  0  0
    6.4077   -2.4015    1.5386 H   0  0  0  0  0  0  0  0  0  0  0  0
    6.1399   -4.9461    1.5393 H   0  0  0  0  0  0  0  0  0  0  0  0
    6.2964   -4.6673   -0.6892 H   0  0  0  0  0  0  0  0  0  0  0  0
    4.3874   -4.9012   -0.8127 H   0  0  0  0  0  0  0  0  0  0  0  0
    2.3009   -2.9479    0.8259 H   0  0  0  0  0  0  0  0  0  0  0  0
    3.8962   -0.2327   -0.3315 H   0  0  0  0  0  0  0  0  0  0  0  0
    5.8265   -0.7322   -1.5952 H   0  0  0  0  0  0  0  0  0  0  0  0
    6.5422   -1.3842   -0.0830 H   0  0  0  0  0  0  0  0  0  0  0  0
    6.1161   -3.0452   -2.2417 H   0  0  0  0  0  0  0  0  0  0  0  0
    3.0563   -0.8873    1.3260 H   0  0  0  0  0  0  0  0  0  0  0  0
    2.7675   -1.7365   -1.5273 H   0  0  0  0  0  0  0  0  0  0  0  0
    6.1264   -3.3031    2.9091 H   0  0  0  0  0  0  0  0  0  0  0  0
  2  1  1  6
  1 18  1  0
  1 19  1  0
  1 20  1  0
  2 15  1  0
  2 17  1  0
  2  3  1  0
  3 12  1  0
  3  4  1  0
  3 21  1  6
  4  5  1  0
  4 22  1  0
  4 23  1  0
  5  9  1  0
  5  6  1  0
  5 24  1  1
  6  7  1  0
  6 25  1  0
  6 26  1  0
  7 16  1  0
  7  8  1  0
  7 27  1  1
  8  9  1  0
  8 28  1  0
  8 39  1  0
  9 10  1  0
  9 29  1  1
 10 15  1  0
 10 11  1  0
 10 30  1  6
 11 17  1  0
 11 12  1  0
 11 31  1  6
 12 13  1  0
 12 32  1  1
 13 14  1  0
 13 16  1  0
 13 33  1  6
 14 15  1  0
 14 34  1  0
 14 35  1  0
 15 36  1  6
 16 17  1  0
 16 37  1  1
 17 38  1  1
M  CHG  1   8   1
M  END
>  <i_m_ct_stereo_status>  (100) 
1

>  <s_m_source_file>  (100) 
/var/tmp/pbs.5076255.sched01/tmp361wbqj1/0nt8_y6ui.sdf

>  <i_m_source_file_index>  (100) 
35

>  <i_lp_mmshare_version>  (100) 
48012

>  <i_f3d_flags>  (100) 
0

>  <s_epik_input>  (100) 
W0NIM11bQ0BAXTEyW0NAQEhdM1tDQEhdNFtDSF01W0NAQEhdNltDQEBIXTdbQ0BIXShbQ0gyXTMpW0NIMl1bQ0BASF0oW05IXTcpW0NASF0oW0NAQEhdMjUpW0NAQEhdNFtDSDJdW0NASF0xNg==

>  <s_epik_cmdline>  (100) 
J2VwaWtfcHl0aG9uJywgJy1waHQnLCAnMi4wJywgJy1waCcsICc3LjAnLCAnLXRuJywgJzgnLCAnLW1hJywgJzIwMCcsICctaW1hZScsICc8aW5maWxlLm1hZT4nLCAnLW9tYWUnLCAnPG91dGZpbGUubWFlPic=

>  <r_lp_tautomer_probability>  (100) 
1

>  <r_epik_Ionization_Penalty>  (100) 
8.62805e-06

>  <r_epik_Ionization_Penalty_Charging>  (100) 
8.62805e-06

>  <r_epik_Ionization_Penalty_Neutral>  (100) 
0

>  <r_epik_State_Penalty>  (100) 
-0

>  <r_epik_Charging_Adjusted_Penalty>  (100) 
8.62805e-06

>  <i_epik_Tot_Q>  (100) 
1

>  <i_epik_Tot_abs_Q>  (100) 
1

>  <s_lp_Force_Field>  (100) 
OPLS3e

>  <r_lp_Energy>  (100) 
999.461

>  <b_lp_Chiralities_Consistent>  (100) 
1

>  <s_lp_Variant>  (100) 
27:0-1

>  <s_i_glide_gridfile>  (100) 
pfpi4k_grid

>  <i_i_glide_lignum>  (100) 
35

>  <i_i_glide_rotatable_bonds>  (100) 
0

>  <r_i_docking_score>  (100) 
-3.27525

>  <r_i_glide_ligand_efficiency>  (100) 
-0.192662

>  <r_i_glide_ligand_efficiency_sa>  (100) 
-0.495387

>  <r_i_glide_ligand_efficiency_ln>  (100) 
-0.854439

>  <r_i_glide_gscore>  (100) 
-3.27525

>  <r_i_glide_lipo>  (100) 
-0.269151

>  <r_i_glide_hbond>  (100) 
0

>  <r_i_glide_metal>  (100) 
-0

>  <r_i_glide_rewards>  (100) 
-1.85214

>  <r_i_glide_evdw>  (100) 
-19.858

>  <r_i_glide_ecoul>  (100) 
-1.07371

>  <r_i_glide_erotb>  (100) 
0

>  <r_i_glide_esite>  (100) 
0

>  <r_i_glide_emodel>  (100) 
-24.5628

>  <r_i_glide_energy>  (100) 
-20.9317

>  <r_i_glide_einternal>  (100) 
0

>  <r_i_glide_intrahb_reward>  (100) 
-0

>  <i_i_glide_confnum>  (100) 
1

>  <i_i_glide_posenum>  (100) 
35

>  <r_i_glide_eff_state_penalty>  (100) 
0

>  <ligand_id>  (100) 
27

>  <original_smiles>  (100) 
CC12C3CC4CC5NC4C4C6C3C(CC41)C5C62

>  <smiles>  (100) 
[H]C([H])([H])C12C3([H])C([H])([H])C4([H])C([H])([H])C5([H])C6([H])C7([H])C([H])([H])C1([H])C([H])(C([H])(C73[H])C62[H])C4([H])[N+]5([H])[H]

$$$$
27:0:2
     RDKit          3D

 39 45  0  0  1  0  0  0  0  0999 V2000
    4.1414   -1.3898   -4.1590 C   0  0  0  0  0  0  0  0  0  0  0  0
    4.2117   -2.2624   -2.8802 C   0  0  1  0  0  0  0  0  0  0  0  0
    2.7470   -2.4876   -2.0865 C   0  0  1  0  0  0  0  0  0  0  0  0
    1.9858   -3.8146   -1.2911 C   0  0  0  0  0  0  0  0  0  0  0  0
    2.9647   -4.6090   -0.1903 C   0  0  2  0  0  0  0  0  0  0  0  0
    3.1328   -3.9191    1.2050 C   0  0  0  0  0  0  0  0  0  0  0  0
    4.5516   -3.2585    1.1394 C   0  0  1  0  0  0  0  0  0  0  0  0
    5.3328   -4.3525    0.6054 N   0  0  0  0  0  0  0  0  0  0  0  0
    4.5574   -4.8289   -0.5220 C   0  0  2  0  0  0  0  0  0  0  0  0
    5.2691   -4.2593   -1.7920 C   0  0  1  0  0  0  0  0  0  0  0  0
    4.1858   -3.3097   -1.9879 C   0  0  1  0  0  0  0  0  0  0  0  0
    3.6641   -2.2623   -0.9358 C   0  0  1  0  0  0  0  0  0  0  0  0
    5.3435   -1.5155   -0.7254 C   0  0  2  0  0  0  0  0  0  0  0  0
    6.5177   -2.2711   -1.4291 C   0  0  0  0  0  0  0  0  0  0  0  0
    5.6692   -2.9906   -2.4956 C   0  0  2  0  0  0  0  0  0  0  0  0
    4.5684   -1.8909    0.2228 C   0  0  1  0  0  0  0  0  0  0  0  0
    4.1689   -1.6590   -1.5612 C   0  0  1  0  0  0  0  0  0  0  0  0
    3.2266   -0.7975   -4.2336 H   0  0  0  0  0  0  0  0  0  0  0  0
    4.1383   -2.0398   -5.0196 H   0  0  0  0  0  0  0  0  0  0  0  0
    5.0000   -0.7317   -4.2499 H   0  0  0  0  0  0  0  0  0  0  0  0
    2.0228   -1.7081   -2.3246 H   0  0  0  0  0  0  0  0  0  0  0  0
    1.0902   -3.4519   -0.8034 H   0  0  0  0  0  0  0  0  0  0  0  0
    1.5787   -4.5033   -2.0265 H   0  0  0  0  0  0  0  0  0  0  0  0
    2.5064   -5.5787   -0.0155 H   0  0  0  0  0  0  0  0  0  0  0  0
    2.3354   -3.2155    1.4526 H   0  0  0  0  0  0  0  0  0  0  0  0
    3.1281   -4.6841    1.9835 H   0  0  0  0  0  0  0  0  0  0  0  0
    4.9165   -3.0204    2.1345 H   0  0  0  0  0  0  0  0  0  0  0  0
    6.2711   -4.0865    0.3248 H   0  0  0  0  0  0  0  0  0  0  0  0
    4.7138   -5.9039   -0.5801 H   0  0  0  0  0  0  0  0  0  0  0  0
    5.2905   -5.0484   -2.5478 H   0  0  0  0  0  0  0  0  0  0  0  0
    3.6479   -4.1505   -2.6648 H   0  0  0  0  0  0  0  0  0  0  0  0
    2.6511   -2.0724   -0.3016 H   0  0  0  0  0  0  0  0  0  0  0  0
    5.5817   -0.4490   -0.4959 H   0  0  0  0  0  0  0  0  0  0  0  0
    7.0978   -1.5672   -1.9877 H   0  0  0  0  0  0  0  0  0  0  0  0
    7.1553   -2.8953   -0.8015 H   0  0  0  0  0  0  0  0  0  0  0  0
    6.2539   -3.1997   -3.3944 H   0  0  0  0  0  0  0  0  0  0  0  0
    4.2784   -1.0433    0.8645 H   0  0  0  0  0  0  0  0  0  0  0  0
    4.0176   -0.6002   -2.0597 H   0  0  0  0  0  0  0  0  0  0  0  0
    5.3512   -5.0953    1.2943 H   0  0  0  0  0  0  0  0  0  0  0  0
  2  1  1  6
  1 18  1  0
  1 19  1  0
  1 20  1  0
  2 15  1  0
  2 17  1  0
  2  3  1  0
  3 12  1  0
  3  4  1  0
  3 21  1  6
  4  5  1  0
  4 22  1  0
  4 23  1  0
  5  9  1  0
  5  6  1  0
  5 24  1  1
  6  7  1  0
  6 25  1  0
  6 26  1  0
  7 16  1  0
  7  8  1  0
  7 27  1  1
  8  9  1  0
  8 28  1  0
  8 39  1  0
  9 10  1  0
  9 29  1  6
 10 15  1  0
 10 11  1  0
 10 30  1  6
 11 17  1  0
 11 12  1  0
 11 31  1  6
 12 13  1  0
 12 32  1  1
 13 14  1  0
 13 16  1  0
 13 33  1  1
 14 15  1  0
 14 34  1  0
 14 35  1  0
 15 36  1  6
 16 17  1  0
 16 37  1  1
 17 38  1  6
M  CHG  1   8   1
M  END
>  <i_m_ct_stereo_status>  (101) 
1

>  <s_m_source_file>  (101) 
/var/tmp/pbs.5076255.sched01/tmp361wbqj1/0nt8_y6ui.sdf

>  <i_m_source_file_index>  (101) 
35

>  <i_lp_mmshare_version>  (101) 
48012

>  <i_f3d_flags>  (101) 
0

>  <s_epik_input>  (101) 
W0NIM11bQ0BAXTEyW0NAQEhdM1tDQEhdNFtDSF01W0NAQEhdNltDQEBIXTdbQ0BIXShbQ0gyXTMpW0NIMl1bQ0BASF0oW05IXTcpW0NASF0oW0NAQEhdMjUpW0NAQEhdNFtDSDJdW0NASF0xNg==

>  <s_epik_cmdline>  (101) 
J2VwaWtfcHl0aG9uJywgJy1waHQnLCAnMi4wJywgJy1waCcsICc3LjAnLCAnLXRuJywgJzgnLCAnLW1hJywgJzIwMCcsICctaW1hZScsICc8aW5maWxlLm1hZT4nLCAnLW9tYWUnLCAnPG91dGZpbGUubWFlPic=

>  <r_lp_tautomer_probability>  (101) 
1

>  <r_epik_Ionization_Penalty>  (101) 
8.62805e-06

>  <r_epik_Ionization_Penalty_Charging>  (101) 
8.62805e-06

>  <r_epik_Ionization_Penalty_Neutral>  (101) 
0

>  <r_epik_State_Penalty>  (101) 
-0

>  <r_epik_Charging_Adjusted_Penalty>  (101) 
8.62805e-06

>  <i_epik_Tot_Q>  (101) 
1

>  <i_epik_Tot_abs_Q>  (101) 
1

>  <s_lp_Force_Field>  (101) 
OPLS3e

>  <r_lp_Energy>  (101) 
999.461

>  <b_lp_Chiralities_Consistent>  (101) 
1

>  <s_lp_Variant>  (101) 
27:0-1

>  <s_i_glide_gridfile>  (101) 
pfpi4k_grid

>  <i_i_glide_lignum>  (101) 
35

>  <i_i_glide_rotatable_bonds>  (101) 
0

>  <r_i_docking_score>  (101) 
-2.82825

>  <r_i_glide_ligand_efficiency>  (101) 
-0.166368

>  <r_i_glide_ligand_efficiency_sa>  (101) 
-0.427778

>  <r_i_glide_ligand_efficiency_ln>  (101) 
-0.737828

>  <r_i_glide_gscore>  (101) 
-2.82825

>  <r_i_glide_lipo>  (101) 
-0.318699

>  <r_i_glide_hbond>  (101) 
0

>  <r_i_glide_metal>  (101) 
-0

>  <r_i_glide_rewards>  (101) 
-1.85214

>  <r_i_glide_evdw>  (101) 
-8.74626

>  <r_i_glide_ecoul>  (101) 
-1.46733

>  <r_i_glide_erotb>  (101) 
0

>  <r_i_glide_esite>  (101) 
0

>  <r_i_glide_emodel>  (101) 
-13.1635

>  <r_i_glide_energy>  (101) 
-10.2136

>  <r_i_glide_einternal>  (101) 
0

>  <r_i_glide_intrahb_reward>  (101) 
-0

>  <i_i_glide_confnum>  (101) 
1

>  <i_i_glide_posenum>  (101) 
24

>  <r_i_glide_eff_state_penalty>  (101) 
0

>  <ligand_id>  (101) 
27

>  <original_smiles>  (101) 
CC12C3CC4CC5NC4C4C6C3C(CC41)C5C62

>  <smiles>  (101) 
[H]C([H])([H])C12C3([H])C([H])([H])C4([H])C([H])([H])C5([H])C6([H])C7([H])C([H])([H])C1([H])C([H])(C([H])(C73[H])C62[H])C4([H])[N+]5([H])[H]

$$$$
28:0:0
     RDKit          3D

 44 47  0  0  1  0  0  0  0  0999 V2000
    2.4636   -8.6341    4.3041 C   0  0  0  0  0  0  0  0  0  0  0  0
    2.7005   -8.6142    2.7924 C   0  0  0  0  0  0  0  0  0  0  0  0
    3.2154   -9.9860    2.3715 C   0  0  0  0  0  0  0  0  0  0  0  0
    1.5334   -8.0723    1.9563 C   0  0  0  0  0  0  0  0  0  0  0  0
    2.2618   -6.8254    1.8655 N   0  0  0  0  0  0  0  0  0  0  0  0
    2.0978   -5.9252    0.8317 C   0  0  0  0  0  0  0  0  0  0  0  0
    1.1063   -5.8550    0.0913 O   0  0  0  0  0  0  0  0  0  0  0  0
    3.2047   -5.1563    0.7435 O   0  0  0  0  0  0  0  0  0  0  0  0
    3.4394   -4.2991   -0.3617 C   0  0  2  0  0  0  0  0  0  0  0  0
    4.8595   -4.5328   -0.9380 C   0  0  2  0  0  0  0  0  0  0  0  0
    5.9477   -4.1602    0.0954 C   0  0  0  0  0  0  0  0  0  0  0  0
    5.7861   -2.6817    0.4991 C   0  0  1  0  0  0  0  0  0  0  0  0
    5.9430   -1.7944   -0.7540 C   0  0  0  0  0  0  0  0  0  0  0  0
    4.8701   -2.1694   -1.8002 C   0  0  1  0  0  0  0  0  0  0  0  0
    5.0264   -3.6544   -2.1933 C   0  0  0  0  0  0  0  0  0  0  0  0
    3.4657   -1.9429   -1.1902 C   0  0  0  0  0  0  0  0  0  0  0  0
    3.2936   -2.8273    0.0646 C   0  0  2  0  0  0  0  0  0  0  0  0
    4.3817   -2.4624    1.1071 C   0  0  0  0  0  0  0  0  0  0  0  0
    3.5240   -7.4222    2.2803 C   0  0  0  0  0  0  0  0  0  0  0  0
    1.7443   -9.4001    4.5990 H   0  0  0  0  0  0  0  0  0  0  0  0
    2.0706   -7.6786    4.6539 H   0  0  0  0  0  0  0  0  0  0  0  0
    3.3859   -8.8197    4.8544 H   0  0  0  0  0  0  0  0  0  0  0  0
    3.3636  -10.0171    1.2908 H   0  0  0  0  0  0  0  0  0  0  0  0
    2.5154  -10.7878    2.6182 H   0  0  0  0  0  0  0  0  0  0  0  0
    4.1767  -10.2183    2.8314 H   0  0  0  0  0  0  0  0  0  0  0  0
    1.4097   -8.5711    0.9915 H   0  0  0  0  0  0  0  0  0  0  0  0
    0.5867   -8.0083    2.4960 H   0  0  0  0  0  0  0  0  0  0  0  0
    2.7124   -4.4983   -1.1500 H   0  0  0  0  0  0  0  0  0  0  0  0
    4.9770   -5.5750   -1.2210 H   0  0  0  0  0  0  0  0  0  0  0  0
    5.8775   -4.7989    0.9755 H   0  0  0  0  0  0  0  0  0  0  0  0
    6.9421   -4.3238   -0.3190 H   0  0  0  0  0  0  0  0  0  0  0  0
    6.5557   -2.4153    1.2287 H   0  0  0  0  0  0  0  0  0  0  0  0
    5.8335   -0.7432   -0.4797 H   0  0  0  0  0  0  0  0  0  0  0  0
    6.9414   -1.9257   -1.1742 H   0  0  0  0  0  0  0  0  0  0  0  0
    4.9846   -1.5430   -2.6880 H   0  0  0  0  0  0  0  0  0  0  0  0
    5.9948   -3.8257   -2.6653 H   0  0  0  0  0  0  0  0  0  0  0  0
    4.2674   -3.9241   -2.9297 H   0  0  0  0  0  0  0  0  0  0  0  0
    3.3396   -0.8935   -0.9144 H   0  0  0  0  0  0  0  0  0  0  0  0
    2.6895   -2.1788   -1.9228 H   0  0  0  0  0  0  0  0  0  0  0  0
    2.2987   -2.6684    0.4868 H   0  0  0  0  0  0  0  0  0  0  0  0
    4.2671   -3.0635    2.0095 H   0  0  0  0  0  0  0  0  0  0  0  0
    4.2601   -1.4203    1.4102 H   0  0  0  0  0  0  0  0  0  0  0  0
    4.0494   -6.8756    3.0606 H   0  0  0  0  0  0  0  0  0  0  0  0
    4.1841   -7.6656    1.4469 H   0  0  0  0  0  0  0  0  0  0  0  0
  1  2  1  0
  1 20  1  0
  1 21  1  0
  1 22  1  0
  2 19  1  0
  2  3  1  0
  2  4  1  0
  3 23  1  0
  3 24  1  0
  3 25  1  0
  4  5  1  0
  4 26  1  0
  4 27  1  0
  5  6  1  0
  5 19  1  0
  6  7  2  0
  6  8  1  0
  8  9  1  0
  9 17  1  0
  9 10  1  0
  9 28  1  6
 10 15  1  0
 10 11  1  0
 10 29  1  6
 11 12  1  0
 11 30  1  0
 11 31  1  0
 12 18  1  0
 12 13  1  0
 12 32  1  1
 13 14  1  0
 13 33  1  0
 13 34  1  0
 14 15  1  0
 14 16  1  0
 14 35  1  6
 15 36  1  0
 15 37  1  0
 16 17  1  0
 16 38  1  0
 16 39  1  0
 17 18  1  0
 17 40  1  1
 18 41  1  0
 18 42  1  0
 19 43  1  0
 19 44  1  0
M  END
>  <i_m_ct_stereo_status>  (102) 
1

>  <s_m_source_file>  (102) 
/var/tmp/pbs.5076255.sched01/tmp361wbqj1/0nt8_y6ui.sdf

>  <i_m_source_file_index>  (102) 
36

>  <i_lp_mmshare_version>  (102) 
48012

>  <i_f3d_flags>  (102) 
0

>  <s_epik_input>  (102) 
W0NIM11DMShbQ0gzXSlbQ0gyXU4oW0NIMl0xKUMoPU8pT1tDQEhdKFtDQEBIXTIzKVtDQEhdNFtDSDJdW0NAQEhdKFtDSDJdMylbQ0gyXVtDQEBIXShbQ0gyXTIpW0NIMl00

>  <s_epik_cmdline>  (102) 
J2VwaWtfcHl0aG9uJywgJy1waHQnLCAnMi4wJywgJy1waCcsICc3LjAnLCAnLXRuJywgJzgnLCAnLW1hJywgJzIwMCcsICctaW1hZScsICc8aW5maWxlLm1hZT4nLCAnLW9tYWUnLCAnPG91dGZpbGUubWFlPic=

>  <r_lp_tautomer_probability>  (102) 
1

>  <r_epik_Ionization_Penalty>  (102) 
1.80822e-05

>  <r_epik_Ionization_Penalty_Charging>  (102) 
0

>  <r_epik_Ionization_Penalty_Neutral>  (102) 
1.80822e-05

>  <r_epik_State_Penalty>  (102) 
-0

>  <r_epik_Charging_Adjusted_Penalty>  (102) 
0

>  <i_epik_Tot_Q>  (102) 
0

>  <i_epik_Tot_abs_Q>  (102) 
0

>  <s_epik_Chemistry_Notes>  (102) 
This compound has an ester and may undergo hydrolysis at high or low pH.

>  <s_lp_Force_Field>  (102) 
OPLS3e

>  <r_lp_Energy>  (102) 
3.99516

>  <b_lp_Chiralities_Consistent>  (102) 
1

>  <s_lp_Variant>  (102) 
28:0-1

>  <s_i_glide_gridfile>  (102) 
pfpi4k_grid

>  <i_i_glide_lignum>  (102) 
36

>  <i_i_glide_rotatable_bonds>  (102) 
3

>  <r_i_docking_score>  (102) 
-3.04789

>  <r_i_glide_ligand_efficiency>  (102) 
-0.160415

>  <r_i_glide_ligand_efficiency_sa>  (102) 
-0.428052

>  <r_i_glide_ligand_efficiency_ln>  (102) 
-0.772705

>  <r_i_glide_gscore>  (102) 
-3.04789

>  <r_i_glide_lipo>  (102) 
-0.186019

>  <r_i_glide_hbond>  (102) 
-0.346118

>  <r_i_glide_metal>  (102) 
-0

>  <r_i_glide_rewards>  (102) 
-1.61335

>  <r_i_glide_evdw>  (102) 
-18.1374

>  <r_i_glide_ecoul>  (102) 
-4.72803

>  <r_i_glide_erotb>  (102) 
0.767993

>  <r_i_glide_esite>  (102) 
-0.0543182

>  <r_i_glide_emodel>  (102) 
-27.2427

>  <r_i_glide_energy>  (102) 
-22.8654

>  <r_i_glide_einternal>  (102) 
0.475756

>  <r_i_glide_intrahb_reward>  (102) 
-0

>  <i_i_glide_confnum>  (102) 
2

>  <i_i_glide_posenum>  (102) 
1

>  <r_i_glide_eff_state_penalty>  (102) 
0

>  <ligand_id>  (102) 
28

>  <original_smiles>  (102) 
CC1(C)CN(C(=O)OC2C3CC4CC(C3)CC2C4)C1

>  <smiles>  (102) 
[H]C([H])([H])C1(C([H])([H])[H])C([H])([H])N(C(=O)OC2([H])C3([H])C([H])([H])C4([H])C([H])([H])C([H])(C3([H])[H])C([H])([H])C2([H])C4([H])[H])C1([H])[H]

$$$$
28:0:1
     RDKit          3D

 44 47  0  0  1  0  0  0  0  0999 V2000
    4.7450   -3.0961    1.2986 C   0  0  0  0  0  0  0  0  0  0  0  0
    4.2507   -4.2412    0.4089 C   0  0  0  0  0  0  0  0  0  0  0  0
    5.0574   -4.2021   -0.8825 C   0  0  0  0  0  0  0  0  0  0  0  0
    4.1599   -5.6246    1.0899 C   0  0  0  0  0  0  0  0  0  0  0  0
    2.7193   -5.4257    1.1470 N   0  0  0  0  0  0  0  0  0  0  0  0
    1.7333   -6.3784    1.3192 C   0  0  0  0  0  0  0  0  0  0  0  0
    0.5590   -6.2599    0.9449 O   0  0  0  0  0  0  0  0  0  0  0  0
    2.2563   -7.4395    1.9551 O   0  0  0  0  0  0  0  0  0  0  0  0
    1.4131   -8.4919    2.3807 C   0  0  2  0  0  0  0  0  0  0  0  0
    0.8297   -8.1606    3.7722 C   0  0  2  0  0  0  0  0  0  0  0  0
    1.9517   -8.0598    4.8329 C   0  0  0  0  0  0  0  0  0  0  0  0
    2.7111   -9.3945    4.8997 C   0  0  1  0  0  0  0  0  0  0  0  0
    1.7236  -10.5125    5.2927 C   0  0  0  0  0  0  0  0  0  0  0  0
    0.6052  -10.6090    4.2365 C   0  0  1  0  0  0  0  0  0  0  0  0
   -0.1536   -9.2722    4.1614 C   0  0  0  0  0  0  0  0  0  0  0  0
    1.2261  -10.9345    2.8586 C   0  0  0  0  0  0  0  0  0  0  0  0
    2.2037   -9.8049    2.4536 C   0  0  2  0  0  0  0  0  0  0  0  0
    3.3307   -9.7171    3.5205 C   0  0  0  0  0  0  0  0  0  0  0  0
    2.7214   -4.3142    0.2220 C   0  0  0  0  0  0  0  0  0  0  0  0
    5.8081   -3.1817    1.5374 H   0  0  0  0  0  0  0  0  0  0  0  0
    4.2122   -3.0749    2.2500 H   0  0  0  0  0  0  0  0  0  0  0  0
    4.5923   -2.1173    0.8358 H   0  0  0  0  0  0  0  0  0  0  0  0
    4.7559   -5.0205   -1.5343 H   0  0  0  0  0  0  0  0  0  0  0  0
    6.1299   -4.3121   -0.7023 H   0  0  0  0  0  0  0  0  0  0  0  0
    4.8961   -3.2739   -1.4379 H   0  0  0  0  0  0  0  0  0  0  0  0
    4.4514   -6.4550    0.4540 H   0  0  0  0  0  0  0  0  0  0  0  0
    4.6638   -5.6645    2.0516 H   0  0  0  0  0  0  0  0  0  0  0  0
    0.5991   -8.6434    1.6660 H   0  0  0  0  0  0  0  0  0  0  0  0
    0.2800   -7.2299    3.7260 H   0  0  0  0  0  0  0  0  0  0  0  0
    2.6437   -7.2521    4.5921 H   0  0  0  0  0  0  0  0  0  0  0  0
    1.5286   -7.8163    5.8069 H   0  0  0  0  0  0  0  0  0  0  0  0
    3.4962   -9.3349    5.6634 H   0  0  0  0  0  0  0  0  0  0  0  0
    2.2398  -11.4714    5.3697 H   0  0  0  0  0  0  0  0  0  0  0  0
    1.2929  -10.2968    6.2732 H   0  0  0  0  0  0  0  0  0  0  0  0
   -0.0773  -11.4147    4.5130 H   0  0  0  0  0  0  0  0  0  0  0  0
   -0.6331   -9.0555    5.1169 H   0  0  0  0  0  0  0  0  0  0  0  0
   -0.9521   -9.3406    3.4145 H   0  0  0  0  0  0  0  0  0  0  0  0
    1.7443  -11.8979    2.9062 H   0  0  0  0  0  0  0  0  0  0  0  0
    0.4261  -11.0294    2.1241 H   0  0  0  0  0  0  0  0  0  0  0  0
    2.6396  -10.0444    1.4806 H   0  0  0  0  0  0  0  0  0  0  0  0
    4.0602   -8.9568    3.2459 H   0  0  0  0  0  0  0  0  0  0  0  0
    3.8718  -10.6667    3.5643 H   0  0  0  0  0  0  0  0  0  0  0  0
    2.2098   -3.4152    0.5659 H   0  0  0  0  0  0  0  0  0  0  0  0
    2.3984   -4.5975   -0.7777 H   0  0  0  0  0  0  0  0  0  0  0  0
  1  2  1  0
  1 20  1  0
  1 21  1  0
  1 22  1  0
  2 19  1  0
  2  3  1  0
  2  4  1  0
  3 23  1  0
  3 24  1  0
  3 25  1  0
  4  5  1  0
  4 26  1  0
  4 27  1  0
  5  6  1  0
  5 19  1  0
  6  7  2  0
  6  8  1  0
  8  9  1  0
  9 17  1  0
  9 10  1  0
  9 28  1  6
 10 15  1  0
 10 11  1  0
 10 29  1  6
 11 12  1  0
 11 30  1  0
 11 31  1  0
 12 18  1  0
 12 13  1  0
 12 32  1  1
 13 14  1  0
 13 33  1  0
 13 34  1  0
 14 15  1  0
 14 16  1  0
 14 35  1  1
 15 36  1  0
 15 37  1  0
 16 17  1  0
 16 38  1  0
 16 39  1  0
 17 18  1  0
 17 40  1  6
 18 41  1  0
 18 42  1  0
 19 43  1  0
 19 44  1  0
M  END
>  <i_m_ct_stereo_status>  (103) 
1

>  <s_m_source_file>  (103) 
/var/tmp/pbs.5076255.sched01/tmp361wbqj1/0nt8_y6ui.sdf

>  <i_m_source_file_index>  (103) 
36

>  <i_lp_mmshare_version>  (103) 
48012

>  <i_f3d_flags>  (103) 
0

>  <s_epik_input>  (103) 
W0NIM11DMShbQ0gzXSlbQ0gyXU4oW0NIMl0xKUMoPU8pT1tDQEhdKFtDQEBIXTIzKVtDQEhdNFtDSDJdW0NAQEhdKFtDSDJdMylbQ0gyXVtDQEBIXShbQ0gyXTIpW0NIMl00

>  <s_epik_cmdline>  (103) 
J2VwaWtfcHl0aG9uJywgJy1waHQnLCAnMi4wJywgJy1waCcsICc3LjAnLCAnLXRuJywgJzgnLCAnLW1hJywgJzIwMCcsICctaW1hZScsICc8aW5maWxlLm1hZT4nLCAnLW9tYWUnLCAnPG91dGZpbGUubWFlPic=

>  <r_lp_tautomer_probability>  (103) 
1

>  <r_epik_Ionization_Penalty>  (103) 
1.80822e-05

>  <r_epik_Ionization_Penalty_Charging>  (103) 
0

>  <r_epik_Ionization_Penalty_Neutral>  (103) 
1.80822e-05

>  <r_epik_State_Penalty>  (103) 
-0

>  <r_epik_Charging_Adjusted_Penalty>  (103) 
0

>  <i_epik_Tot_Q>  (103) 
0

>  <i_epik_Tot_abs_Q>  (103) 
0

>  <s_epik_Chemistry_Notes>  (103) 
This compound has an ester and may undergo hydrolysis at high or low pH.

>  <s_lp_Force_Field>  (103) 
OPLS3e

>  <r_lp_Energy>  (103) 
3.99516

>  <b_lp_Chiralities_Consistent>  (103) 
1

>  <s_lp_Variant>  (103) 
28:0-1

>  <s_i_glide_gridfile>  (103) 
pfpi4k_grid

>  <i_i_glide_lignum>  (103) 
36

>  <i_i_glide_rotatable_bonds>  (103) 
3

>  <r_i_docking_score>  (103) 
-3.01684

>  <r_i_glide_ligand_efficiency>  (103) 
-0.158781

>  <r_i_glide_ligand_efficiency_sa>  (103) 
-0.423692

>  <r_i_glide_ligand_efficiency_ln>  (103) 
-0.764834

>  <r_i_glide_gscore>  (103) 
-3.01684

>  <r_i_glide_lipo>  (103) 
-0.317666

>  <r_i_glide_hbond>  (103) 
-0.16

>  <r_i_glide_metal>  (103) 
-0

>  <r_i_glide_rewards>  (103) 
-1.61335

>  <r_i_glide_evdw>  (103) 
-17.9051

>  <r_i_glide_ecoul>  (103) 
-4.87417

>  <r_i_glide_erotb>  (103) 
0.767993

>  <r_i_glide_esite>  (103) 
-0.0674364

>  <r_i_glide_emodel>  (103) 
-26.9148

>  <r_i_glide_energy>  (103) 
-22.7792

>  <r_i_glide_einternal>  (103) 
0.875843

>  <r_i_glide_intrahb_reward>  (103) 
-0

>  <i_i_glide_confnum>  (103) 
4

>  <i_i_glide_posenum>  (103) 
10

>  <r_i_glide_eff_state_penalty>  (103) 
0

>  <ligand_id>  (103) 
28

>  <original_smiles>  (103) 
CC1(C)CN(C(=O)OC2C3CC4CC(C3)CC2C4)C1

>  <smiles>  (103) 
[H]C([H])([H])C1(C([H])([H])[H])C([H])([H])N(C(=O)OC2([H])C3([H])C([H])([H])C4([H])C([H])([H])C([H])(C3([H])[H])C([H])([H])C2([H])C4([H])[H])C1([H])[H]

$$$$
28:0:2
     RDKit          3D

 44 47  0  0  1  0  0  0  0  0999 V2000
    4.6662   -2.1355    0.2478 C   0  0  0  0  0  0  0  0  0  0  0  0
    4.2686   -3.4453   -0.4447 C   0  0  0  0  0  0  0  0  0  0  0  0
    4.9498   -3.4773   -1.8108 C   0  0  0  0  0  0  0  0  0  0  0  0
    4.4302   -4.7092    0.4075 C   0  0  0  0  0  0  0  0  0  0  0  0
    2.9944   -4.6731    0.6202 N   0  0  0  0  0  0  0  0  0  0  0  0
    2.2043   -5.7666    0.9099 C   0  0  0  0  0  0  0  0  0  0  0  0
    1.0464   -5.9404    0.5238 O   0  0  0  0  0  0  0  0  0  0  0  0
    2.8931   -6.6320    1.6738 O   0  0  0  0  0  0  0  0  0  0  0  0
    2.3592   -7.9181    1.9496 C   0  0  2  0  0  0  0  0  0  0  0  0
    1.1690   -7.8794    2.9474 C   0  0  2  0  0  0  0  0  0  0  0  0
    1.6388   -7.3652    4.3268 C   0  0  0  0  0  0  0  0  0  0  0  0
    2.7404   -8.2936    4.8775 C   0  0  1  0  0  0  0  0  0  0  0  0
    2.1728   -9.7246    5.0130 C   0  0  0  0  0  0  0  0  0  0  0  0
    1.7126  -10.2396    3.6307 C   0  0  1  0  0  0  0  0  0  0  0  0
    0.6125   -9.3085    3.0763 C   0  0  0  0  0  0  0  0  0  0  0  0
    2.9185  -10.2487    2.6602 C   0  0  0  0  0  0  0  0  0  0  0  0
    3.4786   -8.8183    2.5112 C   0  0  2  0  0  0  0  0  0  0  0  0
    3.9386   -8.3041    3.8990 C   0  0  0  0  0  0  0  0  0  0  0  0
    2.7587   -3.7315   -0.4626 C   0  0  0  0  0  0  0  0  0  0  0  0
    5.7461   -2.0530    0.3853 H   0  0  0  0  0  0  0  0  0  0  0  0
    4.2135   -2.0598    1.2410 H   0  0  0  0  0  0  0  0  0  0  0  0
    4.3408   -1.2568   -0.3135 H   0  0  0  0  0  0  0  0  0  0  0  0
    4.7077   -4.4068   -2.3348 H   0  0  0  0  0  0  0  0  0  0  0  0
    6.0383   -3.4286   -1.7305 H   0  0  0  0  0  0  0  0  0  0  0  0
    4.6202   -2.6555   -2.4503 H   0  0  0  0  0  0  0  0  0  0  0  0
    4.7531   -5.5883   -0.1558 H   0  0  0  0  0  0  0  0  0  0  0  0
    5.0321   -4.5692    1.3063 H   0  0  0  0  0  0  0  0  0  0  0  0
    2.0222   -8.3429    1.0036 H   0  0  0  0  0  0  0  0  0  0  0  0
    0.3608   -7.2441    2.5795 H   0  0  0  0  0  0  0  0  0  0  0  0
    2.0154   -6.3438    4.2480 H   0  0  0  0  0  0  0  0  0  0  0  0
    0.7976   -7.3275    5.0188 H   0  0  0  0  0  0  0  0  0  0  0  0
    3.0620   -7.9355    5.8594 H   0  0  0  0  0  0  0  0  0  0  0  0
    2.9348  -10.3937    5.4183 H   0  0  0  0  0  0  0  0  0  0  0  0
    1.3372   -9.7333    5.7171 H   0  0  0  0  0  0  0  0  0  0  0  0
    1.3091  -11.2510    3.7302 H   0  0  0  0  0  0  0  0  0  0  0  0
   -0.2613   -9.3198    3.7304 H   0  0  0  0  0  0  0  0  0  0  0  0
    0.2813   -9.6607    2.0963 H   0  0  0  0  0  0  0  0  0  0  0  0
    3.6959  -10.9181    3.0398 H   0  0  0  0  0  0  0  0  0  0  0  0
    2.6154  -10.6322    1.6851 H   0  0  0  0  0  0  0  0  0  0  0  0
    4.3224   -8.8269    1.8189 H   0  0  0  0  0  0  0  0  0  0  0  0
    4.3741   -7.3072    3.8188 H   0  0  0  0  0  0  0  0  0  0  0  0
    4.7289   -8.9533    4.2861 H   0  0  0  0  0  0  0  0  0  0  0  0
    2.1567   -2.8631   -0.1961 H   0  0  0  0  0  0  0  0  0  0  0  0
    2.3974   -4.2091   -1.3757 H   0  0  0  0  0  0  0  0  0  0  0  0
  1  2  1  0
  1 20  1  0
  1 21  1  0
  1 22  1  0
  2 19  1  0
  2  3  1  0
  2  4  1  0
  3 23  1  0
  3 24  1  0
  3 25  1  0
  4  5  1  0
  4 26  1  0
  4 27  1  0
  5  6  1  0
  5 19  1  0
  6  7  2  0
  6  8  1  0
  8  9  1  0
  9 17  1  0
  9 10  1  0
  9 28  1  6
 10 15  1  0
 10 11  1  0
 10 29  1  6
 11 12  1  0
 11 30  1  0
 11 31  1  0
 12 18  1  0
 12 13  1  0
 12 32  1  1
 13 14  1  0
 13 33  1  0
 13 34  1  0
 14 15  1  0
 14 16  1  0
 14 35  1  1
 15 36  1  0
 15 37  1  0
 16 17  1  0
 16 38  1  0
 16 39  1  0
 17 18  1  0
 17 40  1  6
 18 41  1  0
 18 42  1  0
 19 43  1  0
 19 44  1  0
M  END
>  <i_m_ct_stereo_status>  (104) 
1

>  <s_m_source_file>  (104) 
/var/tmp/pbs.5076255.sched01/tmp361wbqj1/0nt8_y6ui.sdf

>  <i_m_source_file_index>  (104) 
36

>  <i_lp_mmshare_version>  (104) 
48012

>  <i_f3d_flags>  (104) 
0

>  <s_epik_input>  (104) 
W0NIM11DMShbQ0gzXSlbQ0gyXU4oW0NIMl0xKUMoPU8pT1tDQEhdKFtDQEBIXTIzKVtDQEhdNFtDSDJdW0NAQEhdKFtDSDJdMylbQ0gyXVtDQEBIXShbQ0gyXTIpW0NIMl00

>  <s_epik_cmdline>  (104) 
J2VwaWtfcHl0aG9uJywgJy1waHQnLCAnMi4wJywgJy1waCcsICc3LjAnLCAnLXRuJywgJzgnLCAnLW1hJywgJzIwMCcsICctaW1hZScsICc8aW5maWxlLm1hZT4nLCAnLW9tYWUnLCAnPG91dGZpbGUubWFlPic=

>  <r_lp_tautomer_probability>  (104) 
1

>  <r_epik_Ionization_Penalty>  (104) 
1.80822e-05

>  <r_epik_Ionization_Penalty_Charging>  (104) 
0

>  <r_epik_Ionization_Penalty_Neutral>  (104) 
1.80822e-05

>  <r_epik_State_Penalty>  (104) 
-0

>  <r_epik_Charging_Adjusted_Penalty>  (104) 
0

>  <i_epik_Tot_Q>  (104) 
0

>  <i_epik_Tot_abs_Q>  (104) 
0

>  <s_epik_Chemistry_Notes>  (104) 
This compound has an ester and may undergo hydrolysis at high or low pH.

>  <s_lp_Force_Field>  (104) 
OPLS3e

>  <r_lp_Energy>  (104) 
3.99516

>  <b_lp_Chiralities_Consistent>  (104) 
1

>  <s_lp_Variant>  (104) 
28:0-1

>  <s_i_glide_gridfile>  (104) 
pfpi4k_grid

>  <i_i_glide_lignum>  (104) 
36

>  <i_i_glide_rotatable_bonds>  (104) 
3

>  <r_i_docking_score>  (104) 
-2.72926

>  <r_i_glide_ligand_efficiency>  (104) 
-0.143645

>  <r_i_glide_ligand_efficiency_sa>  (104) 
-0.383303

>  <r_i_glide_ligand_efficiency_ln>  (104) 
-0.691926

>  <r_i_glide_gscore>  (104) 
-2.72926

>  <r_i_glide_lipo>  (104) 
-0.167817

>  <r_i_glide_hbond>  (104) 
-0.16

>  <r_i_glide_metal>  (104) 
-0

>  <r_i_glide_rewards>  (104) 
-1.61335

>  <r_i_glide_evdw>  (104) 
-15.6335

>  <r_i_glide_ecoul>  (104) 
-4.7741

>  <r_i_glide_erotb>  (104) 
0.767993

>  <r_i_glide_esite>  (104) 
-0.0582959

>  <r_i_glide_emodel>  (104) 
-24.1288

>  <r_i_glide_energy>  (104) 
-20.4076

>  <r_i_glide_einternal>  (104) 
0.751692

>  <r_i_glide_intrahb_reward>  (104) 
-0

>  <i_i_glide_confnum>  (104) 
4

>  <i_i_glide_posenum>  (104) 
2

>  <r_i_glide_eff_state_penalty>  (104) 
0

>  <ligand_id>  (104) 
28

>  <original_smiles>  (104) 
CC1(C)CN(C(=O)OC2C3CC4CC(C3)CC2C4)C1

>  <smiles>  (104) 
[H]C([H])([H])C1(C([H])([H])[H])C([H])([H])N(C(=O)OC2([H])C3([H])C([H])([H])C4([H])C([H])([H])C([H])(C3([H])[H])C([H])([H])C2([H])C4([H])[H])C1([H])[H]

$$$$
29:0:0
     RDKit          3D

 45 48  0  0  1  0  0  0  0  0999 V2000
   -1.5583   -9.2149    2.4289 C   0  0  0  0  0  0  0  0  0  0  0  0
   -0.2281   -8.9049    2.8105 O   0  0  0  0  0  0  0  0  0  0  0  0
    0.2348   -7.6677    2.6006 C   0  0  0  0  0  0  0  0  0  0  0  0
   -0.4101   -6.7484    2.0845 O   0  0  0  0  0  0  0  0  0  0  0  0
    1.6822   -7.4906    3.0795 C   0  0  0  0  0  0  0  0  0  0  0  0
    2.1121   -6.0087    3.2715 C   0  0  0  0  0  0  0  0  0  0  0  0
    3.4533   -5.6305    2.5619 C   0  0  1  0  0  0  0  0  0  0  0  0
    3.3613   -6.0405    1.2229 O   0  0  0  0  0  0  0  0  0  0  0  0
    2.6539   -5.2694    0.3871 C   0  0  0  0  0  0  0  0  0  0  0  0
    1.4779   -5.4642    0.0951 O   0  0  0  0  0  0  0  0  0  0  0  0
    3.5221   -4.2550   -0.3532 C   0  0  0  0  0  0  0  0  0  0  0  0
    4.2941   -3.2683    0.5326 C   0  0  1  0  0  0  0  0  0  0  0  0
    4.3477   -1.8893   -0.1165 C   0  0  0  0  0  0  0  0  0  0  0  0
    4.3244   -1.7804   -1.3436 O   0  0  0  0  0  0  0  0  0  0  0  0
    4.4753   -0.6945    0.7475 C   0  0  0  0  0  0  0  0  0  0  0  0
    4.5103   -0.7553    2.0966 C   0  0  0  0  0  0  0  0  0  0  0  0
    4.4216   -2.0197    2.8456 C   0  0  0  0  0  0  0  0  0  0  0  0
    4.3903   -2.0489    4.0736 O   0  0  0  0  0  0  0  0  0  0  0  0
    4.3597   -3.3100    2.0667 C   0  0  1  0  0  0  0  0  0  0  0  0
    3.5261   -4.2423    2.7722 O   0  0  0  0  0  0  0  0  0  0  0  0
    5.5778   -3.7185    1.2579 C   0  0  1  0  0  0  0  0  0  0  0  0
    6.1172   -5.1440    1.2648 C   0  0  0  0  0  0  0  0  0  0  0  0
    6.0690   -5.7688    2.6665 C   0  0  0  0  0  0  0  0  0  0  0  0
    4.7135   -6.3439    3.1587 C   0  0  1  0  0  0  0  0  0  0  0  0
    4.7134   -6.3755    4.6977 C   0  0  0  0  0  0  0  0  0  0  0  0
   -1.7766  -10.2567    2.6592 H   0  0  0  0  0  0  0  0  0  0  0  0
   -1.7003   -9.0579    1.3578 H   0  0  0  0  0  0  0  0  0  0  0  0
   -2.2706   -8.5852    2.9658 H   0  0  0  0  0  0  0  0  0  0  0  0
    1.8030   -8.0256    4.0219 H   0  0  0  0  0  0  0  0  0  0  0  0
    2.3339   -8.0063    2.3763 H   0  0  0  0  0  0  0  0  0  0  0  0
    1.3519   -5.3076    2.9214 H   0  0  0  0  0  0  0  0  0  0  0  0
    2.1943   -5.7861    4.3344 H   0  0  0  0  0  0  0  0  0  0  0  0
    4.2480   -4.8082   -0.9458 H   0  0  0  0  0  0  0  0  0  0  0  0
    2.8885   -3.7236   -1.0626 H   0  0  0  0  0  0  0  0  0  0  0  0
    4.5431    0.2643    0.2533 H   0  0  0  0  0  0  0  0  0  0  0  0
    4.6031    0.1543    2.6765 H   0  0  0  0  0  0  0  0  0  0  0  0
    6.3945   -2.9972    1.2734 H   0  0  0  0  0  0  0  0  0  0  0  0
    5.6455   -5.7748    0.5121 H   0  0  0  0  0  0  0  0  0  0  0  0
    7.1592   -5.0878    0.9475 H   0  0  0  0  0  0  0  0  0  0  0  0
    6.7941   -6.5859    2.6930 H   0  0  0  0  0  0  0  0  0  0  0  0
    6.4433   -5.0380    3.3847 H   0  0  0  0  0  0  0  0  0  0  0  0
    4.6593   -7.3813    2.8239 H   0  0  0  0  0  0  0  0  0  0  0  0
    4.6538   -5.3738    5.1210 H   0  0  0  0  0  0  0  0  0  0  0  0
    5.6318   -6.8330    5.0703 H   0  0  0  0  0  0  0  0  0  0  0  0
    3.8979   -6.9722    5.1047 H   0  0  0  0  0  0  0  0  0  0  0  0
  1  2  1  0
  1 26  1  0
  1 27  1  0
  1 28  1  0
  2  3  1  0
  3  4  2  0
  3  5  1  0
  5  6  1  0
  5 29  1  0
  5 30  1  0
  7  6  1  1
  6 31  1  0
  6 32  1  0
  7 20  1  0
  7 24  1  0
  7  8  1  0
  8  9  1  0
  9 10  2  0
  9 11  1  0
 12 11  1  6
 11 33  1  0
 11 34  1  0
 12 19  1  0
 12 21  1  0
 12 13  1  0
 13 14  2  0
 13 15  1  0
 15 16  2  0
 15 35  1  0
 16 17  1  0
 16 36  1  0
 17 18  2  0
 19 17  1  1
 19 20  1  0
 19 21  1  0
 21 22  1  0
 21 37  1  1
 22 23  1  0
 22 38  1  0
 22 39  1  0
 23 24  1  0
 23 40  1  0
 23 41  1  0
 24 25  1  0
 24 42  1  6
 25 43  1  0
 25 44  1  0
 25 45  1  0
M  END
>  <i_m_ct_stereo_status>  (105) 
1

>  <s_m_source_file>  (105) 
/var/tmp/pbs.5076255.sched01/tmp361wbqj1/0nt8_y6ui.sdf

>  <i_m_source_file_index>  (105) 
37

>  <i_lp_mmshare_version>  (105) 
48012

>  <i_f3d_flags>  (105) 
0

>  <s_epik_input>  (105) 
W0NIM11PQyg9TylbQ0gyXVtDSDJdW0NAXShPMSkoT0MoPU8pW0NIMl0yKVtDQEhdKFtDSDNdKVtDSDJdW0NIMl1bQ0BASF0zW0NAXTEoW0NAXTIzNClDKD1PKVtDSF09W0NIXUM0PU8=

>  <s_epik_cmdline>  (105) 
J2VwaWtfcHl0aG9uJywgJy1waHQnLCAnMi4wJywgJy1waCcsICc3LjAnLCAnLXRuJywgJzgnLCAnLW1hJywgJzIwMCcsICctaW1hZScsICc8aW5maWxlLm1hZT4nLCAnLW9tYWUnLCAnPG91dGZpbGUubWFlPic=

>  <r_lp_tautomer_probability>  (105) 
1

>  <r_epik_Ionization_Penalty>  (105) 
0

>  <r_epik_Ionization_Penalty_Charging>  (105) 
0

>  <r_epik_Ionization_Penalty_Neutral>  (105) 
0

>  <r_epik_State_Penalty>  (105) 
-0

>  <r_epik_Charging_Adjusted_Penalty>  (105) 
0

>  <i_epik_Tot_Q>  (105) 
0

>  <i_epik_Tot_abs_Q>  (105) 
0

>  <s_epik_Chemistry_Notes>  (105) 
This compound has an ester and may undergo hydrolysis at high or low pH.

>  <s_lp_Force_Field>  (105) 
OPLS3e

>  <r_lp_Energy>  (105) 
50.5697

>  <b_lp_Chiralities_Consistent>  (105) 
1

>  <s_lp_Variant>  (105) 
29:0-1

>  <s_i_glide_gridfile>  (105) 
pfpi4k_grid

>  <i_i_glide_lignum>  (105) 
37

>  <i_i_glide_rotatable_bonds>  (105) 
4

>  <r_i_docking_score>  (105) 
-3.70345

>  <r_i_glide_ligand_efficiency>  (105) 
-0.148138

>  <r_i_glide_ligand_efficiency_sa>  (105) 
-0.433158

>  <r_i_glide_ligand_efficiency_ln>  (105) 
-0.877829

>  <r_i_glide_gscore>  (105) 
-3.70345

>  <r_i_glide_lipo>  (105) 
-0.639089

>  <r_i_glide_hbond>  (105) 
-0.273905

>  <r_i_glide_metal>  (105) 
-0

>  <r_i_glide_rewards>  (105) 
-1.06629

>  <r_i_glide_evdw>  (105) 
-22.3228

>  <r_i_glide_ecoul>  (105) 
-6.43249

>  <r_i_glide_erotb>  (105) 
0.470609

>  <r_i_glide_esite>  (105) 
-0.113762

>  <r_i_glide_emodel>  (105) 
-34.3165

>  <r_i_glide_energy>  (105) 
-28.7553

>  <r_i_glide_einternal>  (105) 
3.69528

>  <r_i_glide_intrahb_reward>  (105) 
-0

>  <i_i_glide_confnum>  (105) 
5

>  <i_i_glide_posenum>  (105) 
4

>  <r_i_glide_eff_state_penalty>  (105) 
0

>  <ligand_id>  (105) 
29

>  <original_smiles>  (105) 
COC(=O)CCC12OC(=O)CC34C(=O)C=CC(=O)C3(O1)C4CCC2C

>  <smiles>  (105) 
[H]C1=C([H])C(=O)C23C([H])([H])C(=O)OC4(C([H])([H])C([H])([H])C(=O)OC([H])([H])[H])OC2(C1=O)C3([H])C([H])([H])C([H])([H])C4([H])C([H])([H])[H]

$$$$
29:0:1
     RDKit          3D

 45 48  0  0  1  0  0  0  0  0999 V2000
   -1.1378   -8.7936    2.7077 C   0  0  0  0  0  0  0  0  0  0  0  0
    0.0186   -8.2825    3.3491 O   0  0  0  0  0  0  0  0  0  0  0  0
    0.4509   -7.0655    3.0029 C   0  0  0  0  0  0  0  0  0  0  0  0
   -0.0925   -6.3572    2.1483 O   0  0  0  0  0  0  0  0  0  0  0  0
    1.6663   -6.5950    3.8039 C   0  0  0  0  0  0  0  0  0  0  0  0
    2.1724   -5.1661    3.4616 C   0  0  0  0  0  0  0  0  0  0  0  0
    3.4953   -5.1320    2.6259 C   0  0  1  0  0  0  0  0  0  0  0  0
    3.2698   -5.8982    1.4675 O   0  0  0  0  0  0  0  0  0  0  0  0
    2.6650   -5.3105    0.4209 C   0  0  0  0  0  0  0  0  0  0  0  0
    1.4805   -5.4501    0.1038 O   0  0  0  0  0  0  0  0  0  0  0  0
    3.6210   -4.6308   -0.5463 C   0  0  0  0  0  0  0  0  0  0  0  0
    4.5007   -3.5310    0.0192 C   0  0  1  0  0  0  0  0  0  0  0  0
    4.6439   -2.4156   -1.0038 C   0  0  0  0  0  0  0  0  0  0  0  0
    4.5505   -2.6428   -2.2083 O   0  0  0  0  0  0  0  0  0  0  0  0
    4.9237   -1.0518   -0.5189 C   0  0  0  0  0  0  0  0  0  0  0  0
    5.0150   -0.7298    0.7865 C   0  0  0  0  0  0  0  0  0  0  0  0
    4.8418   -1.7106    1.8762 C   0  0  0  0  0  0  0  0  0  0  0  0
    4.8701   -1.3828    3.0601 O   0  0  0  0  0  0  0  0  0  0  0  0
    4.6213   -3.1574    1.4984 C   0  0  1  0  0  0  0  0  0  0  0  0
    3.7049   -3.7535    2.4299 O   0  0  0  0  0  0  0  0  0  0  0  0
    5.7555   -3.9027    0.8199 C   0  0  1  0  0  0  0  0  0  0  0  0
    6.1416   -5.3218    1.2067 C   0  0  0  0  0  0  0  0  0  0  0  0
    6.1001   -5.5146    2.7248 C   0  0  0  0  0  0  0  0  0  0  0  0
    4.7207   -5.7772    3.3834 C   0  0  1  0  0  0  0  0  0  0  0  0
    4.7926   -5.3765    4.8713 C   0  0  0  0  0  0  0  0  0  0  0  0
   -1.4135   -9.7646    3.1193 H   0  0  0  0  0  0  0  0  0  0  0  0
   -0.9572   -8.8966    1.6379 H   0  0  0  0  0  0  0  0  0  0  0  0
   -1.9780   -8.1042    2.8321 H   0  0  0  0  0  0  0  0  0  0  0  0
    1.3606   -6.6067    4.8515 H   0  0  0  0  0  0  0  0  0  0  0  0
    2.4689   -7.3316    3.7400 H   0  0  0  0  0  0  0  0  0  0  0  0
    1.4169   -4.5825    2.9302 H   0  0  0  0  0  0  0  0  0  0  0  0
    2.3280   -4.6026    4.3804 H   0  0  0  0  0  0  0  0  0  0  0  0
    4.2586   -5.3984   -0.9851 H   0  0  0  0  0  0  0  0  0  0  0  0
    2.9975   -4.2301   -1.3444 H   0  0  0  0  0  0  0  0  0  0  0  0
    5.0489   -0.2824   -1.2719 H   0  0  0  0  0  0  0  0  0  0  0  0
    5.2181    0.2903    1.0702 H   0  0  0  0  0  0  0  0  0  0  0  0
    6.6409   -3.2995    0.6022 H   0  0  0  0  0  0  0  0  0  0  0  0
    5.5674   -6.0786    0.6766 H   0  0  0  0  0  0  0  0  0  0  0  0
    7.1656   -5.4726    0.8662 H   0  0  0  0  0  0  0  0  0  0  0  0
    6.7437   -6.3664    2.9737 H   0  0  0  0  0  0  0  0  0  0  0  0
    6.5746   -4.6543    3.1902 H   0  0  0  0  0  0  0  0  0  0  0  0
    4.5647   -6.8526    3.3590 H   0  0  0  0  0  0  0  0  0  0  0  0
    4.8572   -4.2967    4.9995 H   0  0  0  0  0  0  0  0  0  0  0  0
    5.6772   -5.8110    5.3439 H   0  0  0  0  0  0  0  0  0  0  0  0
    3.9428   -5.7397    5.4473 H   0  0  0  0  0  0  0  0  0  0  0  0
  1  2  1  0
  1 26  1  0
  1 27  1  0
  1 28  1  0
  2  3  1  0
  3  4  2  0
  3  5  1  0
  5  6  1  0
  5 29  1  0
  5 30  1  0
  7  6  1  1
  6 31  1  0
  6 32  1  0
  7 20  1  0
  7 24  1  0
  7  8  1  0
  8  9  1  0
  9 10  2  0
  9 11  1  0
 12 11  1  1
 11 33  1  0
 11 34  1  0
 12 19  1  0
 12 21  1  0
 12 13  1  0
 13 14  2  0
 13 15  1  0
 15 16  2  0
 15 35  1  0
 16 17  1  0
 16 36  1  0
 17 18  2  0
 19 17  1  6
 19 20  1  0
 19 21  1  0
 21 22  1  0
 21 37  1  6
 22 23  1  0
 22 38  1  0
 22 39  1  0
 23 24  1  0
 23 40  1  0
 23 41  1  0
 24 25  1  0
 24 42  1  1
 25 43  1  0
 25 44  1  0
 25 45  1  0
M  END
>  <i_m_ct_stereo_status>  (106) 
1

>  <s_m_source_file>  (106) 
/var/tmp/pbs.5076255.sched01/tmp361wbqj1/0nt8_y6ui.sdf

>  <i_m_source_file_index>  (106) 
37

>  <i_lp_mmshare_version>  (106) 
48012

>  <i_f3d_flags>  (106) 
0

>  <s_epik_input>  (106) 
W0NIM11PQyg9TylbQ0gyXVtDSDJdW0NAXShPMSkoT0MoPU8pW0NIMl0yKVtDQEhdKFtDSDNdKVtDSDJdW0NIMl1bQ0BASF0zW0NAXTEoW0NAXTIzNClDKD1PKVtDSF09W0NIXUM0PU8=

>  <s_epik_cmdline>  (106) 
J2VwaWtfcHl0aG9uJywgJy1waHQnLCAnMi4wJywgJy1waCcsICc3LjAnLCAnLXRuJywgJzgnLCAnLW1hJywgJzIwMCcsICctaW1hZScsICc8aW5maWxlLm1hZT4nLCAnLW9tYWUnLCAnPG91dGZpbGUubWFlPic=

>  <r_lp_tautomer_probability>  (106) 
1

>  <r_epik_Ionization_Penalty>  (106) 
0

>  <r_epik_Ionization_Penalty_Charging>  (106) 
0

>  <r_epik_Ionization_Penalty_Neutral>  (106) 
0

>  <r_epik_State_Penalty>  (106) 
-0

>  <r_epik_Charging_Adjusted_Penalty>  (106) 
0

>  <i_epik_Tot_Q>  (106) 
0

>  <i_epik_Tot_abs_Q>  (106) 
0

>  <s_epik_Chemistry_Notes>  (106) 
This compound has an ester and may undergo hydrolysis at high or low pH.

>  <s_lp_Force_Field>  (106) 
OPLS3e

>  <r_lp_Energy>  (106) 
50.5697

>  <b_lp_Chiralities_Consistent>  (106) 
1

>  <s_lp_Variant>  (106) 
29:0-1

>  <s_i_glide_gridfile>  (106) 
pfpi4k_grid

>  <i_i_glide_lignum>  (106) 
37

>  <i_i_glide_rotatable_bonds>  (106) 
4

>  <r_i_docking_score>  (106) 
-3.49005

>  <r_i_glide_ligand_efficiency>  (106) 
-0.139602

>  <r_i_glide_ligand_efficiency_sa>  (106) 
-0.408199

>  <r_i_glide_ligand_efficiency_ln>  (106) 
-0.827247

>  <r_i_glide_gscore>  (106) 
-3.49005

>  <r_i_glide_lipo>  (106) 
-0.370735

>  <r_i_glide_hbond>  (106) 
-0.337377

>  <r_i_glide_metal>  (106) 
-0

>  <r_i_glide_rewards>  (106) 
-1.11087

>  <r_i_glide_evdw>  (106) 
-19.9528

>  <r_i_glide_ecoul>  (106) 
-6.89906

>  <r_i_glide_erotb>  (106) 
0.470609

>  <r_i_glide_esite>  (106) 
-0.109179

>  <r_i_glide_emodel>  (106) 
-31.9584

>  <r_i_glide_energy>  (106) 
-26.8519

>  <r_i_glide_einternal>  (106) 
2.52069

>  <r_i_glide_intrahb_reward>  (106) 
-0

>  <i_i_glide_confnum>  (106) 
5

>  <i_i_glide_posenum>  (106) 
20

>  <r_i_glide_eff_state_penalty>  (106) 
0

>  <ligand_id>  (106) 
29

>  <original_smiles>  (106) 
COC(=O)CCC12OC(=O)CC34C(=O)C=CC(=O)C3(O1)C4CCC2C

>  <smiles>  (106) 
[H]C1=C([H])C(=O)C23C([H])([H])C(=O)OC4(C([H])([H])C([H])([H])C(=O)OC([H])([H])[H])OC2(C1=O)C3([H])C([H])([H])C([H])([H])C4([H])C([H])([H])[H]

$$$$
29:0:2
     RDKit          3D

 45 48  0  0  1  0  0  0  0  0999 V2000
    4.5507   -0.2665    0.4896 C   0  0  0  0  0  0  0  0  0  0  0  0
    4.6340   -1.6059    0.9498 O   0  0  0  0  0  0  0  0  0  0  0  0
    5.0105   -1.8550    2.2154 C   0  0  0  0  0  0  0  0  0  0  0  0
    5.3314   -1.0053    3.0474 O   0  0  0  0  0  0  0  0  0  0  0  0
    5.0339   -3.3481    2.5497 C   0  0  0  0  0  0  0  0  0  0  0  0
    3.6309   -3.9937    2.4502 C   0  0  0  0  0  0  0  0  0  0  0  0
    3.6347   -5.5584    2.5230 C   0  0  1  0  0  0  0  0  0  0  0  0
    4.1871   -5.9271    3.7604 O   0  0  0  0  0  0  0  0  0  0  0  0
    3.3859   -5.8778    4.8294 C   0  0  0  0  0  0  0  0  0  0  0  0
    3.2800   -4.9167    5.5906 O   0  0  0  0  0  0  0  0  0  0  0  0
    2.7063   -7.2100    5.1238 C   0  0  0  0  0  0  0  0  0  0  0  0
    1.8042   -7.7583    4.0074 C   0  0  1  0  0  0  0  0  0  0  0  0
    0.5622   -8.4173    4.5982 C   0  0  0  0  0  0  0  0  0  0  0  0
    0.5933   -8.8768    5.7393 O   0  0  0  0  0  0  0  0  0  0  0  0
   -0.6679   -8.4860    3.7830 C   0  0  0  0  0  0  0  0  0  0  0  0
   -0.7789   -7.9363    2.5565 C   0  0  0  0  0  0  0  0  0  0  0  0
    0.3252   -7.2071    1.9046 C   0  0  0  0  0  0  0  0  0  0  0  0
    0.1688   -6.6046    0.8426 O   0  0  0  0  0  0  0  0  0  0  0  0
    1.6636   -7.1579    2.6006 C   0  0  1  0  0  0  0  0  0  0  0  0
    2.2789   -5.8829    2.3432 O   0  0  0  0  0  0  0  0  0  0  0  0
    2.4291   -8.4539    2.7851 C   0  0  1  0  0  0  0  0  0  0  0  0
    3.9255   -8.5548    2.5171 C   0  0  0  0  0  0  0  0  0  0  0  0
    4.3328   -7.7636    1.2693 C   0  0  0  0  0  0  0  0  0  0  0  0
    4.5200   -6.2318    1.4114 C   0  0  1  0  0  0  0  0  0  0  0  0
    4.3482   -5.5708    0.0284 C   0  0  0  0  0  0  0  0  0  0  0  0
    4.2171   -0.2552   -0.5484 H   0  0  0  0  0  0  0  0  0  0  0  0
    5.5244    0.2233    0.5372 H   0  0  0  0  0  0  0  0  0  0  0  0
    3.8381    0.3147    1.0776 H   0  0  0  0  0  0  0  0  0  0  0  0
    5.7335   -3.8180    1.8612 H   0  0  0  0  0  0  0  0  0  0  0  0
    5.4367   -3.4900    3.5540 H   0  0  0  0  0  0  0  0  0  0  0  0
    2.9921   -3.5969    3.2436 H   0  0  0  0  0  0  0  0  0  0  0  0
    3.1374   -3.7046    1.5205 H   0  0  0  0  0  0  0  0  0  0  0  0
    3.4762   -7.9521    5.3309 H   0  0  0  0  0  0  0  0  0  0  0  0
    2.1391   -7.0878    6.0480 H   0  0  0  0  0  0  0  0  0  0  0  0
   -1.5123   -9.0090    4.2186 H   0  0  0  0  0  0  0  0  0  0  0  0
   -1.7101   -8.0150    2.0127 H   0  0  0  0  0  0  0  0  0  0  0  0
    1.9119   -9.3456    2.4243 H   0  0  0  0  0  0  0  0  0  0  0  0
    4.5271   -8.2977    3.3908 H   0  0  0  0  0  0  0  0  0  0  0  0
    4.1400   -9.6113    2.3418 H   0  0  0  0  0  0  0  0  0  0  0  0
    5.2785   -8.1729    0.9074 H   0  0  0  0  0  0  0  0  0  0  0  0
    3.6127   -7.9811    0.4832 H   0  0  0  0  0  0  0  0  0  0  0  0
    5.5549   -6.0655    1.7124 H   0  0  0  0  0  0  0  0  0  0  0  0
    3.3138   -5.6011   -0.3095 H   0  0  0  0  0  0  0  0  0  0  0  0
    4.9465   -6.0938   -0.7211 H   0  0  0  0  0  0  0  0  0  0  0  0
    4.6806   -4.5342    0.0011 H   0  0  0  0  0  0  0  0  0  0  0  0
  1  2  1  0
  1 26  1  0
  1 27  1  0
  1 28  1  0
  2  3  1  0
  3  4  2  0
  3  5  1  0
  5  6  1  0
  5 29  1  0
  5 30  1  0
  7  6  1  6
  6 31  1  0
  6 32  1  0
  7 20  1  0
  7 24  1  0
  7  8  1  0
  8  9  1  0
  9 10  2  0
  9 11  1  0
 12 11  1  1
 11 33  1  0
 11 34  1  0
 12 19  1  0
 12 21  1  0
 12 13  1  0
 13 14  2  0
 13 15  1  0
 15 16  2  0
 15 35  1  0
 16 17  1  0
 16 36  1  0
 17 18  2  0
 19 17  1  6
 19 20  1  0
 19 21  1  0
 21 22  1  0
 21 37  1  6
 22 23  1  0
 22 38  1  0
 22 39  1  0
 23 24  1  0
 23 40  1  0
 23 41  1  0
 24 25  1  0
 24 42  1  1
 25 43  1  0
 25 44  1  0
 25 45  1  0
M  END
>  <i_m_ct_stereo_status>  (107) 
1

>  <s_m_source_file>  (107) 
/var/tmp/pbs.5076255.sched01/tmp361wbqj1/0nt8_y6ui.sdf

>  <i_m_source_file_index>  (107) 
37

>  <i_lp_mmshare_version>  (107) 
48012

>  <i_f3d_flags>  (107) 
0

>  <s_epik_input>  (107) 
W0NIM11PQyg9TylbQ0gyXVtDSDJdW0NAXShPMSkoT0MoPU8pW0NIMl0yKVtDQEhdKFtDSDNdKVtDSDJdW0NIMl1bQ0BASF0zW0NAXTEoW0NAXTIzNClDKD1PKVtDSF09W0NIXUM0PU8=

>  <s_epik_cmdline>  (107) 
J2VwaWtfcHl0aG9uJywgJy1waHQnLCAnMi4wJywgJy1waCcsICc3LjAnLCAnLXRuJywgJzgnLCAnLW1hJywgJzIwMCcsICctaW1hZScsICc8aW5maWxlLm1hZT4nLCAnLW9tYWUnLCAnPG91dGZpbGUubWFlPic=

>  <r_lp_tautomer_probability>  (107) 
1

>  <r_epik_Ionization_Penalty>  (107) 
0

>  <r_epik_Ionization_Penalty_Charging>  (107) 
0

>  <r_epik_Ionization_Penalty_Neutral>  (107) 
0

>  <r_epik_State_Penalty>  (107) 
-0

>  <r_epik_Charging_Adjusted_Penalty>  (107) 
0

>  <i_epik_Tot_Q>  (107) 
0

>  <i_epik_Tot_abs_Q>  (107) 
0

>  <s_epik_Chemistry_Notes>  (107) 
This compound has an ester and may undergo hydrolysis at high or low pH.

>  <s_lp_Force_Field>  (107) 
OPLS3e

>  <r_lp_Energy>  (107) 
50.5697

>  <b_lp_Chiralities_Consistent>  (107) 
1

>  <s_lp_Variant>  (107) 
29:0-1

>  <s_i_glide_gridfile>  (107) 
pfpi4k_grid

>  <i_i_glide_lignum>  (107) 
37

>  <i_i_glide_rotatable_bonds>  (107) 
4

>  <r_i_docking_score>  (107) 
-2.92932

>  <r_i_glide_ligand_efficiency>  (107) 
-0.117173

>  <r_i_glide_ligand_efficiency_sa>  (107) 
-0.342616

>  <r_i_glide_ligand_efficiency_ln>  (107) 
-0.694337

>  <r_i_glide_gscore>  (107) 
-2.92932

>  <r_i_glide_lipo>  (107) 
-0.299259

>  <r_i_glide_hbond>  (107) 
-0.16

>  <r_i_glide_metal>  (107) 
-0

>  <r_i_glide_rewards>  (107) 
-1.13221

>  <r_i_glide_evdw>  (107) 
-23.0734

>  <r_i_glide_ecoul>  (107) 
-3.66754

>  <r_i_glide_erotb>  (107) 
0.470609

>  <r_i_glide_esite>  (107) 
-0.104658

>  <r_i_glide_emodel>  (107) 
-31.9144

>  <r_i_glide_energy>  (107) 
-26.7409

>  <r_i_glide_einternal>  (107) 
1.43769

>  <r_i_glide_intrahb_reward>  (107) 
-0

>  <i_i_glide_confnum>  (107) 
2

>  <i_i_glide_posenum>  (107) 
10

>  <r_i_glide_eff_state_penalty>  (107) 
0

>  <ligand_id>  (107) 
29

>  <original_smiles>  (107) 
COC(=O)CCC12OC(=O)CC34C(=O)C=CC(=O)C3(O1)C4CCC2C

>  <smiles>  (107) 
[H]C1=C([H])C(=O)C23C([H])([H])C(=O)OC4(C([H])([H])C([H])([H])C(=O)OC([H])([H])[H])OC2(C1=O)C3([H])C([H])([H])C([H])([H])C4([H])C([H])([H])[H]

$$$$
30:0:0
     RDKit          3D

 59 64  0  0  1  0  0  0  0  0999 V2000
    8.0072   -6.4122    4.2409 C   0  0  0  0  0  0  0  0  0  0  0  0
    7.0984   -6.3731    2.9765 C   0  0  0  0  0  0  0  0  0  0  0  0
    8.0285   -6.0910    1.7686 C   0  0  0  0  0  0  0  0  0  0  0  0
    6.4655   -7.7526    2.7578 C   0  0  0  0  0  0  0  0  0  0  0  0
    6.8365   -8.7248    3.4095 O   0  0  0  0  0  0  0  0  0  0  0  0
    5.4817   -7.8397    1.6825 C   0  0  0  0  0  0  0  0  0  0  0  0
    5.2384   -9.3478    0.8872 Cl  0  0  0  0  0  0  0  0  0  0  0  0
    4.8109   -6.7384    1.2972 C   0  0  0  0  0  0  0  0  0  0  0  0
    4.8263   -5.3309    1.9400 C   0  0  2  0  0  0  0  0  0  0  0  0
    5.9764   -5.2735    3.0519 C   0  0  1  0  0  0  0  0  0  0  0  0
    5.4520   -5.0119    4.4935 C   0  0  0  0  0  0  0  0  0  0  0  0
    4.1915   -4.1178    4.6821 C   0  0  1  0  0  0  0  0  0  0  0  0
    4.4884   -3.0027    5.5003 O   0  0  0  0  0  0  0  0  0  0  0  0
    3.2942   -3.8068    3.4238 C   0  0  2  0  0  0  0  0  0  0  0  0
    1.8615   -3.6116    3.9979 C   0  0  0  0  0  0  0  0  0  0  0  0
    3.4095   -5.1481    2.6071 C   0  0  1  0  0  0  0  0  0  0  0  0
    2.2567   -5.4180    1.6019 C   0  0  0  0  0  0  0  0  0  0  0  0
    2.5322   -4.8429    0.2101 C   0  0  0  0  0  0  0  0  0  0  0  0
    3.5721   -3.7146    0.2290 C   0  0  2  0  0  0  0  0  0  0  0  0
    3.7401   -3.2858   -1.2553 C   0  0  0  0  0  0  0  0  0  0  0  0
    4.9701   -4.2130    0.7906 C   0  0  1  0  0  0  0  0  0  0  0  0
    5.7843   -2.9171    1.1604 C   0  0  0  0  0  0  0  0  0  0  0  0
    5.1867   -2.2870    2.4129 C   0  0  1  0  0  0  0  0  0  0  0  0
    4.9845   -0.8571    2.4598 O   0  0  0  0  0  0  0  0  0  0  0  0
    3.7344   -1.1174    3.1612 C   0  0  0  0  0  0  0  0  0  0  0  0
    3.6909   -2.5350    2.5548 C   0  0  2  0  0  0  0  0  0  0  0  0
    2.9759   -2.5908    1.1566 C   0  0  1  0  0  0  0  0  0  0  0  0
    3.0130   -1.3376    0.4816 O   0  0  0  0  0  0  0  0  0  0  0  0
    8.4594   -5.4429    4.4492 H   0  0  0  0  0  0  0  0  0  0  0  0
    8.8284   -7.1216    4.1188 H   0  0  0  0  0  0  0  0  0  0  0  0
    7.4627   -6.7279    5.1326 H   0  0  0  0  0  0  0  0  0  0  0  0
    8.5735   -5.1530    1.8925 H   0  0  0  0  0  0  0  0  0  0  0  0
    7.4783   -6.0302    0.8286 H   0  0  0  0  0  0  0  0  0  0  0  0
    8.7702   -6.8824    1.6509 H   0  0  0  0  0  0  0  0  0  0  0  0
    4.1569   -6.8902    0.4604 H   0  0  0  0  0  0  0  0  0  0  0  0
    6.5906   -4.4111    2.8723 H   0  0  0  0  0  0  0  0  0  0  0  0
    5.2681   -5.9693    4.9852 H   0  0  0  0  0  0  0  0  0  0  0  0
    6.2634   -4.5606    5.0642 H   0  0  0  0  0  0  0  0  0  0  0  0
    3.5748   -4.7269    5.3467 H   0  0  0  0  0  0  0  0  0  0  0  0
    4.8726   -3.3084    6.3102 H   0  0  0  0  0  0  0  0  0  0  0  0
    1.1335   -3.2927    3.2545 H   0  0  0  0  0  0  0  0  0  0  0  0
    1.8452   -2.8551    4.7844 H   0  0  0  0  0  0  0  0  0  0  0  0
    1.4817   -4.5367    4.4386 H   0  0  0  0  0  0  0  0  0  0  0  0
    3.2853   -5.9592    3.3295 H   0  0  0  0  0  0  0  0  0  0  0  0
    2.0992   -6.4926    1.4962 H   0  0  0  0  0  0  0  0  0  0  0  0
    1.3061   -5.0554    1.9780 H   0  0  0  0  0  0  0  0  0  0  0  0
    2.8568   -5.6354   -0.4492 H   0  0  0  0  0  0  0  0  0  0  0  0
    1.6107   -4.4918   -0.2480 H   0  0  0  0  0  0  0  0  0  0  0  0
    4.4491   -2.4721   -1.3963 H   0  0  0  0  0  0  0  0  0  0  0  0
    2.7943   -2.9632   -1.6881 H   0  0  0  0  0  0  0  0  0  0  0  0
    4.0984   -4.1147   -1.8647 H   0  0  0  0  0  0  0  0  0  0  0  0
    5.5171   -4.6857   -0.0279 H   0  0  0  0  0  0  0  0  0  0  0  0
    6.8517   -3.1099    1.2738 H   0  0  0  0  0  0  0  0  0  0  0  0
    5.7403   -2.2024    0.3404 H   0  0  0  0  0  0  0  0  0  0  0  0
    5.7379   -2.5521    3.3086 H   0  0  0  0  0  0  0  0  0  0  0  0
    3.8484   -1.0538    4.2401 H   0  0  0  0  0  0  0  0  0  0  0  0
    2.9202   -0.4669    2.8397 H   0  0  0  0  0  0  0  0  0  0  0  0
    1.9047   -2.7408    1.2998 H   0  0  0  0  0  0  0  0  0  0  0  0
    2.1705   -1.2069    0.0231 H   0  0  0  0  0  0  0  0  0  0  0  0
  1  2  1  0
  1 29  1  0
  1 30  1  0
  1 31  1  0
  2 10  1  0
  2  3  1  0
  2  4  1  0
  3 32  1  0
  3 33  1  0
  3 34  1  0
  4  5  2  0
  4  6  1  0
  6  7  1  0
  6  8  2  0
  9  8  1  6
  8 35  1  0
  9 16  1  0
  9 21  1  0
  9 10  1  0
 10 11  1  0
 10 36  1  6
 11 12  1  0
 11 37  1  0
 11 38  1  0
 12 13  1  0
 12 14  1  0
 12 39  1  1
 13 40  1  0
 14 26  1  0
 14 15  1  1
 14 16  1  0
 15 41  1  0
 15 42  1  0
 15 43  1  0
 16 17  1  0
 16 44  1  1
 17 18  1  0
 17 45  1  0
 17 46  1  0
 18 19  1  0
 18 47  1  0
 18 48  1  0
 19 27  1  0
 19 20  1  6
 19 21  1  0
 20 49  1  0
 20 50  1  0
 20 51  1  0
 21 22  1  0
 21 52  1  6
 22 23  1  0
 22 53  1  0
 22 54  1  0
 23 26  1  0
 23 24  1  0
 23 55  1  1
 24 25  1  0
 26 25  1  1
 25 56  1  0
 25 57  1  0
 26 27  1  0
 27 28  1  0
 27 58  1  1
 28 59  1  0
M  END
>  <i_m_ct_stereo_status>  (108) 
1

>  <s_m_source_file>  (108) 
/var/tmp/pbs.5076255.sched01/tmp361wbqj1/0nt8_y6ui.sdf

>  <i_m_source_file_index>  (108) 
38

>  <i_lp_mmshare_version>  (108) 
48012

>  <i_f3d_flags>  (108) 
0

>  <s_epik_input>  (108) 
Q2xDKD1bQ0hdMSlDKD1PKUMoW0NIM10pKFtDSDNdKVtDQEBIXShbQ0BAXTEyMylbQ0gyXVtDQEBIXShbT0hdKVtDQEBdNChbQ0gzXSlbQ0BdNTZbQ0BIXShPW0NIMl01KVtDSDJdW0NAQEhdM1tDQF0oW0NIM10pKFtDQEBIXTZbT0hdKVtDSDJdW0NIMl1bQ0BASF0yNA==

>  <s_epik_cmdline>  (108) 
J2VwaWtfcHl0aG9uJywgJy1waHQnLCAnMi4wJywgJy1waCcsICc3LjAnLCAnLXRuJywgJzgnLCAnLW1hJywgJzIwMCcsICctaW1hZScsICc8aW5maWxlLm1hZT4nLCAnLW9tYWUnLCAnPG91dGZpbGUubWFlPic=

>  <r_lp_tautomer_probability>  (108) 
1

>  <r_epik_Ionization_Penalty>  (108) 
1.99125e-07

>  <r_epik_Ionization_Penalty_Charging>  (108) 
0

>  <r_epik_Ionization_Penalty_Neutral>  (108) 
1.99125e-07

>  <r_epik_State_Penalty>  (108) 
-0

>  <r_epik_Charging_Adjusted_Penalty>  (108) 
0

>  <i_epik_Tot_Q>  (108) 
0

>  <i_epik_Tot_abs_Q>  (108) 
0

>  <s_lp_Force_Field>  (108) 
OPLS3e

>  <r_lp_Energy>  (108) 
101.343

>  <b_lp_Chiralities_Consistent>  (108) 
1

>  <s_lp_Variant>  (108) 
30:0-1

>  <s_i_glide_gridfile>  (108) 
pfpi4k_grid

>  <i_i_glide_lignum>  (108) 
38

>  <i_i_glide_rotatable_bonds>  (108) 
2

>  <r_i_docking_score>  (108) 
-2.95802

>  <r_i_glide_ligand_efficiency>  (108) 
-0.105643

>  <r_i_glide_ligand_efficiency_sa>  (108) 
-0.320796

>  <r_i_glide_ligand_efficiency_ln>  (108) 
-0.682797

>  <r_i_glide_gscore>  (108) 
-2.95802

>  <r_i_glide_lipo>  (108) 
-0.433023

>  <r_i_glide_hbond>  (108) 
0

>  <r_i_glide_metal>  (108) 
-0

>  <r_i_glide_rewards>  (108) 
-0.666291

>  <r_i_glide_evdw>  (108) 
-22.2942

>  <r_i_glide_ecoul>  (108) 
-4.95994

>  <r_i_glide_erotb>  (108) 
0

>  <r_i_glide_esite>  (108) 
0

>  <r_i_glide_emodel>  (108) 
-31.007

>  <r_i_glide_energy>  (108) 
-27.2542

>  <r_i_glide_einternal>  (108) 
1.32269

>  <r_i_glide_intrahb_reward>  (108) 
-0

>  <i_i_glide_confnum>  (108) 
2

>  <i_i_glide_posenum>  (108) 
26

>  <r_i_glide_eff_state_penalty>  (108) 
0

>  <ligand_id>  (108) 
30

>  <original_smiles>  (108) 
CC1(C)C(=O)C(Cl)=CC23C1CC(O)C1(C)C2CCC2(C)C3CC3OCC31C2O

>  <smiles>  (108) 
[H]OC1([H])C2(C([H])([H])[H])C([H])([H])C([H])([H])C3([H])C45C([H])=C(Cl)C(=O)C(C([H])([H])[H])(C([H])([H])[H])C4([H])C([H])([H])C([H])(O[H])C3(C([H])([H])[H])C13C([H])([H])OC3([H])C([H])([H])C52[H]

$$$$
30:0:1
     RDKit          3D

 59 64  0  0  1  0  0  0  0  0999 V2000
    8.0152   -6.6385    3.9501 C   0  0  0  0  0  0  0  0  0  0  0  0
    7.0533   -6.5717    2.7315 C   0  0  0  0  0  0  0  0  0  0  0  0
    7.9431   -6.4584    1.4686 C   0  0  0  0  0  0  0  0  0  0  0  0
    6.2646   -7.8787    2.6176 C   0  0  0  0  0  0  0  0  0  0  0  0
    6.5604   -8.8581    3.3026 O   0  0  0  0  0  0  0  0  0  0  0  0
    5.2269   -7.9084    1.5954 C   0  0  0  0  0  0  0  0  0  0  0  0
    4.7756   -9.4173    0.8873 Cl  0  0  0  0  0  0  0  0  0  0  0  0
    4.6574   -6.7615    1.1811 C   0  0  0  0  0  0  0  0  0  0  0  0
    4.8607   -5.3356    1.7434 C   0  0  2  0  0  0  0  0  0  0  0  0
    6.0641   -5.3523    2.7968 C   0  0  1  0  0  0  0  0  0  0  0  0
    5.6355   -4.9707    4.2482 C   0  0  0  0  0  0  0  0  0  0  0  0
    4.4950   -3.9262    4.4401 C   0  0  1  0  0  0  0  0  0  0  0  0
    4.9464   -2.8131    5.1775 O   0  0  0  0  0  0  0  0  0  0  0  0
    3.5734   -3.5831    3.2116 C   0  0  2  0  0  0  0  0  0  0  0  0
    2.2014   -3.2024    3.8377 C   0  0  0  0  0  0  0  0  0  0  0  0
    3.5108   -4.9693    2.4650 C   0  0  1  0  0  0  0  0  0  0  0  0
    2.2880   -5.1630    1.5318 C   0  0  0  0  0  0  0  0  0  0  0  0
    2.5437   -4.6878    0.0964 C   0  0  0  0  0  0  0  0  0  0  0  0
    3.6996   -3.6856    0.0068 C   0  0  2  0  0  0  0  0  0  0  0  0
    3.8335   -3.3472   -1.5056 C   0  0  0  0  0  0  0  0  0  0  0  0
    5.0616   -4.3055    0.5291 C   0  0  1  0  0  0  0  0  0  0  0  0
    6.0235   -3.0873    0.7824 C   0  0  0  0  0  0  0  0  0  0  0  0
    5.5586   -2.3309    2.0215 C   0  0  1  0  0  0  0  0  0  0  0  0
    5.5126   -0.8879    1.9975 O   0  0  0  0  0  0  0  0  0  0  0  0
    4.2833   -0.9727    2.7711 C   0  0  0  0  0  0  0  0  0  0  0  0
    4.0537   -2.4079    2.2524 C   0  0  2  0  0  0  0  0  0  0  0  0
    3.2678   -2.4610    0.8969 C   0  0  1  0  0  0  0  0  0  0  0  0
    3.3972   -1.2595    0.1442 O   0  0  0  0  0  0  0  0  0  0  0  0
    8.5728   -5.7073    4.0810 H   0  0  0  0  0  0  0  0  0  0  0  0
    8.7505   -7.4382    3.8309 H   0  0  0  0  0  0  0  0  0  0  0  0
    7.4875   -6.8494    4.8840 H   0  0  0  0  0  0  0  0  0  0  0  0
    8.5892   -5.5785    1.5165 H   0  0  0  0  0  0  0  0  0  0  0  0
    7.3535   -6.3820    0.5528 H   0  0  0  0  0  0  0  0  0  0  0  0
    8.5941   -7.3301    1.3637 H   0  0  0  0  0  0  0  0  0  0  0  0
    3.9458   -6.8817    0.3850 H   0  0  0  0  0  0  0  0  0  0  0  0
    6.7583   -4.5746    2.5354 H   0  0  0  0  0  0  0  0  0  0  0  0
    5.3640   -5.8769    4.7905 H   0  0  0  0  0  0  0  0  0  0  0  0
    6.5104   -4.5998    4.7828 H   0  0  0  0  0  0  0  0  0  0  0  0
    3.8510   -4.4265    5.1656 H   0  0  0  0  0  0  0  0  0  0  0  0
    4.1876   -2.3244    5.4712 H   0  0  0  0  0  0  0  0  0  0  0  0
    1.4735   -2.8445    3.1109 H   0  0  0  0  0  0  0  0  0  0  0  0
    2.3024   -2.4079    4.5780 H   0  0  0  0  0  0  0  0  0  0  0  0
    1.7503   -4.0579    4.3455 H   0  0  0  0  0  0  0  0  0  0  0  0
    3.3349   -5.7244    3.2381 H   0  0  0  0  0  0  0  0  0  0  0  0
    2.0047   -6.2159    1.4948 H   0  0  0  0  0  0  0  0  0  0  0  0
    1.4161   -4.6682    1.9412 H   0  0  0  0  0  0  0  0  0  0  0  0
    2.7388   -5.5343   -0.5479 H   0  0  0  0  0  0  0  0  0  0  0  0
    1.6425   -4.2444   -0.3214 H   0  0  0  0  0  0  0  0  0  0  0  0
    4.6120   -2.6174   -1.7198 H   0  0  0  0  0  0  0  0  0  0  0  0
    2.9022   -2.9515   -1.9100 H   0  0  0  0  0  0  0  0  0  0  0  0
    4.0799   -4.2421   -2.0785 H   0  0  0  0  0  0  0  0  0  0  0  0
    5.5073   -4.8759   -0.2858 H   0  0  0  0  0  0  0  0  0  0  0  0
    7.0682   -3.3879    0.8639 H   0  0  0  0  0  0  0  0  0  0  0  0
    6.0135   -2.4159   -0.0717 H   0  0  0  0  0  0  0  0  0  0  0  0
    6.1234   -2.6143    2.9040 H   0  0  0  0  0  0  0  0  0  0  0  0
    4.4685   -0.8617    3.8361 H   0  0  0  0  0  0  0  0  0  0  0  0
    3.5285   -0.2517    2.4509 H   0  0  0  0  0  0  0  0  0  0  0  0
    2.1983   -2.4839    1.0964 H   0  0  0  0  0  0  0  0  0  0  0  0
    2.5531   -1.0973   -0.2862 H   0  0  0  0  0  0  0  0  0  0  0  0
  1  2  1  0
  1 29  1  0
  1 30  1  0
  1 31  1  0
  2 10  1  0
  2  3  1  0
  2  4  1  0
  3 32  1  0
  3 33  1  0
  3 34  1  0
  4  5  2  0
  4  6  1  0
  6  7  1  0
  6  8  2  0
  9  8  1  6
  8 35  1  0
  9 16  1  0
  9 21  1  0
  9 10  1  0
 10 11  1  0
 10 36  1  6
 11 12  1  0
 11 37  1  0
 11 38  1  0
 12 13  1  0
 12 14  1  0
 12 39  1  1
 13 40  1  0
 14 26  1  0
 14 15  1  1
 14 16  1  0
 15 41  1  0
 15 42  1  0
 15 43  1  0
 16 17  1  0
 16 44  1  1
 17 18  1  0
 17 45  1  0
 17 46  1  0
 18 19  1  0
 18 47  1  0
 18 48  1  0
 19 27  1  0
 19 20  1  6
 19 21  1  0
 20 49  1  0
 20 50  1  0
 20 51  1  0
 21 22  1  0
 21 52  1  6
 22 23  1  0
 22 53  1  0
 22 54  1  0
 23 26  1  0
 23 24  1  0
 23 55  1  1
 24 25  1  0
 26 25  1  1
 25 56  1  0
 25 57  1  0
 26 27  1  0
 27 28  1  0
 27 58  1  1
 28 59  1  0
M  END
>  <i_m_ct_stereo_status>  (109) 
1

>  <s_m_source_file>  (109) 
/var/tmp/pbs.5076255.sched01/tmp361wbqj1/0nt8_y6ui.sdf

>  <i_m_source_file_index>  (109) 
38

>  <i_lp_mmshare_version>  (109) 
48012

>  <i_f3d_flags>  (109) 
0

>  <s_epik_input>  (109) 
Q2xDKD1bQ0hdMSlDKD1PKUMoW0NIM10pKFtDSDNdKVtDQEBIXShbQ0BAXTEyMylbQ0gyXVtDQEBIXShbT0hdKVtDQEBdNChbQ0gzXSlbQ0BdNTZbQ0BIXShPW0NIMl01KVtDSDJdW0NAQEhdM1tDQF0oW0NIM10pKFtDQEBIXTZbT0hdKVtDSDJdW0NIMl1bQ0BASF0yNA==

>  <s_epik_cmdline>  (109) 
J2VwaWtfcHl0aG9uJywgJy1waHQnLCAnMi4wJywgJy1waCcsICc3LjAnLCAnLXRuJywgJzgnLCAnLW1hJywgJzIwMCcsICctaW1hZScsICc8aW5maWxlLm1hZT4nLCAnLW9tYWUnLCAnPG91dGZpbGUubWFlPic=

>  <r_lp_tautomer_probability>  (109) 
1

>  <r_epik_Ionization_Penalty>  (109) 
1.99125e-07

>  <r_epik_Ionization_Penalty_Charging>  (109) 
0

>  <r_epik_Ionization_Penalty_Neutral>  (109) 
1.99125e-07

>  <r_epik_State_Penalty>  (109) 
-0

>  <r_epik_Charging_Adjusted_Penalty>  (109) 
0

>  <i_epik_Tot_Q>  (109) 
0

>  <i_epik_Tot_abs_Q>  (109) 
0

>  <s_lp_Force_Field>  (109) 
OPLS3e

>  <r_lp_Energy>  (109) 
101.343

>  <b_lp_Chiralities_Consistent>  (109) 
1

>  <s_lp_Variant>  (109) 
30:0-1

>  <s_i_glide_gridfile>  (109) 
pfpi4k_grid

>  <i_i_glide_lignum>  (109) 
38

>  <i_i_glide_rotatable_bonds>  (109) 
2

>  <r_i_docking_score>  (109) 
-2.92821

>  <r_i_glide_ligand_efficiency>  (109) 
-0.104579

>  <r_i_glide_ligand_efficiency_sa>  (109) 
-0.317564

>  <r_i_glide_ligand_efficiency_ln>  (109) 
-0.675918

>  <r_i_glide_gscore>  (109) 
-2.92821

>  <r_i_glide_lipo>  (109) 
-0.458651

>  <r_i_glide_hbond>  (109) 
0

>  <r_i_glide_metal>  (109) 
-0

>  <r_i_glide_rewards>  (109) 
-0.669346

>  <r_i_glide_evdw>  (109) 
-23.8805

>  <r_i_glide_ecoul>  (109) 
-4.04127

>  <r_i_glide_erotb>  (109) 
0

>  <r_i_glide_esite>  (109) 
0

>  <r_i_glide_emodel>  (109) 
-31.6887

>  <r_i_glide_energy>  (109) 
-27.9218

>  <r_i_glide_einternal>  (109) 
1.22659

>  <r_i_glide_intrahb_reward>  (109) 
-0

>  <i_i_glide_confnum>  (109) 
1

>  <i_i_glide_posenum>  (109) 
17

>  <r_i_glide_eff_state_penalty>  (109) 
0

>  <ligand_id>  (109) 
30

>  <original_smiles>  (109) 
CC1(C)C(=O)C(Cl)=CC23C1CC(O)C1(C)C2CCC2(C)C3CC3OCC31C2O

>  <smiles>  (109) 
[H]OC1([H])C2(C([H])([H])[H])C([H])([H])C([H])([H])C3([H])C45C([H])=C(Cl)C(=O)C(C([H])([H])[H])(C([H])([H])[H])C4([H])C([H])([H])C([H])(O[H])C3(C([H])([H])[H])C13C([H])([H])OC3([H])C([H])([H])C52[H]

$$$$
30:0:2
     RDKit          3D

 59 64  0  0  1  0  0  0  0  0999 V2000
    6.5306   -6.5368    4.5111 C   0  0  0  0  0  0  0  0  0  0  0  0
    6.1962   -6.2597    3.0130 C   0  0  0  0  0  0  0  0  0  0  0  0
    7.5569   -6.2308    2.2659 C   0  0  0  0  0  0  0  0  0  0  0  0
    5.3747   -7.4079    2.4395 C   0  0  0  0  0  0  0  0  0  0  0  0
    5.2248   -8.4544    3.0728 O   0  0  0  0  0  0  0  0  0  0  0  0
    4.8756   -7.2306    1.0760 C   0  0  0  0  0  0  0  0  0  0  0  0
    4.5503   -8.6014    0.1104 Cl  0  0  0  0  0  0  0  0  0  0  0  0
    4.6974   -5.9822    0.6006 C   0  0  0  0  0  0  0  0  0  0  0  0
    4.8177   -4.6432    1.3489 C   0  0  2  0  0  0  0  0  0  0  0  0
    5.4381   -4.8950    2.8027 C   0  0  1  0  0  0  0  0  0  0  0  0
    4.4890   -4.5188    3.9787 C   0  0  0  0  0  0  0  0  0  0  0  0
    3.5106   -3.3235    3.7937 C   0  0  1  0  0  0  0  0  0  0  0  0
    3.7290   -2.3229    4.7663 O   0  0  0  0  0  0  0  0  0  0  0  0
    3.2563   -2.7821    2.3370 C   0  0  2  0  0  0  0  0  0  0  0  0
    1.8190   -2.2044    2.3854 C   0  0  0  0  0  0  0  0  0  0  0  0
    3.3535   -4.0936    1.4754 C   0  0  1  0  0  0  0  0  0  0  0  0
    2.6619   -4.0330    0.0855 C   0  0  0  0  0  0  0  0  0  0  0  0
    3.5532   -3.5318   -1.0445 C   0  0  0  0  0  0  0  0  0  0  0  0
    4.7344   -2.7371   -0.5125 C   0  0  2  0  0  0  0  0  0  0  0  0
    5.5453   -2.3547   -1.7863 C   0  0  0  0  0  0  0  0  0  0  0  0
    5.6457   -3.5955    0.4513 C   0  0  1  0  0  0  0  0  0  0  0  0
    6.5390   -2.5580    1.2192 C   0  0  0  0  0  0  0  0  0  0  0  0
    5.6845   -1.7981    2.2350 C   0  0  1  0  0  0  0  0  0  0  0  0
    5.8062   -0.3756    2.3549 O   0  0  0  0  0  0  0  0  0  0  0  0
    4.3904   -0.3048    2.5420 C   0  0  0  0  0  0  0  0  0  0  0  0
    4.2275   -1.6568    1.8163 C   0  0  2  0  0  0  0  0  0  0  0  0
    4.0936   -1.5269    0.2620 C   0  0  1  0  0  0  0  0  0  0  0  0
    4.7320   -0.3597   -0.2087 O   0  0  0  0  0  0  0  0  0  0  0  0
    7.0859   -5.7182    4.9667 H   0  0  0  0  0  0  0  0  0  0  0  0
    7.1362   -7.4417    4.6215 H   0  0  0  0  0  0  0  0  0  0  0  0
    5.6295   -6.7085    5.1073 H   0  0  0  0  0  0  0  0  0  0  0  0
    8.2281   -5.4703    2.6736 H   0  0  0  0  0  0  0  0  0  0  0  0
    7.4344   -6.0168    1.2020 H   0  0  0  0  0  0  0  0  0  0  0  0
    8.0777   -7.1896    2.3379 H   0  0  0  0  0  0  0  0  0  0  0  0
    4.3842   -5.9435   -0.4325 H   0  0  0  0  0  0  0  0  0  0  0  0
    6.2465   -4.2180    2.9602 H   0  0  0  0  0  0  0  0  0  0  0  0
    3.9076   -5.3929    4.2641 H   0  0  0  0  0  0  0  0  0  0  0  0
    5.1081   -4.2965    4.8496 H   0  0  0  0  0  0  0  0  0  0  0  0
    2.5613   -3.7514    4.1218 H   0  0  0  0  0  0  0  0  0  0  0  0
    3.0209   -1.7155    4.7359 H   0  0  0  0  0  0  0  0  0  0  0  0
    1.5286   -1.6988    1.4605 H   0  0  0  0  0  0  0  0  0  0  0  0
    1.6946   -1.4660    3.1778 H   0  0  0  0  0  0  0  0  0  0  0  0
    1.0895   -2.9940    2.5586 H   0  0  0  0  0  0  0  0  0  0  0  0
    2.7639   -4.8483    2.0059 H   0  0  0  0  0  0  0  0  0  0  0  0
    2.2617   -5.0123   -0.1894 H   0  0  0  0  0  0  0  0  0  0  0  0
    1.8093   -3.3646    0.1116 H   0  0  0  0  0  0  0  0  0  0  0  0
    3.9268   -4.3427   -1.6555 H   0  0  0  0  0  0  0  0  0  0  0  0
    2.9471   -2.9249   -1.7236 H   0  0  0  0  0  0  0  0  0  0  0  0
    6.4336   -1.7699   -1.5700 H   0  0  0  0  0  0  0  0  0  0  0  0
    4.9404   -1.7820   -2.4889 H   0  0  0  0  0  0  0  0  0  0  0  0
    5.8864   -3.2462   -2.3123 H   0  0  0  0  0  0  0  0  0  0  0  0
    6.3278   -4.1861   -0.1602 H   0  0  0  0  0  0  0  0  0  0  0  0
    7.3939   -3.0608    1.6599 H   0  0  0  0  0  0  0  0  0  0  0  0
    6.9897   -1.8531    0.5261 H   0  0  0  0  0  0  0  0  0  0  0  0
    5.7873   -2.2127    3.2386 H   0  0  0  0  0  0  0  0  0  0  0  0
    4.1156   -0.2657    3.6012 H   0  0  0  0  0  0  0  0  0  0  0  0
    3.9252    0.5434    2.0288 H   0  0  0  0  0  0  0  0  0  0  0  0
    3.0592   -1.3657   -0.0245 H   0  0  0  0  0  0  0  0  0  0  0  0
    4.3182    0.3903    0.1648 H   0  0  0  0  0  0  0  0  0  0  0  0
  1  2  1  0
  1 29  1  0
  1 30  1  0
  1 31  1  0
  2 10  1  0
  2  3  1  0
  2  4  1  0
  3 32  1  0
  3 33  1  0
  3 34  1  0
  4  5  2  0
  4  6  1  0
  6  7  1  0
  6  8  2  0
  9  8  1  6
  8 35  1  0
  9 16  1  0
  9 21  1  0
  9 10  1  0
 10 11  1  0
 10 36  1  1
 11 12  1  0
 11 37  1  0
 11 38  1  0
 12 13  1  0
 12 14  1  0
 12 39  1  1
 13 40  1  0
 14 26  1  0
 14 15  1  1
 14 16  1  0
 15 41  1  0
 15 42  1  0
 15 43  1  0
 16 17  1  0
 16 44  1  1
 17 18  1  0
 17 45  1  0
 17 46  1  0
 18 19  1  0
 18 47  1  0
 18 48  1  0
 19 27  1  0
 19 20  1  6
 19 21  1  0
 20 49  1  0
 20 50  1  0
 20 51  1  0
 21 22  1  0
 21 52  1  6
 22 23  1  0
 22 53  1  0
 22 54  1  0
 23 26  1  0
 23 24  1  0
 23 55  1  1
 24 25  1  0
 26 25  1  1
 25 56  1  0
 25 57  1  0
 26 27  1  0
 27 28  1  0
 27 58  1  1
 28 59  1  0
M  END
>  <i_m_ct_stereo_status>  (110) 
1

>  <s_m_source_file>  (110) 
/var/tmp/pbs.5076255.sched01/tmp361wbqj1/0nt8_y6ui.sdf

>  <i_m_source_file_index>  (110) 
38

>  <i_lp_mmshare_version>  (110) 
48012

>  <i_f3d_flags>  (110) 
0

>  <s_epik_input>  (110) 
Q2xDKD1bQ0hdMSlDKD1PKUMoW0NIM10pKFtDSDNdKVtDQEBIXShbQ0BAXTEyMylbQ0gyXVtDQEBIXShbT0hdKVtDQEBdNChbQ0gzXSlbQ0BdNTZbQ0BIXShPW0NIMl01KVtDSDJdW0NAQEhdM1tDQF0oW0NIM10pKFtDQEBIXTZbT0hdKVtDSDJdW0NIMl1bQ0BASF0yNA==

>  <s_epik_cmdline>  (110) 
J2VwaWtfcHl0aG9uJywgJy1waHQnLCAnMi4wJywgJy1waCcsICc3LjAnLCAnLXRuJywgJzgnLCAnLW1hJywgJzIwMCcsICctaW1hZScsICc8aW5maWxlLm1hZT4nLCAnLW9tYWUnLCAnPG91dGZpbGUubWFlPic=

>  <r_lp_tautomer_probability>  (110) 
1

>  <r_epik_Ionization_Penalty>  (110) 
1.99125e-07

>  <r_epik_Ionization_Penalty_Charging>  (110) 
0

>  <r_epik_Ionization_Penalty_Neutral>  (110) 
1.99125e-07

>  <r_epik_State_Penalty>  (110) 
-0

>  <r_epik_Charging_Adjusted_Penalty>  (110) 
0

>  <i_epik_Tot_Q>  (110) 
0

>  <i_epik_Tot_abs_Q>  (110) 
0

>  <s_lp_Force_Field>  (110) 
OPLS3e

>  <r_lp_Energy>  (110) 
101.343

>  <b_lp_Chiralities_Consistent>  (110) 
1

>  <s_lp_Variant>  (110) 
30:0-1

>  <s_i_glide_gridfile>  (110) 
pfpi4k_grid

>  <i_i_glide_lignum>  (110) 
38

>  <i_i_glide_rotatable_bonds>  (110) 
2

>  <r_i_docking_score>  (110) 
-2.82753

>  <r_i_glide_ligand_efficiency>  (110) 
-0.100983

>  <r_i_glide_ligand_efficiency_sa>  (110) 
-0.306645

>  <r_i_glide_ligand_efficiency_ln>  (110) 
-0.652677

>  <r_i_glide_gscore>  (110) 
-2.82753

>  <r_i_glide_lipo>  (110) 
-0.577956

>  <r_i_glide_hbond>  (110) 
-0.16904

>  <r_i_glide_metal>  (110) 
-0

>  <r_i_glide_rewards>  (110) 
-0.643455

>  <r_i_glide_evdw>  (110) 
-22.9405

>  <r_i_glide_ecoul>  (110) 
-1.93369

>  <r_i_glide_erotb>  (110) 
0

>  <r_i_glide_esite>  (110) 
0

>  <r_i_glide_emodel>  (110) 
-28.7321

>  <r_i_glide_energy>  (110) 
-24.8742

>  <r_i_glide_einternal>  (110) 
0.691977

>  <r_i_glide_intrahb_reward>  (110) 
-0

>  <i_i_glide_confnum>  (110) 
2

>  <i_i_glide_posenum>  (110) 
15

>  <r_i_glide_eff_state_penalty>  (110) 
0

>  <ligand_id>  (110) 
30

>  <original_smiles>  (110) 
CC1(C)C(=O)C(Cl)=CC23C1CC(O)C1(C)C2CCC2(C)C3CC3OCC31C2O

>  <smiles>  (110) 
[H]OC1([H])C2(C([H])([H])[H])C([H])([H])C([H])([H])C3([H])C45C([H])=C(Cl)C(=O)C(C([H])([H])[H])(C([H])([H])[H])C4([H])C([H])([H])C([H])(O[H])C3(C([H])([H])[H])C13C([H])([H])OC3([H])C([H])([H])C52[H]

$$$$
34:0:0
     RDKit          3D

 79 85  0  0  1  0  0  0  0  0999 V2000
    2.1020   -3.7483   -1.1133 C   0  0  0  0  0  0  0  0  0  0  0  0
    3.2465   -3.6301   -0.5078 C   0  0  0  0  0  0  0  0  0  0  0  0
    4.2562   -4.7305   -0.3586 C   0  0  0  0  0  0  0  0  0  0  0  0
    5.3882   -4.1266    0.5560 C   0  0  1  0  0  0  0  0  0  0  0  0
    6.7965   -4.5917    0.2072 C   0  0  0  0  0  0  0  0  0  0  0  0
    5.2900   -2.6493    0.1922 C   0  0  0  0  0  0  0  0  0  0  0  0
    3.7701   -2.4098    0.2091 C   0  0  2  0  0  0  0  0  0  0  0  0
    3.3551   -2.3487    1.6963 C   0  0  0  0  0  0  0  0  0  0  0  0
    3.7166   -3.6233    2.4393 C   0  0  0  0  0  0  0  0  0  0  0  0
    5.0638   -4.3250    2.0573 C   0  0  1  0  0  0  0  0  0  0  0  0
    5.0857   -5.8570    2.5701 C   0  0  1  0  0  0  0  0  0  0  0  0
    5.3239   -6.9494    1.4199 C   0  0  0  0  0  0  0  0  0  0  0  0
    6.3655   -6.2777    3.4029 C   0  0  0  0  0  0  0  0  0  0  0  0
    7.4999   -5.8508    3.2177 O   0  0  0  0  0  0  0  0  0  0  0  0
    6.0032   -7.3274    4.3399 C   0  0  0  0  0  0  0  0  0  0  0  0
    4.6316   -6.9286    4.4407 C   0  0  0  0  0  0  0  0  0  0  0  0
    3.6913   -5.9215    4.9750 C   0  0  2  0  0  0  0  0  0  0  0  0
    4.2985   -4.7078    5.4044 O   0  0  0  0  0  0  0  0  0  0  0  0
    5.3948   -4.6620    6.2461 C   0  0  0  0  0  0  0  0  0  0  0  0
    5.8954   -3.2720    6.5447 C   0  0  0  0  0  0  0  0  0  0  0  0
    5.9320   -5.6303    6.7872 O   0  0  0  0  0  0  0  0  0  0  0  0
    2.5100   -6.4514    5.9565 C   0  0  1  0  0  0  0  0  0  0  0  0
    3.0716   -6.2622    7.3749 C   0  0  0  0  0  0  0  0  0  0  0  0
    1.1567   -5.7012    5.8307 C   0  0  0  0  0  0  0  0  0  0  0  0
    0.8099   -4.5225    5.7816 O   0  0  0  0  0  0  0  0  0  0  0  0
    0.3626   -7.0115    5.8578 C   0  0  1  0  0  0  0  0  0  0  0  0
   -0.4675   -7.2150    4.5941 C   0  0  0  0  0  0  0  0  0  0  0  0
   -0.0865   -7.9938    3.5690 C   0  0  0  0  0  0  0  0  0  0  0  0
    1.2112   -8.8235    3.5054 C   0  0  1  0  0  0  0  0  0  0  0  0
    0.7998  -10.1541    2.8099 C   0  0  0  0  0  0  0  0  0  0  0  0
    2.2743   -8.1590    2.6012 C   0  0  0  0  0  0  0  0  0  0  0  0
    2.9031   -8.8399    1.7721 O   0  0  0  0  0  0  0  0  0  0  0  0
    2.6014   -6.6496    2.6485 C   0  0  1  0  0  0  0  0  0  0  0  0
    1.4661   -5.8536    2.8282 O   0  0  0  0  0  0  0  0  0  0  0  0
    3.8451   -6.1638    3.4406 C   0  0  1  0  0  0  0  0  0  0  0  0
    1.7725   -9.0640    4.9734 C   0  0  0  0  0  0  0  0  0  0  0  0
    0.8300  -10.0946    5.6849 C   0  0  0  0  0  0  0  0  0  0  0  0
    3.1697   -9.7366    4.9948 C   0  0  0  0  0  0  0  0  0  0  0  0
    1.6999   -7.7844    5.8765 C   0  0  1  0  0  0  0  0  0  0  0  0
    1.3935   -2.9572   -1.2079 H   0  0  0  0  0  0  0  0  0  0  0  0
    1.7780   -4.6946   -1.5963 H   0  0  0  0  0  0  0  0  0  0  0  0
    3.6379   -5.4957    0.0366 H   0  0  0  0  0  0  0  0  0  0  0  0
    4.6348   -5.0579   -1.3293 H   0  0  0  0  0  0  0  0  0  0  0  0
    7.3874   -4.8546    1.0778 H   0  0  0  0  0  0  0  0  0  0  0  0
    7.4045   -3.9323   -0.4187 H   0  0  0  0  0  0  0  0  0  0  0  0
    6.7042   -5.5186   -0.2835 H   0  0  0  0  0  0  0  0  0  0  0  0
    5.8456   -2.0251    0.8804 H   0  0  0  0  0  0  0  0  0  0  0  0
    5.6638   -2.5013   -0.8127 H   0  0  0  0  0  0  0  0  0  0  0  0
    3.4843   -1.4987   -0.3164 H   0  0  0  0  0  0  0  0  0  0  0  0
    3.8342   -1.5114    2.2036 H   0  0  0  0  0  0  0  0  0  0  0  0
    2.2713   -2.1971    1.7736 H   0  0  0  0  0  0  0  0  0  0  0  0
    3.5854   -3.4779    3.4950 H   0  0  0  0  0  0  0  0  0  0  0  0
    2.9333   -4.2607    2.0840 H   0  0  0  0  0  0  0  0  0  0  0  0
    5.8299   -3.7667    2.6361 H   0  0  0  0  0  0  0  0  0  0  0  0
    4.5720   -7.0696    0.6784 H   0  0  0  0  0  0  0  0  0  0  0  0
    5.4824   -7.9469    1.8155 H   0  0  0  0  0  0  0  0  0  0  0  0
    6.2520   -6.8525    0.9699 H   0  0  0  0  0  0  0  0  0  0  0  0
    6.6214   -7.5831    5.1965 H   0  0  0  0  0  0  0  0  0  0  0  0
    5.2197   -2.5315    6.1217 H   0  0  0  0  0  0  0  0  0  0  0  0
    6.8897   -3.1597    6.1323 H   0  0  0  0  0  0  0  0  0  0  0  0
    5.9378   -3.1554    7.6182 H   0  0  0  0  0  0  0  0  0  0  0  0
    3.9373   -6.9103    7.5034 H   0  0  0  0  0  0  0  0  0  0  0  0
    2.3661   -6.5258    8.1646 H   0  0  0  0  0  0  0  0  0  0  0  0
    3.3548   -5.2382    7.6206 H   0  0  0  0  0  0  0  0  0  0  0  0
   -0.2390   -7.1267    6.7740 H   0  0  0  0  0  0  0  0  0  0  0  0
   -1.3956   -6.6654    4.5278 H   0  0  0  0  0  0  0  0  0  0  0  0
   -0.7256   -8.0338    2.6972 H   0  0  0  0  0  0  0  0  0  0  0  0
    0.5578   -9.9954    1.7568 H   0  0  0  0  0  0  0  0  0  0  0  0
   -0.0958  -10.5978    3.2508 H   0  0  0  0  0  0  0  0  0  0  0  0
    1.6007  -10.8963    2.8426 H   0  0  0  0  0  0  0  0  0  0  0  0
    2.7945   -6.4404    1.5952 H   0  0  0  0  0  0  0  0  0  0  0  0
    1.7687   -4.9314    2.8306 H   0  0  0  0  0  0  0  0  0  0  0  0
    1.1139  -10.2489    6.7251 H   0  0  0  0  0  0  0  0  0  0  0  0
    0.8619  -11.0832    5.2288 H   0  0  0  0  0  0  0  0  0  0  0  0
   -0.2062   -9.7725    5.6846 H   0  0  0  0  0  0  0  0  0  0  0  0
    3.6684   -9.6042    5.9594 H   0  0  0  0  0  0  0  0  0  0  0  0
    3.8668   -9.3929    4.2333 H   0  0  0  0  0  0  0  0  0  0  0  0
    3.0929  -10.8146    4.8367 H   0  0  0  0  0  0  0  0  0  0  0  0
    1.7913   -8.1811    6.8850 H   0  0  0  0  0  0  0  0  0  0  0  0
  1  2  2  0
  1 40  1  0
  1 41  1  0
  2  7  1  0
  2  3  1  0
  3  4  1  0
  3 42  1  0
  3 43  1  0
  4 10  1  0
  4  5  1  6
  4  6  1  0
  5 44  1  0
  5 45  1  0
  5 46  1  0
  6  7  1  0
  6 47  1  0
  6 48  1  0
  7  8  1  0
  7 49  1  6
  8  9  1  0
  8 50  1  0
  8 51  1  0
  9 10  1  0
  9 52  1  0
  9 53  1  0
 10 11  1  0
 10 54  1  1
 11 35  1  0
 11 12  1  6
 11 13  1  0
 12 55  1  0
 12 56  1  0
 12 57  1  0
 13 14  2  0
 13 15  1  0
 15 16  2  0
 15 58  1  0
 35 16  1  1
 16 17  1  0
 17 35  1  0
 17 18  1  6
 17 22  1  0
 18 19  1  0
 19 20  1  0
 19 21  2  0
 20 59  1  0
 20 60  1  0
 20 61  1  0
 22 39  1  0
 22 23  1  1
 22 24  1  0
 23 62  1  0
 23 63  1  0
 23 64  1  0
 24 25  2  0
 24 26  1  0
 26 39  1  0
 26 27  1  0
 26 65  1  1
 27 28  2  0
 27 66  1  0
 28 29  1  0
 28 67  1  0
 29 30  1  6
 29 31  1  0
 29 36  1  0
 30 68  1  0
 30 69  1  0
 30 70  1  0
 31 32  2  0
 31 33  1  0
 33 34  1  0
 33 35  1  0
 33 71  1  6
 34 72  1  0
 36 37  1  0
 36 38  1  0
 36 39  1  0
 37 73  1  0
 37 74  1  0
 37 75  1  0
 38 76  1  0
 38 77  1  0
 38 78  1  0
 39 79  1  1
M  END
>  <i_m_ct_stereo_status>  (111) 
1

>  <s_m_source_file>  (111) 
/var/tmp/pbs.5076255.sched01/tmpniar21pp/41tndis9zi.sdf

>  <i_m_source_file_index>  (111) 
2

>  <i_lp_mmshare_version>  (111) 
48012

>  <i_f3d_flags>  (111) 
1

>  <s_epik_input>  (111) 
W0NIM11bQ0BdMTJbQ0gyXUMoPVtDSDJdKVtDQEhdKFtDSDJdMSlbQ0gyXVtDSDJdW0NASF0yW0NAQF0zKFtDSDNdKUMoPU8pW0NIXT1DKEMzNDUpQzQoT0MoPU8pW0NIM10pW0NAXTYoW0NIM10pW0NASF03W0NAQEhdKEM2PU8pW0NIXT1bQ0hdW0NAXShbQ0gzXSkoQzcoW0NIM10pW0NIM10pQyg9TylbQ0BIXTVbT0hd

>  <s_epik_cmdline>  (111) 
J2VwaWtfcHl0aG9uJywgJy1waHQnLCAnMi4wJywgJy1waCcsICc3LjAnLCAnLXRuJywgJzgnLCAnLW1hJywgJzIwMCcsICctaW1hZScsICc8aW5maWxlLm1hZT4nLCAnLW9tYWUnLCAnPG91dGZpbGUubWFlPic=

>  <r_lp_tautomer_probability>  (111) 
1

>  <r_epik_Ionization_Penalty>  (111) 
7.1156e-05

>  <r_epik_Ionization_Penalty_Charging>  (111) 
0

>  <r_epik_Ionization_Penalty_Neutral>  (111) 
7.1156e-05

>  <r_epik_State_Penalty>  (111) 
-0

>  <r_epik_Charging_Adjusted_Penalty>  (111) 
0

>  <i_epik_Tot_Q>  (111) 
0

>  <i_epik_Tot_abs_Q>  (111) 
0

>  <s_epik_Chemistry_Notes>  (111) 
This compound has an ester and may undergo hydrolysis at high or low pH.

>  <s_lp_Force_Field>  (111) 
OPLS3e

>  <r_lp_Energy>  (111) 
130.64

>  <b_lp_Chiralities_Consistent>  (111) 
1

>  <s_lp_Variant>  (111) 
34:0-1

>  <s_i_glide_gridfile>  (111) 
pfpi4k_grid

>  <i_i_glide_lignum>  (111) 
2

>  <i_i_glide_rotatable_bonds>  (111) 
4

>  <r_i_docking_score>  (111) 
-1.35098

>  <r_i_glide_ligand_efficiency>  (111) 
-0.0346405

>  <r_i_glide_ligand_efficiency_sa>  (111) 
-0.117473

>  <r_i_glide_ligand_efficiency_ln>  (111) 
-0.289689

>  <r_i_glide_gscore>  (111) 
-1.35098

>  <r_i_glide_lipo>  (111) 
-0.456953

>  <r_i_glide_hbond>  (111) 
0

>  <r_i_glide_metal>  (111) 
-0

>  <r_i_glide_rewards>  (111) 
-0.00213179

>  <r_i_glide_evdw>  (111) 
-22.9458

>  <r_i_glide_ecoul>  (111) 
-1.27954

>  <r_i_glide_erotb>  (111) 
0.1454

>  <r_i_glide_esite>  (111) 
-0.0103285

>  <r_i_glide_emodel>  (111) 
-19.0675

>  <r_i_glide_energy>  (111) 
-24.2253

>  <r_i_glide_einternal>  (111) 
6.75106

>  <r_i_glide_intrahb_reward>  (111) 
-0

>  <i_i_glide_confnum>  (111) 
2

>  <i_i_glide_posenum>  (111) 
38

>  <r_i_glide_eff_state_penalty>  (111) 
0

>  <ligand_id>  (111) 
34

>  <original_smiles>  (111) 
C=C1CC2(C)CC1CCC2C1(C)C(=O)C=C2C3(OC(C)=O)C4(C)C(=O)C5C=CC(C)(C(=O)C(O)C213)C(C)(C)C54

>  <smiles>  (111) 
[H]OC1([H])C(=O)C2(C([H])([H])[H])C([H])=C([H])C3([H])C(=O)C(C([H])([H])[H])(C4(OC(=O)C([H])([H])[H])C5=C([H])C(=O)C(C([H])([H])[H])(C6([H])C([H])([H])C([H])([H])C7([H])C(=C([H])[H])C([H])([H])C6(C([H])([H])[H])C7([H])[H])C514)C3([H])C2(C([H])([H])[H])C([H])([H])[H]

$$$$
34:0:1
     RDKit          3D

 79 85  0  0  1  0  0  0  0  0999 V2000
    1.0634   -1.0593    4.0463 C   0  0  0  0  0  0  0  0  0  0  0  0
    2.2133   -1.2630    3.4278 C   0  0  0  0  0  0  0  0  0  0  0  0
    2.3519   -1.9049    2.0787 C   0  0  0  0  0  0  0  0  0  0  0  0
    3.8810   -2.0194    1.8278 C   0  0  1  0  0  0  0  0  0  0  0  0
    4.2513   -1.8620    0.3375 C   0  0  0  0  0  0  0  0  0  0  0  0
    4.3809   -0.8066    2.5984 C   0  0  0  0  0  0  0  0  0  0  0  0
    3.6002   -0.9105    3.9014 C   0  0  2  0  0  0  0  0  0  0  0  0
    4.2381   -2.0324    4.7420 C   0  0  0  0  0  0  0  0  0  0  0  0
    4.2527   -3.3572    3.9989 C   0  0  0  0  0  0  0  0  0  0  0  0
    4.4982   -3.3130    2.4595 C   0  0  1  0  0  0  0  0  0  0  0  0
    4.0192   -4.6499    1.7663 C   0  0  1  0  0  0  0  0  0  0  0  0
    2.9825   -4.4519    0.6089 C   0  0  0  0  0  0  0  0  0  0  0  0
    5.1279   -5.3714    0.8769 C   0  0  0  0  0  0  0  0  0  0  0  0
    5.9302   -4.7733    0.1479 O   0  0  0  0  0  0  0  0  0  0  0  0
    4.8649   -6.7852    0.9175 C   0  0  0  0  0  0  0  0  0  0  0  0
    4.2286   -6.7993    2.1601 C   0  0  0  0  0  0  0  0  0  0  0  0
    4.3878   -6.6956    3.6431 C   0  0  2  0  0  0  0  0  0  0  0  0
    5.6685   -6.1619    3.9596 O   0  0  0  0  0  0  0  0  0  0  0  0
    6.8766   -6.6523    3.4488 C   0  0  0  0  0  0  0  0  0  0  0  0
    8.0973   -6.0100    4.0595 C   0  0  0  0  0  0  0  0  0  0  0  0
    7.0125   -7.5803    2.6641 O   0  0  0  0  0  0  0  0  0  0  0  0
    3.9299   -7.9280    4.5543 C   0  0  1  0  0  0  0  0  0  0  0  0
    5.2074   -8.7889    4.7122 C   0  0  0  0  0  0  0  0  0  0  0  0
    3.3905   -7.5469    5.9701 C   0  0  0  0  0  0  0  0  0  0  0  0
    3.7184   -6.7833    6.8925 O   0  0  0  0  0  0  0  0  0  0  0  0
    2.2079   -8.5200    5.8412 C   0  0  1  0  0  0  0  0  0  0  0  0
    0.8631   -7.8052    5.8988 C   0  0  0  0  0  0  0  0  0  0  0  0
    0.1307   -7.4845    4.8153 C   0  0  0  0  0  0  0  0  0  0  0  0
    0.4925   -7.8032    3.3576 C   0  0  1  0  0  0  0  0  0  0  0  0
   -0.8581   -8.1957    2.6839 C   0  0  0  0  0  0  0  0  0  0  0  0
    1.0060   -6.5491    2.5972 C   0  0  0  0  0  0  0  0  0  0  0  0
    0.5946   -6.2771    1.4605 O   0  0  0  0  0  0  0  0  0  0  0  0
    2.0160   -5.5747    3.2050 C   0  0  1  0  0  0  0  0  0  0  0  0
    1.8015   -5.3366    4.5691 O   0  0  0  0  0  0  0  0  0  0  0  0
    3.5111   -5.6853    2.8508 C   0  0  1  0  0  0  0  0  0  0  0  0
    1.5504   -8.9932    3.3107 C   0  0  0  0  0  0  0  0  0  0  0  0
    0.8147  -10.3123    3.6976 C   0  0  0  0  0  0  0  0  0  0  0  0
    2.1176   -9.2613    1.8868 C   0  0  0  0  0  0  0  0  0  0  0  0
    2.6803   -8.8477    4.4002 C   0  0  1  0  0  0  0  0  0  0  0  0
    1.0504   -0.5754    5.0173 H   0  0  0  0  0  0  0  0  0  0  0  0
    0.1142   -1.3634    3.6201 H   0  0  0  0  0  0  0  0  0  0  0  0
    1.8034   -2.8150    2.2428 H   0  0  0  0  0  0  0  0  0  0  0  0
    1.8351   -1.3717    1.2931 H   0  0  0  0  0  0  0  0  0  0  0  0
    4.9985   -2.5906    0.0600 H   0  0  0  0  0  0  0  0  0  0  0  0
    4.6514   -0.8818    0.0462 H   0  0  0  0  0  0  0  0  0  0  0  0
    3.3844   -1.9322   -0.2994 H   0  0  0  0  0  0  0  0  0  0  0  0
    5.4609   -0.8156    2.7236 H   0  0  0  0  0  0  0  0  0  0  0  0
    4.1074    0.1010    2.0567 H   0  0  0  0  0  0  0  0  0  0  0  0
    3.5882    0.0321    4.4495 H   0  0  0  0  0  0  0  0  0  0  0  0
    5.2692   -1.7905    4.9746 H   0  0  0  0  0  0  0  0  0  0  0  0
    3.7173   -2.1523    5.6959 H   0  0  0  0  0  0  0  0  0  0  0  0
    4.8788   -4.0721    4.5082 H   0  0  0  0  0  0  0  0  0  0  0  0
    3.2505   -3.6953    4.1503 H   0  0  0  0  0  0  0  0  0  0  0  0
    5.5882   -3.2443    2.3649 H   0  0  0  0  0  0  0  0  0  0  0  0
    2.0131   -4.0408    0.8164 H   0  0  0  0  0  0  0  0  0  0  0  0
    2.7630   -5.3019    0.0030 H   0  0  0  0  0  0  0  0  0  0  0  0
    3.3654   -3.8787   -0.2144 H   0  0  0  0  0  0  0  0  0  0  0  0
    5.5598   -7.5457    0.5265 H   0  0  0  0  0  0  0  0  0  0  0  0
    7.8245   -5.3555    4.8821 H   0  0  0  0  0  0  0  0  0  0  0  0
    8.6229   -5.4483    3.2923 H   0  0  0  0  0  0  0  0  0  0  0  0
    8.7573   -6.7931    4.4335 H   0  0  0  0  0  0  0  0  0  0  0  0
    5.4815   -9.1869    3.7354 H   0  0  0  0  0  0  0  0  0  0  0  0
    5.0704   -9.6500    5.3665 H   0  0  0  0  0  0  0  0  0  0  0  0
    6.0691   -8.2855    5.1335 H   0  0  0  0  0  0  0  0  0  0  0  0
    2.2666   -9.3474    6.5543 H   0  0  0  0  0  0  0  0  0  0  0  0
    0.4992   -7.5200    6.8701 H   0  0  0  0  0  0  0  0  0  0  0  0
   -0.7900   -6.9416    4.9899 H   0  0  0  0  0  0  0  0  0  0  0  0
   -1.5323   -7.3404    2.5935 H   0  0  0  0  0  0  0  0  0  0  0  0
   -1.4113   -8.9342    3.2606 H   0  0  0  0  0  0  0  0  0  0  0  0
   -0.7122   -8.5953    1.6814 H   0  0  0  0  0  0  0  0  0  0  0  0
    1.6674   -4.6132    2.8281 H   0  0  0  0  0  0  0  0  0  0  0  0
    2.2117   -6.0691    5.0648 H   0  0  0  0  0  0  0  0  0  0  0  0
    1.4926  -11.1643    3.7657 H   0  0  0  0  0  0  0  0  0  0  0  0
    0.0628  -10.6096    2.9666 H   0  0  0  0  0  0  0  0  0  0  0  0
    0.3059  -10.2454    4.6591 H   0  0  0  0  0  0  0  0  0  0  0  0
    3.0473   -9.8325    1.9106 H   0  0  0  0  0  0  0  0  0  0  0  0
    2.3014   -8.3793    1.2811 H   0  0  0  0  0  0  0  0  0  0  0  0
    1.4186   -9.8529    1.2929 H   0  0  0  0  0  0  0  0  0  0  0  0
    3.1134   -9.8546    4.4475 H   0  0  0  0  0  0  0  0  0  0  0  0
  1  2  2  0
  1 40  1  0
  1 41  1  0
  2  7  1  0
  2  3  1  0
  3  4  1  0
  3 42  1  0
  3 43  1  0
  4 10  1  0
  4  5  1  6
  4  6  1  0
  5 44  1  0
  5 45  1  0
  5 46  1  0
  6  7  1  0
  6 47  1  0
  6 48  1  0
  7  8  1  0
  7 49  1  1
  8  9  1  0
  8 50  1  0
  8 51  1  0
  9 10  1  0
  9 52  1  0
  9 53  1  0
 10 11  1  0
 10 54  1  1
 11 35  1  0
 11 12  1  6
 11 13  1  0
 12 55  1  0
 12 56  1  0
 12 57  1  0
 13 14  2  0
 13 15  1  0
 15 16  2  0
 15 58  1  0
 35 16  1  6
 16 17  1  0
 17 35  1  0
 17 18  1  6
 17 22  1  0
 18 19  1  0
 19 20  1  0
 19 21  2  0
 20 59  1  0
 20 60  1  0
 20 61  1  0
 22 39  1  0
 22 23  1  1
 22 24  1  0
 23 62  1  0
 23 63  1  0
 23 64  1  0
 24 25  2  0
 24 26  1  0
 26 39  1  0
 26 27  1  0
 26 65  1  1
 27 28  2  0
 27 66  1  0
 28 29  1  0
 28 67  1  0
 29 30  1  6
 29 31  1  0
 29 36  1  0
 30 68  1  0
 30 69  1  0
 30 70  1  0
 31 32  2  0
 31 33  1  0
 33 34  1  0
 33 35  1  0
 33 71  1  6
 34 72  1  0
 36 37  1  0
 36 38  1  0
 36 39  1  0
 37 73  1  0
 37 74  1  0
 37 75  1  0
 38 76  1  0
 38 77  1  0
 38 78  1  0
 39 79  1  1
M  END
>  <i_m_ct_stereo_status>  (112) 
1

>  <s_m_source_file>  (112) 
/var/tmp/pbs.5076255.sched01/tmpniar21pp/41tndis9zi.sdf

>  <i_m_source_file_index>  (112) 
2

>  <i_lp_mmshare_version>  (112) 
48012

>  <i_f3d_flags>  (112) 
1

>  <s_epik_input>  (112) 
W0NIM11bQ0BdMTJbQ0gyXUMoPVtDSDJdKVtDQEhdKFtDSDJdMSlbQ0gyXVtDSDJdW0NASF0yW0NAQF0zKFtDSDNdKUMoPU8pW0NIXT1DKEMzNDUpQzQoT0MoPU8pW0NIM10pW0NAXTYoW0NIM10pW0NASF03W0NAQEhdKEM2PU8pW0NIXT1bQ0hdW0NAXShbQ0gzXSkoQzcoW0NIM10pW0NIM10pQyg9TylbQ0BIXTVbT0hd

>  <s_epik_cmdline>  (112) 
J2VwaWtfcHl0aG9uJywgJy1waHQnLCAnMi4wJywgJy1waCcsICc3LjAnLCAnLXRuJywgJzgnLCAnLW1hJywgJzIwMCcsICctaW1hZScsICc8aW5maWxlLm1hZT4nLCAnLW9tYWUnLCAnPG91dGZpbGUubWFlPic=

>  <r_lp_tautomer_probability>  (112) 
1

>  <r_epik_Ionization_Penalty>  (112) 
7.1156e-05

>  <r_epik_Ionization_Penalty_Charging>  (112) 
0

>  <r_epik_Ionization_Penalty_Neutral>  (112) 
7.1156e-05

>  <r_epik_State_Penalty>  (112) 
-0

>  <r_epik_Charging_Adjusted_Penalty>  (112) 
0

>  <i_epik_Tot_Q>  (112) 
0

>  <i_epik_Tot_abs_Q>  (112) 
0

>  <s_epik_Chemistry_Notes>  (112) 
This compound has an ester and may undergo hydrolysis at high or low pH.

>  <s_lp_Force_Field>  (112) 
OPLS3e

>  <r_lp_Energy>  (112) 
130.64

>  <b_lp_Chiralities_Consistent>  (112) 
1

>  <s_lp_Variant>  (112) 
34:0-1

>  <s_i_glide_gridfile>  (112) 
pfpi4k_grid

>  <i_i_glide_lignum>  (112) 
2

>  <i_i_glide_rotatable_bonds>  (112) 
4

>  <r_i_docking_score>  (112) 
-1.20236

>  <r_i_glide_ligand_efficiency>  (112) 
-0.0308297

>  <r_i_glide_ligand_efficiency_sa>  (112) 
-0.10455

>  <r_i_glide_ligand_efficiency_ln>  (112) 
-0.25782

>  <r_i_glide_gscore>  (112) 
-1.20236

>  <r_i_glide_lipo>  (112) 
-0.324508

>  <r_i_glide_hbond>  (112) 
-0.16

>  <r_i_glide_metal>  (112) 
-0

>  <r_i_glide_rewards>  (112) 
-0.104229

>  <r_i_glide_evdw>  (112) 
-28.0348

>  <r_i_glide_ecoul>  (112) 
-3.89142

>  <r_i_glide_erotb>  (112) 
0.1454

>  <r_i_glide_esite>  (112) 
-0.0458747

>  <r_i_glide_emodel>  (112) 
-23.9917

>  <r_i_glide_energy>  (112) 
-31.9262

>  <r_i_glide_einternal>  (112) 
8.00674

>  <r_i_glide_intrahb_reward>  (112) 
-0

>  <i_i_glide_confnum>  (112) 
3

>  <i_i_glide_posenum>  (112) 
15

>  <r_i_glide_eff_state_penalty>  (112) 
0

>  <ligand_id>  (112) 
34

>  <original_smiles>  (112) 
C=C1CC2(C)CC1CCC2C1(C)C(=O)C=C2C3(OC(C)=O)C4(C)C(=O)C5C=CC(C)(C(=O)C(O)C213)C(C)(C)C54

>  <smiles>  (112) 
[H]OC1([H])C(=O)C2(C([H])([H])[H])C([H])=C([H])C3([H])C(=O)C(C([H])([H])[H])(C4(OC(=O)C([H])([H])[H])C5=C([H])C(=O)C(C([H])([H])[H])(C6([H])C([H])([H])C([H])([H])C7([H])C(=C([H])[H])C([H])([H])C6(C([H])([H])[H])C7([H])[H])C514)C3([H])C2(C([H])([H])[H])C([H])([H])[H]

$$$$
34:0:2
     RDKit          3D

 79 85  0  0  1  0  0  0  0  0999 V2000
   -2.2981    2.9860    3.2737 C   0  0  0  0  0  0  0  0  0  0  0  0
   -1.4799    3.5295    4.1791 C   0  0  0  0  0  0  0  0  0  0  0  0
   -0.0621    3.9000    3.9118 C   0  0  0  0  0  0  0  0  0  0  0  0
    0.5294    4.3512    5.2864 C   0  0  1  0  0  0  0  0  0  0  0  0
    1.5624    5.4987    5.1811 C   0  0  0  0  0  0  0  0  0  0  0  0
   -0.7274    4.8760    5.9681 C   0  0  0  0  0  0  0  0  0  0  0  0
   -1.7832    3.8203    5.6256 C   0  0  2  0  0  0  0  0  0  0  0  0
   -1.4949    2.6134    6.5313 C   0  0  0  0  0  0  0  0  0  0  0  0
   -0.1079    2.1658    6.2219 C   0  0  0  0  0  0  0  0  0  0  0  0
    1.0592    3.1527    6.0984 C   0  0  1  0  0  0  0  0  0  0  0  0
    2.3612    2.4462    5.5095 C   0  0  1  0  0  0  0  0  0  0  0  0
    2.8161    2.9445    4.1044 C   0  0  0  0  0  0  0  0  0  0  0  0
    3.7208    2.7812    6.2808 C   0  0  0  0  0  0  0  0  0  0  0  0
    4.0094    3.8966    6.7345 O   0  0  0  0  0  0  0  0  0  0  0  0
    4.6085    1.6194    6.2227 C   0  0  0  0  0  0  0  0  0  0  0  0
    3.5732    0.6740    6.0921 C   0  0  0  0  0  0  0  0  0  0  0  0
    2.4788   -0.1114    6.7466 C   0  0  2  0  0  0  0  0  0  0  0  0
    2.2412    0.4698    8.0304 O   0  0  0  0  0  0  0  0  0  0  0  0
    1.0820    0.4209    8.7604 C   0  0  0  0  0  0  0  0  0  0  0  0
    1.0493    1.2849    9.9563 C   0  0  0  0  0  0  0  0  0  0  0  0
    0.0161   -0.1445    8.3975 O   0  0  0  0  0  0  0  0  0  0  0  0
    2.6688   -1.6858    6.7539 C   0  0  1  0  0  0  0  0  0  0  0  0
    3.4581   -1.9772    8.0546 C   0  0  0  0  0  0  0  0  0  0  0  0
    1.3345   -2.4949    6.7347 C   0  0  0  0  0  0  0  0  0  0  0  0
    0.2594   -2.4726    7.3297 O   0  0  0  0  0  0  0  0  0  0  0  0
    1.8416   -3.4589    5.6693 C   0  0  1  0  0  0  0  0  0  0  0  0
    0.9944   -3.3955    4.4095 C   0  0  0  0  0  0  0  0  0  0  0  0
    1.3520   -2.7167    3.3043 C   0  0  0  0  0  0  0  0  0  0  0  0
    2.6513   -1.9276    3.1129 C   0  0  1  0  0  0  0  0  0  0  0  0
    3.0784   -2.2102    1.6385 C   0  0  0  0  0  0  0  0  0  0  0  0
    2.4169   -0.3940    3.2093 C   0  0  0  0  0  0  0  0  0  0  0  0
    2.9382    0.3672    2.3902 O   0  0  0  0  0  0  0  0  0  0  0  0
    1.5520    0.2510    4.3032 C   0  0  1  0  0  0  0  0  0  0  0  0
    0.3990   -0.5031    4.6408 O   0  0  0  0  0  0  0  0  0  0  0  0
    2.1913    0.8633    5.5687 C   0  0  1  0  0  0  0  0  0  0  0  0
    3.7425   -2.4224    4.1582 C   0  0  0  0  0  0  0  0  0  0  0  0
    4.2250   -3.8403    3.7187 C   0  0  0  0  0  0  0  0  0  0  0  0
    5.0309   -1.5525    4.1636 C   0  0  0  0  0  0  0  0  0  0  0  0
    3.1516   -2.6374    5.5976 C   0  0  1  0  0  0  0  0  0  0  0  0
   -3.3163    2.7180    3.5389 H   0  0  0  0  0  0  0  0  0  0  0  0
   -1.9636    2.7920    2.2643 H   0  0  0  0  0  0  0  0  0  0  0  0
    0.2954    2.9564    3.5059 H   0  0  0  0  0  0  0  0  0  0  0  0
    0.0494    4.6545    3.1565 H   0  0  0  0  0  0  0  0  0  0  0  0
    2.3993    5.3012    5.8301 H   0  0  0  0  0  0  0  0  0  0  0  0
    1.1797    6.4859    5.4672 H   0  0  0  0  0  0  0  0  0  0  0  0
    1.9062    5.6347    4.1639 H   0  0  0  0  0  0  0  0  0  0  0  0
   -0.5976    5.0346    7.0422 H   0  0  0  0  0  0  0  0  0  0  0  0
   -1.0069    5.8238    5.5041 H   0  0  0  0  0  0  0  0  0  0  0  0
   -2.8254    4.1607    5.7570 H   0  0  0  0  0  0  0  0  0  0  0  0
   -1.5952    2.8692    7.5914 H   0  0  0  0  0  0  0  0  0  0  0  0
   -2.1950    1.7881    6.3479 H   0  0  0  0  0  0  0  0  0  0  0  0
    0.1731    1.5504    6.9789 H   0  0  0  0  0  0  0  0  0  0  0  0
   -0.2125    1.5500    5.3738 H   0  0  0  0  0  0  0  0  0  0  0  0
    1.2915    3.4838    7.1306 H   0  0  0  0  0  0  0  0  0  0  0  0
    2.1738    2.7509    3.2547 H   0  0  0  0  0  0  0  0  0  0  0  0
    3.7807    2.6209    3.7823 H   0  0  0  0  0  0  0  0  0  0  0  0
    3.0055    4.0129    4.0955 H   0  0  0  0  0  0  0  0  0  0  0  0
    5.5746    1.5675    6.7370 H   0  0  0  0  0  0  0  0  0  0  0  0
    2.0180    1.7754   10.1249 H   0  0  0  0  0  0  0  0  0  0  0  0
    0.8099    0.6239   10.7776 H   0  0  0  0  0  0  0  0  0  0  0  0
    0.2786    2.0505    9.8920 H   0  0  0  0  0  0  0  0  0  0  0  0
    4.4722   -1.5733    7.9756 H   0  0  0  0  0  0  0  0  0  0  0  0
    3.5721   -3.0528    8.2384 H   0  0  0  0  0  0  0  0  0  0  0  0
    3.0250   -1.5791    8.9653 H   0  0  0  0  0  0  0  0  0  0  0  0
    1.9331   -4.4744    6.0611 H   0  0  0  0  0  0  0  0  0  0  0  0
    0.0427   -3.9021    4.4306 H   0  0  0  0  0  0  0  0  0  0  0  0
    0.6510   -2.6966    2.4827 H   0  0  0  0  0  0  0  0  0  0  0  0
    2.3934   -1.7428    0.9239 H   0  0  0  0  0  0  0  0  0  0  0  0
    3.0653   -3.2711    1.3994 H   0  0  0  0  0  0  0  0  0  0  0  0
    4.0748   -1.8247    1.4261 H   0  0  0  0  0  0  0  0  0  0  0  0
    1.0701    1.0717    3.7592 H   0  0  0  0  0  0  0  0  0  0  0  0
   -0.1320    0.0217    5.1919 H   0  0  0  0  0  0  0  0  0  0  0  0
    4.9170   -4.2780    4.4370 H   0  0  0  0  0  0  0  0  0  0  0  0
    4.7614   -3.8299    2.7712 H   0  0  0  0  0  0  0  0  0  0  0  0
    3.4014   -4.5445    3.6101 H   0  0  0  0  0  0  0  0  0  0  0  0
    5.6110   -1.6927    5.0746 H   0  0  0  0  0  0  0  0  0  0  0  0
    4.8723   -0.4803    4.0527 H   0  0  0  0  0  0  0  0  0  0  0  0
    5.6876   -1.8215    3.3338 H   0  0  0  0  0  0  0  0  0  0  0  0
    3.9019   -3.2646    6.0917 H   0  0  0  0  0  0  0  0  0  0  0  0
  1  2  2  0
  1 40  1  0
  1 41  1  0
  2  7  1  0
  2  3  1  0
  3  4  1  0
  3 42  1  0
  3 43  1  0
  4 10  1  0
  4  5  1  6
  4  6  1  0
  5 44  1  0
  5 45  1  0
  5 46  1  0
  6  7  1  0
  6 47  1  0
  6 48  1  0
  7  8  1  0
  7 49  1  6
  8  9  1  0
  8 50  1  0
  8 51  1  0
  9 10  1  0
  9 52  1  0
  9 53  1  0
 10 11  1  0
 10 54  1  1
 11 35  1  0
 11 12  1  6
 11 13  1  0
 12 55  1  0
 12 56  1  0
 12 57  1  0
 13 14  2  0
 13 15  1  0
 15 16  2  0
 15 58  1  0
 35 16  1  6
 16 17  1  0
 17 35  1  0
 17 18  1  1
 17 22  1  0
 18 19  1  0
 19 20  1  0
 19 21  2  0
 20 59  1  0
 20 60  1  0
 20 61  1  0
 22 39  1  0
 22 23  1  1
 22 24  1  0
 23 62  1  0
 23 63  1  0
 23 64  1  0
 24 25  2  0
 24 26  1  0
 26 39  1  0
 26 27  1  0
 26 65  1  1
 27 28  2  0
 27 66  1  0
 28 29  1  0
 28 67  1  0
 29 30  1  6
 29 31  1  0
 29 36  1  0
 30 68  1  0
 30 69  1  0
 30 70  1  0
 31 32  2  0
 31 33  1  0
 33 34  1  0
 33 35  1  0
 33 71  1  6
 34 72  1  0
 36 37  1  0
 36 38  1  0
 36 39  1  0
 37 73  1  0
 37 74  1  0
 37 75  1  0
 38 76  1  0
 38 77  1  0
 38 78  1  0
 39 79  1  1
M  END
>  <i_m_ct_stereo_status>  (113) 
1

>  <s_m_source_file>  (113) 
/var/tmp/pbs.5076255.sched01/tmpniar21pp/41tndis9zi.sdf

>  <i_m_source_file_index>  (113) 
2

>  <i_lp_mmshare_version>  (113) 
48012

>  <i_f3d_flags>  (113) 
1

>  <s_epik_input>  (113) 
W0NIM11bQ0BdMTJbQ0gyXUMoPVtDSDJdKVtDQEhdKFtDSDJdMSlbQ0gyXVtDSDJdW0NASF0yW0NAQF0zKFtDSDNdKUMoPU8pW0NIXT1DKEMzNDUpQzQoT0MoPU8pW0NIM10pW0NAXTYoW0NIM10pW0NASF03W0NAQEhdKEM2PU8pW0NIXT1bQ0hdW0NAXShbQ0gzXSkoQzcoW0NIM10pW0NIM10pQyg9TylbQ0BIXTVbT0hd

>  <s_epik_cmdline>  (113) 
J2VwaWtfcHl0aG9uJywgJy1waHQnLCAnMi4wJywgJy1waCcsICc3LjAnLCAnLXRuJywgJzgnLCAnLW1hJywgJzIwMCcsICctaW1hZScsICc8aW5maWxlLm1hZT4nLCAnLW9tYWUnLCAnPG91dGZpbGUubWFlPic=

>  <r_lp_tautomer_probability>  (113) 
1

>  <r_epik_Ionization_Penalty>  (113) 
7.1156e-05

>  <r_epik_Ionization_Penalty_Charging>  (113) 
0

>  <r_epik_Ionization_Penalty_Neutral>  (113) 
7.1156e-05

>  <r_epik_State_Penalty>  (113) 
-0

>  <r_epik_Charging_Adjusted_Penalty>  (113) 
0

>  <i_epik_Tot_Q>  (113) 
0

>  <i_epik_Tot_abs_Q>  (113) 
0

>  <s_epik_Chemistry_Notes>  (113) 
This compound has an ester and may undergo hydrolysis at high or low pH.

>  <s_lp_Force_Field>  (113) 
OPLS3e

>  <r_lp_Energy>  (113) 
130.64

>  <b_lp_Chiralities_Consistent>  (113) 
1

>  <s_lp_Variant>  (113) 
34:0-1

>  <s_i_glide_gridfile>  (113) 
pfpi4k_grid

>  <i_i_glide_lignum>  (113) 
2

>  <i_i_glide_rotatable_bonds>  (113) 
4

>  <r_i_docking_score>  (113) 
-0.734764

>  <r_i_glide_ligand_efficiency>  (113) 
-0.0188401

>  <r_i_glide_ligand_efficiency_sa>  (113) 
-0.0638907

>  <r_i_glide_ligand_efficiency_ln>  (113) 
-0.157554

>  <r_i_glide_gscore>  (113) 
-0.734764

>  <r_i_glide_lipo>  (113) 
-0.166464

>  <r_i_glide_hbond>  (113) 
0

>  <r_i_glide_metal>  (113) 
-0

>  <r_i_glide_rewards>  (113) 
0

>  <r_i_glide_evdw>  (113) 
-20.6952

>  <r_i_glide_ecoul>  (113) 
-3.88758

>  <r_i_glide_erotb>  (113) 
0.1454

>  <r_i_glide_esite>  (113) 
-0.00783463

>  <r_i_glide_emodel>  (113) 
-20.1105

>  <r_i_glide_energy>  (113) 
-24.5828

>  <r_i_glide_einternal>  (113) 
0.513413

>  <r_i_glide_intrahb_reward>  (113) 
-0

>  <i_i_glide_confnum>  (113) 
3

>  <i_i_glide_posenum>  (113) 
2

>  <r_i_glide_eff_state_penalty>  (113) 
0

>  <ligand_id>  (113) 
34

>  <original_smiles>  (113) 
C=C1CC2(C)CC1CCC2C1(C)C(=O)C=C2C3(OC(C)=O)C4(C)C(=O)C5C=CC(C)(C(=O)C(O)C213)C(C)(C)C54

>  <smiles>  (113) 
[H]OC1([H])C(=O)C2(C([H])([H])[H])C([H])=C([H])C3([H])C(=O)C(C([H])([H])[H])(C4(OC(=O)C([H])([H])[H])C5=C([H])C(=O)C(C([H])([H])[H])(C6([H])C([H])([H])C([H])([H])C7([H])C(=C([H])[H])C([H])([H])C6(C([H])([H])[H])C7([H])[H])C514)C3([H])C2(C([H])([H])[H])C([H])([H])[H]

$$$$
35:0:0
     RDKit          3D

 25 25  0  0  1  0  0  0  0  0999 V2000
    1.4724   -7.8465    1.9210 C   0  0  0  0  0  0  0  0  0  0  0  0
    2.0547   -6.6373    1.2842 C   0  0  0  0  0  0  0  0  0  0  0  0
    1.3640   -5.8618    0.3957 N   0  0  0  0  0  0  0  0  0  0  0  0
    2.3065   -4.9758    0.1064 C   0  0  0  0  0  0  0  0  0  0  0  0
    3.4478   -5.1650    0.7711 N   0  0  0  0  0  0  0  0  0  0  0  0
    4.6932   -4.4141    0.7234 C   0  0  0  0  0  0  0  0  0  0  0  0
    5.3968   -4.5783   -0.6371 C   0  0  0  0  0  0  0  0  0  0  0  0
    4.7075   -3.8571   -1.7010 N   0  0  0  0  0  0  0  0  0  0  0  0
    4.9419   -2.5831   -2.0466 C   0  0  0  0  0  0  0  0  0  0  0  0
    5.7956   -1.8520   -1.5384 O   0  0  0  0  0  0  0  0  0  0  0  0
    4.0149   -2.0576   -3.1439 C   0  0  0  0  0  0  0  0  0  0  0  0
    3.0123   -1.3013   -2.7233 N   0  0  0  0  0  0  0  0  0  0  0  0
    4.1995   -2.3712   -4.3157 O   0  0  0  0  0  0  0  0  0  0  0  0
    3.3024   -6.2540    1.5577 N   0  0  0  0  0  0  0  0  0  0  0  0
    0.5430   -8.1204    1.4278 H   0  0  0  0  0  0  0  0  0  0  0  0
    1.2488   -7.6399    2.9642 H   0  0  0  0  0  0  0  0  0  0  0  0
    2.1692   -8.6825    1.8552 H   0  0  0  0  0  0  0  0  0  0  0  0
    2.1677   -4.1616   -0.5960 H   0  0  0  0  0  0  0  0  0  0  0  0
    4.4940   -3.3625    0.9357 H   0  0  0  0  0  0  0  0  0  0  0  0
    5.3534   -4.7664    1.5176 H   0  0  0  0  0  0  0  0  0  0  0  0
    6.4414   -4.2557   -0.5697 H   0  0  0  0  0  0  0  0  0  0  0  0
    5.4202   -5.6370   -0.8994 H   0  0  0  0  0  0  0  0  0  0  0  0
    3.9749   -4.3602   -2.1875 H   0  0  0  0  0  0  0  0  0  0  0  0
    2.8604   -1.1376   -1.7367 H   0  0  0  0  0  0  0  0  0  0  0  0
    2.3379   -0.9518   -3.3874 H   0  0  0  0  0  0  0  0  0  0  0  0
  1  2  1  0
  1 15  1  0
  1 16  1  0
  1 17  1  0
  2 14  2  0
  2  3  1  0
  3  4  2  0
  4  5  1  0
  4 18  1  0
  5  6  1  0
  5 14  1  0
  6  7  1  0
  6 19  1  0
  6 20  1  0
  7  8  1  0
  7 21  1  0
  7 22  1  0
  8  9  1  0
  8 23  1  0
  9 10  2  0
  9 11  1  0
 11 12  1  0
 11 13  2  0
 12 24  1  0
 12 25  1  0
M  END
>  <i_m_ct_stereo_status>  (114) 
1

>  <s_m_source_file>  (114) 
/var/tmp/pbs.5076255.sched01/tmpniar21pp/41tndis9zi.sdf

>  <i_m_source_file_index>  (114) 
6

>  <i_lp_mmshare_version>  (114) 
48012

>  <i_f3d_flags>  (114) 
0

>  <s_epik_input>  (114) 
W0NIM11jMW5bY0hdbihuMSlbQ0gyXVtDSDJdW05IXUMoPU8pQyg9TylbTkgyXQ==

>  <s_epik_cmdline>  (114) 
J2VwaWtfcHl0aG9uJywgJy1waHQnLCAnMi4wJywgJy1waCcsICc3LjAnLCAnLXRuJywgJzgnLCAnLW1hJywgJzIwMCcsICctaW1hZScsICc8aW5maWxlLm1hZT4nLCAnLW9tYWUnLCAnPG91dGZpbGUubWFlPic=

>  <r_lp_tautomer_probability>  (114) 
1

>  <r_epik_Ionization_Penalty>  (114) 
0.00019531

>  <r_epik_Ionization_Penalty_Charging>  (114) 
0

>  <r_epik_Ionization_Penalty_Neutral>  (114) 
0.00019531

>  <r_epik_State_Penalty>  (114) 
-0

>  <r_epik_Charging_Adjusted_Penalty>  (114) 
0

>  <i_epik_Tot_Q>  (114) 
0

>  <i_epik_Tot_abs_Q>  (114) 
0

>  <s_lp_Force_Field>  (114) 
OPLS3e

>  <r_lp_Energy>  (114) 
5.76216

>  <b_lp_Chiralities_Consistent>  (114) 
1

>  <s_lp_Variant>  (114) 
35:0-1

>  <s_i_glide_gridfile>  (114) 
pfpi4k_grid

>  <i_i_glide_lignum>  (114) 
6

>  <i_i_glide_rotatable_bonds>  (114) 
5

>  <r_i_docking_score>  (114) 
-4.58167

>  <r_i_glide_ligand_efficiency>  (114) 
-0.327262

>  <r_i_glide_ligand_efficiency_sa>  (114) 
-0.788749

>  <r_i_glide_ligand_efficiency_ln>  (114) 
-1.25903

>  <r_i_glide_gscore>  (114) 
-4.58167

>  <r_i_glide_lipo>  (114) 
-0.0630831

>  <r_i_glide_hbond>  (114) 
-0.786072

>  <r_i_glide_metal>  (114) 
-0

>  <r_i_glide_rewards>  (114) 
-2.29969

>  <r_i_glide_evdw>  (114) 
-19.2751

>  <r_i_glide_ecoul>  (114) 
-13.099

>  <r_i_glide_erotb>  (114) 
1.67221

>  <r_i_glide_esite>  (114) 
-0.176432

>  <r_i_glide_emodel>  (114) 
-41.3365

>  <r_i_glide_energy>  (114) 
-32.3741

>  <r_i_glide_einternal>  (114) 
2.28814

>  <r_i_glide_intrahb_reward>  (114) 
-0

>  <i_i_glide_confnum>  (114) 
3

>  <i_i_glide_posenum>  (114) 
19

>  <r_i_glide_eff_state_penalty>  (114) 
0

>  <ligand_id>  (114) 
35

>  <original_smiles>  (114) 
Cc1ncn(CCNC(=O)C(N)=O)n1

>  <smiles>  (114) 
[H]c1nc(C([H])([H])[H])nn1C([H])([H])C([H])([H])N([H])C(=O)C(=O)N([H])[H]

$$$$
35:0:1
     RDKit          3D

 25 25  0  0  1  0  0  0  0  0999 V2000
    5.3896   -1.3999    3.6622 C   0  0  0  0  0  0  0  0  0  0  0  0
    4.3424   -0.7730    2.8157 C   0  0  0  0  0  0  0  0  0  0  0  0
    4.0962   -1.1664    1.5327 N   0  0  0  0  0  0  0  0  0  0  0  0
    3.1265   -0.3106    1.2274 C   0  0  0  0  0  0  0  0  0  0  0  0
    2.8192    0.5311    2.2183 N   0  0  0  0  0  0  0  0  0  0  0  0
    1.8479    1.6068    2.2792 C   0  0  0  0  0  0  0  0  0  0  0  0
    0.4236    1.0538    2.3334 C   0  0  0  0  0  0  0  0  0  0  0  0
   -0.5377    2.1388    2.4798 N   0  0  0  0  0  0  0  0  0  0  0  0
   -1.4367    2.2412    3.4692 C   0  0  0  0  0  0  0  0  0  0  0  0
   -1.5272    1.4845    4.4356 O   0  0  0  0  0  0  0  0  0  0  0  0
   -2.4504    3.3703    3.2751 C   0  0  0  0  0  0  0  0  0  0  0  0
   -3.6160    2.9692    2.7641 N   0  0  0  0  0  0  0  0  0  0  0  0
   -2.1830    4.5367    3.5592 O   0  0  0  0  0  0  0  0  0  0  0  0
    3.5986    0.2264    3.2830 N   0  0  0  0  0  0  0  0  0  0  0  0
    6.0257   -2.0422    3.0578 H   0  0  0  0  0  0  0  0  0  0  0  0
    4.9322   -2.0071    4.4409 H   0  0  0  0  0  0  0  0  0  0  0  0
    5.9993   -0.6259    4.1301 H   0  0  0  0  0  0  0  0  0  0  0  0
    2.6304   -0.2842    0.2676 H   0  0  0  0  0  0  0  0  0  0  0  0
    2.0536    2.2265    3.1532 H   0  0  0  0  0  0  0  0  0  0  0  0
    1.9739    2.2441    1.4051 H   0  0  0  0  0  0  0  0  0  0  0  0
    0.1811    0.5193    1.4159 H   0  0  0  0  0  0  0  0  0  0  0  0
    0.3382    0.3297    3.1441 H   0  0  0  0  0  0  0  0  0  0  0  0
   -0.5208    2.8752    1.7786 H   0  0  0  0  0  0  0  0  0  0  0  0
   -3.7624    1.9786    2.5747 H   0  0  0  0  0  0  0  0  0  0  0  0
   -4.3441    3.6406    2.5786 H   0  0  0  0  0  0  0  0  0  0  0  0
  1  2  1  0
  1 15  1  0
  1 16  1  0
  1 17  1  0
  2 14  2  0
  2  3  1  0
  3  4  2  0
  4  5  1  0
  4 18  1  0
  5  6  1  0
  5 14  1  0
  6  7  1  0
  6 19  1  0
  6 20  1  0
  7  8  1  0
  7 21  1  0
  7 22  1  0
  8  9  1  0
  8 23  1  0
  9 10  2  0
  9 11  1  0
 11 12  1  0
 11 13  2  0
 12 24  1  0
 12 25  1  0
M  END
>  <i_m_ct_stereo_status>  (115) 
1

>  <s_m_source_file>  (115) 
/var/tmp/pbs.5076255.sched01/tmpniar21pp/41tndis9zi.sdf

>  <i_m_source_file_index>  (115) 
6

>  <i_lp_mmshare_version>  (115) 
48012

>  <i_f3d_flags>  (115) 
0

>  <s_epik_input>  (115) 
W0NIM11jMW5bY0hdbihuMSlbQ0gyXVtDSDJdW05IXUMoPU8pQyg9TylbTkgyXQ==

>  <s_epik_cmdline>  (115) 
J2VwaWtfcHl0aG9uJywgJy1waHQnLCAnMi4wJywgJy1waCcsICc3LjAnLCAnLXRuJywgJzgnLCAnLW1hJywgJzIwMCcsICctaW1hZScsICc8aW5maWxlLm1hZT4nLCAnLW9tYWUnLCAnPG91dGZpbGUubWFlPic=

>  <r_lp_tautomer_probability>  (115) 
1

>  <r_epik_Ionization_Penalty>  (115) 
0.00019531

>  <r_epik_Ionization_Penalty_Charging>  (115) 
0

>  <r_epik_Ionization_Penalty_Neutral>  (115) 
0.00019531

>  <r_epik_State_Penalty>  (115) 
-0

>  <r_epik_Charging_Adjusted_Penalty>  (115) 
0

>  <i_epik_Tot_Q>  (115) 
0

>  <i_epik_Tot_abs_Q>  (115) 
0

>  <s_lp_Force_Field>  (115) 
OPLS3e

>  <r_lp_Energy>  (115) 
5.76216

>  <b_lp_Chiralities_Consistent>  (115) 
1

>  <s_lp_Variant>  (115) 
35:0-1

>  <s_i_glide_gridfile>  (115) 
pfpi4k_grid

>  <i_i_glide_lignum>  (115) 
6

>  <i_i_glide_rotatable_bonds>  (115) 
5

>  <r_i_docking_score>  (115) 
-3.78746

>  <r_i_glide_ligand_efficiency>  (115) 
-0.270533

>  <r_i_glide_ligand_efficiency_sa>  (115) 
-0.652023

>  <r_i_glide_ligand_efficiency_ln>  (115) 
-1.04078

>  <r_i_glide_gscore>  (115) 
-3.78746

>  <r_i_glide_lipo>  (115) 
-0.0754075

>  <r_i_glide_hbond>  (115) 
-0.608

>  <r_i_glide_metal>  (115) 
-0

>  <r_i_glide_rewards>  (115) 
-2.19654

>  <r_i_glide_evdw>  (115) 
-17.5698

>  <r_i_glide_ecoul>  (115) 
-9.6815

>  <r_i_glide_erotb>  (115) 
1.67221

>  <r_i_glide_esite>  (115) 
-0.249006

>  <r_i_glide_emodel>  (115) 
-34.6186

>  <r_i_glide_energy>  (115) 
-27.2513

>  <r_i_glide_einternal>  (115) 
1.92608

>  <r_i_glide_intrahb_reward>  (115) 
-0

>  <i_i_glide_confnum>  (115) 
5

>  <i_i_glide_posenum>  (115) 
2

>  <r_i_glide_eff_state_penalty>  (115) 
0

>  <ligand_id>  (115) 
35

>  <original_smiles>  (115) 
Cc1ncn(CCNC(=O)C(N)=O)n1

>  <smiles>  (115) 
[H]c1nc(C([H])([H])[H])nn1C([H])([H])C([H])([H])N([H])C(=O)C(=O)N([H])[H]

$$$$
35:0:2
     RDKit          3D

 25 25  0  0  1  0  0  0  0  0999 V2000
    3.4204   -0.1161   -4.4334 C   0  0  0  0  0  0  0  0  0  0  0  0
    3.8107   -1.2267   -3.5283 C   0  0  0  0  0  0  0  0  0  0  0  0
    4.1589   -2.4631   -3.9880 N   0  0  0  0  0  0  0  0  0  0  0  0
    4.3917   -3.0714   -2.8278 C   0  0  0  0  0  0  0  0  0  0  0  0
    4.2360   -2.2757   -1.7687 N   0  0  0  0  0  0  0  0  0  0  0  0
    4.3495   -2.5571   -0.3521 C   0  0  0  0  0  0  0  0  0  0  0  0
    5.0670   -1.4264    0.4303 C   0  0  0  0  0  0  0  0  0  0  0  0
    4.1400   -0.4183    0.9457 N   0  0  0  0  0  0  0  0  0  0  0  0
    3.1146   -0.6633    1.7765 C   0  0  0  0  0  0  0  0  0  0  0  0
    2.8226   -1.7661    2.2471 O   0  0  0  0  0  0  0  0  0  0  0  0
    2.2596    0.5622    2.1045 C   0  0  0  0  0  0  0  0  0  0  0  0
    1.1860    0.7070    1.3334 N   0  0  0  0  0  0  0  0  0  0  0  0
    2.5790    1.3422    3.0001 O   0  0  0  0  0  0  0  0  0  0  0  0
    3.8423   -1.0635   -2.2148 N   0  0  0  0  0  0  0  0  0  0  0  0
    3.2561   -0.4780   -5.4508 H   0  0  0  0  0  0  0  0  0  0  0  0
    4.2099    0.6315   -4.4563 H   0  0  0  0  0  0  0  0  0  0  0  0
    2.5112    0.3615   -4.0717 H   0  0  0  0  0  0  0  0  0  0  0  0
    4.6629   -4.1132   -2.7278 H   0  0  0  0  0  0  0  0  0  0  0  0
    3.3434   -2.7842    0.0143 H   0  0  0  0  0  0  0  0  0  0  0  0
    4.9167   -3.4723   -0.2392 H   0  0  0  0  0  0  0  0  0  0  0  0
    5.6473   -1.8287    1.2569 H   0  0  0  0  0  0  0  0  0  0  0  0
    5.7926   -0.9238   -0.2117 H   0  0  0  0  0  0  0  0  0  0  0  0
    4.2577    0.5387    0.6348 H   0  0  0  0  0  0  0  0  0  0  0  0
    1.0030    0.0415    0.5766 H   0  0  0  0  0  0  0  0  0  0  0  0
    0.5761    1.5055    1.4531 H   0  0  0  0  0  0  0  0  0  0  0  0
  1  2  1  0
  1 15  1  0
  1 16  1  0
  1 17  1  0
  2 14  2  0
  2  3  1  0
  3  4  2  0
  4  5  1  0
  4 18  1  0
  5  6  1  0
  5 14  1  0
  6  7  1  0
  6 19  1  0
  6 20  1  0
  7  8  1  0
  7 21  1  0
  7 22  1  0
  8  9  1  0
  8 23  1  0
  9 10  2  0
  9 11  1  0
 11 12  1  0
 11 13  2  0
 12 24  1  0
 12 25  1  0
M  END
>  <i_m_ct_stereo_status>  (116) 
1

>  <s_m_source_file>  (116) 
/var/tmp/pbs.5076255.sched01/tmpniar21pp/41tndis9zi.sdf

>  <i_m_source_file_index>  (116) 
6

>  <i_lp_mmshare_version>  (116) 
48012

>  <i_f3d_flags>  (116) 
0

>  <s_epik_input>  (116) 
W0NIM11jMW5bY0hdbihuMSlbQ0gyXVtDSDJdW05IXUMoPU8pQyg9TylbTkgyXQ==

>  <s_epik_cmdline>  (116) 
J2VwaWtfcHl0aG9uJywgJy1waHQnLCAnMi4wJywgJy1waCcsICc3LjAnLCAnLXRuJywgJzgnLCAnLW1hJywgJzIwMCcsICctaW1hZScsICc8aW5maWxlLm1hZT4nLCAnLW9tYWUnLCAnPG91dGZpbGUubWFlPic=

>  <r_lp_tautomer_probability>  (116) 
1

>  <r_epik_Ionization_Penalty>  (116) 
0.00019531

>  <r_epik_Ionization_Penalty_Charging>  (116) 
0

>  <r_epik_Ionization_Penalty_Neutral>  (116) 
0.00019531

>  <r_epik_State_Penalty>  (116) 
-0

>  <r_epik_Charging_Adjusted_Penalty>  (116) 
0

>  <i_epik_Tot_Q>  (116) 
0

>  <i_epik_Tot_abs_Q>  (116) 
0

>  <s_lp_Force_Field>  (116) 
OPLS3e

>  <r_lp_Energy>  (116) 
5.76216

>  <b_lp_Chiralities_Consistent>  (116) 
1

>  <s_lp_Variant>  (116) 
35:0-1

>  <s_i_glide_gridfile>  (116) 
pfpi4k_grid

>  <i_i_glide_lignum>  (116) 
6

>  <i_i_glide_rotatable_bonds>  (116) 
5

>  <r_i_docking_score>  (116) 
-3.62779

>  <r_i_glide_ligand_efficiency>  (116) 
-0.259128

>  <r_i_glide_ligand_efficiency_sa>  (116) 
-0.624535

>  <r_i_glide_ligand_efficiency_ln>  (116) 
-0.996903

>  <r_i_glide_gscore>  (116) 
-3.62779

>  <r_i_glide_lipo>  (116) 
-0.297119

>  <r_i_glide_hbond>  (116) 
-0.373242

>  <r_i_glide_metal>  (116) 
-0

>  <r_i_glide_rewards>  (116) 
-2.41612

>  <r_i_glide_evdw>  (116) 
-22.2581

>  <r_i_glide_ecoul>  (116) 
-6.35333

>  <r_i_glide_erotb>  (116) 
1.67221

>  <r_i_glide_esite>  (116) 
-0.147611

>  <r_i_glide_emodel>  (116) 
-34.4476

>  <r_i_glide_energy>  (116) 
-28.6114

>  <r_i_glide_einternal>  (116) 
3.86709

>  <r_i_glide_intrahb_reward>  (116) 
-0

>  <i_i_glide_confnum>  (116) 
4

>  <i_i_glide_posenum>  (116) 
3

>  <r_i_glide_eff_state_penalty>  (116) 
0

>  <ligand_id>  (116) 
35

>  <original_smiles>  (116) 
Cc1ncn(CCNC(=O)C(N)=O)n1

>  <smiles>  (116) 
[H]c1nc(C([H])([H])[H])nn1C([H])([H])C([H])([H])N([H])C(=O)C(=O)N([H])[H]

$$$$
37:2:0
     RDKit          3D

 66 72  0  0  1  0  0  0  0  0999 V2000
   -0.7810    4.0156    8.0010 C   0  0  0  0  0  0  0  0  0  0  0  0
   -1.0567    3.7974    6.6002 O   0  0  0  0  0  0  0  0  0  0  0  0
   -0.5530    2.6457    5.8536 C   0  0  2  0  0  0  0  0  0  0  0  0
   -1.0019    1.4683    6.7911 C   0  0  2  0  0  0  0  0  0  0  0  0
   -0.1754    0.8609    7.8813 C   0  0  0  0  0  0  0  0  0  0  0  0
    1.2132    0.4729    7.4564 C   0  0  2  0  0  0  0  0  0  0  0  0
    2.2680    1.6345    7.6952 C   0  0  0  0  0  0  0  0  0  0  0  0
    2.5411    3.0025    6.9122 C   0  0  0  0  0  0  0  0  0  0  0  0
    1.6362    3.8600    5.9222 C   0  0  0  0  0  0  0  0  0  0  0  0
    0.7460    3.1120    4.8754 C   0  0  1  0  0  0  0  0  0  0  0  0
    1.9547    2.4807    3.7908 C   0  0  1  0  0  0  0  0  0  0  0  0
    3.2911    2.8617    4.0596 O   0  0  0  0  0  0  0  0  0  0  0  0
    2.0255    1.5857    2.4400 C   0  0  0  0  0  0  0  0  0  0  0  0
    2.2086    0.2420    2.0505 C   0  0  0  0  0  0  0  0  0  0  0  0
    2.2168   -1.2520    2.6772 C   0  0  1  0  0  0  0  0  0  0  0  0
    3.5188   -1.7873    2.5692 O   0  0  0  0  0  0  0  0  0  0  0  0
    1.6692   -1.4957    4.1269 C   0  0  0  0  0  0  0  0  0  0  0  0
    0.7602   -2.3172    4.7395 C   0  0  0  0  0  0  0  0  0  0  0  0
    0.0666   -1.4109    5.8603 C   0  0  1  0  0  0  0  0  0  0  0  0
    1.3277   -0.6805    6.3685 C   0  0  1  0  0  0  0  0  0  0  0  0
    1.6989   -0.2945    4.9392 C   0  0  1  0  0  0  0  0  0  0  0  0
    3.1958    0.1891    4.9637 C   0  0  0  0  0  0  0  0  0  0  0  0
    4.0670   -0.7989    5.4851 O   0  0  0  0  0  0  0  0  0  0  0  0
    0.2923    0.2084    4.4025 C   0  0  0  0  0  0  0  0  0  0  0  0
   -0.1252    0.4086    3.2731 O   0  0  0  0  0  0  0  0  0  0  0  0
   -0.6170   -0.2738    5.1596 N   0  0  0  0  0  0  0  0  0  0  0  0
   -1.6038    0.7138    5.6294 C   0  0  2  0  0  0  0  0  0  0  0  0
   -1.7445    2.2199    4.9873 C   0  0  2  0  0  0  0  0  0  0  0  0
   -1.4596    2.9602    3.6398 C   0  0  1  0  0  0  0  0  0  0  0  0
   -2.6603    3.6774    2.9811 C   0  0  0  0  0  0  0  0  0  0  0  0
   -3.6401    2.9503    2.4704 N   0  0  0  0  0  0  0  0  0  0  0  0
   -2.7046    4.9007    2.8798 O   0  0  0  0  0  0  0  0  0  0  0  0
   -0.1980    3.8996    3.8818 C   0  0  1  0  0  0  0  0  0  0  0  0
   -0.4576    5.1971    4.4088 O   0  0  0  0  0  0  0  0  0  0  0  0
   -1.0364    5.0466    8.2632 H   0  0  0  0  0  0  0  0  0  0  0  0
    0.2692    3.8740    8.2460 H   0  0  0  0  0  0  0  0  0  0  0  0
   -1.3680    3.3777    8.6667 H   0  0  0  0  0  0  0  0  0  0  0  0
   -1.9140    1.7803    7.3091 H   0  0  0  0  0  0  0  0  0  0  0  0
   -0.0807    1.5513    8.7128 H   0  0  0  0  0  0  0  0  0  0  0  0
   -0.6865    0.0057    8.3156 H   0  0  0  0  0  0  0  0  0  0  0  0
    1.4697   -0.1384    8.3238 H   0  0  0  0  0  0  0  0  0  0  0  0
    2.1144    1.9395    8.7306 H   0  0  0  0  0  0  0  0  0  0  0  0
    3.2381    1.1329    7.7793 H   0  0  0  0  0  0  0  0  0  0  0  0
    2.7793    3.7056    7.7103 H   0  0  0  0  0  0  0  0  0  0  0  0
    3.5290    2.9056    6.4674 H   0  0  0  0  0  0  0  0  0  0  0  0
    1.0769    4.6062    6.4753 H   0  0  0  0  0  0  0  0  0  0  0  0
    2.3006    4.5423    5.3908 H   0  0  0  0  0  0  0  0  0  0  0  0
    1.9862    3.3708    3.1748 H   0  0  0  0  0  0  0  0  0  0  0  0
    3.7703    2.8738    3.2410 H   0  0  0  0  0  0  0  0  0  0  0  0
    1.9878    2.2336    1.5707 H   0  0  0  0  0  0  0  0  0  0  0  0
    2.2511    0.1515    0.9727 H   0  0  0  0  0  0  0  0  0  0  0  0
    1.5902   -1.8620    2.0235 H   0  0  0  0  0  0  0  0  0  0  0  0
    3.7142   -1.9201    1.6514 H   0  0  0  0  0  0  0  0  0  0  0  0
    0.3018   -3.2018    4.3139 H   0  0  0  0  0  0  0  0  0  0  0  0
   -0.5092   -1.9397    6.6198 H   0  0  0  0  0  0  0  0  0  0  0  0
    2.0139   -1.4380    6.7637 H   0  0  0  0  0  0  0  0  0  0  0  0
    3.6685    0.4359    4.0223 H   0  0  0  0  0  0  0  0  0  0  0  0
    3.3384    1.0344    5.5907 H   0  0  0  0  0  0  0  0  0  0  0  0
    4.0803   -1.5200    4.8646 H   0  0  0  0  0  0  0  0  0  0  0  0
   -2.5679    0.2730    5.8767 H   0  0  0  0  0  0  0  0  0  0  0  0
   -2.6782    2.6097    5.4028 H   0  0  0  0  0  0  0  0  0  0  0  0
   -1.2024    2.2871    2.8372 H   0  0  0  0  0  0  0  0  0  0  0  0
   -3.6158    1.9202    2.4917 H   0  0  0  0  0  0  0  0  0  0  0  0
   -4.3910    3.4090    1.9887 H   0  0  0  0  0  0  0  0  0  0  0  0
    0.2049    4.1231    2.9031 H   0  0  0  0  0  0  0  0  0  0  0  0
    0.2384    5.7655    4.1006 H   0  0  0  0  0  0  0  0  0  0  0  0
  1  2  1  0
  1 35  1  0
  1 36  1  0
  1 37  1  0
  3  2  1  1
  3 10  1  0
  3 28  1  0
  3  4  1  0
  4 27  1  0
  4  5  1  0
  4 38  1  1
  5  6  1  0
  5 39  1  0
  5 40  1  0
  6 20  1  0
  6  7  1  0
  6 41  1  1
  7  8  1  0
  7 42  1  0
  7 43  1  0
  8  9  1  0
  8 44  1  0
  8 45  1  0
 10  9  1  1
  9 46  1  0
  9 47  1  0
 10 33  1  0
 10 11  1  0
 11 12  1  0
 11 13  1  0
 11 48  1  1
 12 49  1  0
 13 14  2  3
 13 50  1  0
 14 15  1  0
 14 51  1  0
 15 16  1  0
 15 17  1  0
 15 52  1  6
 16 53  1  0
 17 21  1  0
 17 18  2  0
 18 19  1  0
 18 54  1  0
 19 26  1  0
 19 20  1  0
 19 55  1  1
 20 21  1  0
 20 56  1  1
 21 22  1  1
 21 24  1  0
 22 23  1  0
 22 57  1  0
 22 58  1  0
 23 59  1  0
 24 25  2  0
 24 26  1  0
 26 27  1  0
 27 28  1  0
 27 60  1  1
 28 29  1  0
 28 61  1  1
 29 30  1  0
 29 33  1  0
 29 62  1  6
 30 31  1  0
 30 32  2  0
 31 63  1  0
 31 64  1  0
 33 34  1  0
 33 65  1  6
 34 66  1  0
M  END
>  <i_m_ct_stereo_status>  (117) 
1

>  <s_m_source_file>  (117) 
/var/tmp/pbs.5076255.sched01/tmpniar21pp/41tndis9zi.sdf

>  <i_m_source_file_index>  (117) 
13

>  <i_lp_mmshare_version>  (117) 
48012

>  <i_f3d_flags>  (117) 
0

>  <s_epik_input>  (117) 
W0NIM11PW0NAQF0xKFtDQEBdMjM0KVtDQEhdNVtDQEBIXShbQ0BASF0xW0NAQEhdKEMoPU8pW05IMl0pW0NASF00W09IXSlONltDQEBIXTdbQ0BIXShbQ0BIXShbQ0gyXTUpW0NIMl1bQ0gyXVtDSDJdMilbQ0BAXShDNj1PKShbQ0gyXVtPSF0pQyg9W0NIXTcpW0NASF0oW09IXSkvW0NIXT1bQ0hdXFtDSF0zW09IXQ==

>  <s_epik_cmdline>  (117) 
J2VwaWtfcHl0aG9uJywgJy1waHQnLCAnMi4wJywgJy1waCcsICc3LjAnLCAnLXRuJywgJzgnLCAnLW1hJywgJzIwMCcsICctaW1hZScsICc8aW5maWxlLm1hZT4nLCAnLW9tYWUnLCAnPG91dGZpbGUubWFlPic=

>  <r_lp_tautomer_probability>  (117) 
1

>  <r_epik_Ionization_Penalty>  (117) 
2.39813e-06

>  <r_epik_Ionization_Penalty_Charging>  (117) 
0

>  <r_epik_Ionization_Penalty_Neutral>  (117) 
2.39813e-06

>  <r_epik_State_Penalty>  (117) 
-0

>  <r_epik_Charging_Adjusted_Penalty>  (117) 
0

>  <i_epik_Tot_Q>  (117) 
0

>  <i_epik_Tot_abs_Q>  (117) 
0

>  <s_lp_Force_Field>  (117) 
OPLS3e

>  <r_lp_Energy>  (117) 
388.186

>  <b_lp_Chiralities_Consistent>  (117) 
1

>  <s_lp_Variant>  (117) 
37:0-3

>  <s_i_glide_gridfile>  (117) 
pfpi4k_grid

>  <i_i_glide_lignum>  (117) 
13

>  <i_i_glide_rotatable_bonds>  (117) 
7

>  <r_i_docking_score>  (117) 
-4.66422

>  <r_i_glide_ligand_efficiency>  (117) 
-0.137183

>  <r_i_glide_ligand_efficiency_sa>  (117) 
-0.44442

>  <r_i_glide_ligand_efficiency_ln>  (117) 
-1.03046

>  <r_i_glide_gscore>  (117) 
-4.66422

>  <r_i_glide_lipo>  (117) 
-0.0813462

>  <r_i_glide_hbond>  (117) 
-0.729199

>  <r_i_glide_metal>  (117) 
-0

>  <r_i_glide_rewards>  (117) 
-0.68729

>  <r_i_glide_evdw>  (117) 
-22.491

>  <r_i_glide_ecoul>  (117) 
-13.5004

>  <r_i_glide_erotb>  (117) 
0.0905602

>  <r_i_glide_esite>  (117) 
-0.107341

>  <r_i_glide_emodel>  (117) 
-48.2127

>  <r_i_glide_energy>  (117) 
-35.9914

>  <r_i_glide_einternal>  (117) 
6.93982

>  <r_i_glide_intrahb_reward>  (117) 
-0.5

>  <i_i_glide_confnum>  (117) 
4

>  <i_i_glide_posenum>  (117) 
7

>  <r_i_glide_eff_state_penalty>  (117) 
0

>  <ligand_id>  (117) 
37

>  <original_smiles>  (117) 
COC12C3CC4CCCC15C(O)C=CC(O)C1=CC6C4C1(CO)C(=O)N6C3C2C(C(N)=O)C5O

>  <smiles>  (117) 
[H]OC1([H])C([H])=C([H])C([H])(O[H])C23C([H])([H])C([H])([H])C([H])([H])C4([H])C([H])([H])C5([H])C([H])(N6C(=O)C7(C([H])([H])O[H])C1=C([H])C6([H])C74[H])C([H])(C([H])(C(=O)N([H])[H])C2([H])O[H])C53OC([H])([H])[H]

$$$$
37:2:1
     RDKit          3D

 66 72  0  0  1  0  0  0  0  0999 V2000
   -0.6921    4.2302    7.9971 C   0  0  0  0  0  0  0  0  0  0  0  0
   -0.9845    3.9304    6.6156 O   0  0  0  0  0  0  0  0  0  0  0  0
   -0.5728    2.6968    5.9596 C   0  0  2  0  0  0  0  0  0  0  0  0
   -1.0974    1.6229    6.9890 C   0  0  2  0  0  0  0  0  0  0  0  0
   -0.3122    1.0347    8.1186 C   0  0  0  0  0  0  0  0  0  0  0  0
    1.0447    0.5283    7.7120 C   0  0  2  0  0  0  0  0  0  0  0  0
    2.1752    1.6391    7.8517 C   0  0  0  0  0  0  0  0  0  0  0  0
    2.5409    2.9214    6.9664 C   0  0  0  0  0  0  0  0  0  0  0  0
    1.6917    3.7619    5.9132 C   0  0  0  0  0  0  0  0  0  0  0  0
    0.7440    2.9920    4.9312 C   0  0  1  0  0  0  0  0  0  0  0  0
    1.8964    2.2057    3.8913 C   0  0  1  0  0  0  0  0  0  0  0  0
    3.2602    2.5070    4.1125 O   0  0  0  0  0  0  0  0  0  0  0  0
    1.8878    1.2023    2.6142 C   0  0  0  0  0  0  0  0  0  0  0  0
    1.9734   -0.1732    2.3326 C   0  0  0  0  0  0  0  0  0  0  0  0
    1.8867   -1.6098    3.0725 C   0  0  1  0  0  0  0  0  0  0  0  0
    3.1445   -2.2363    3.0046 O   0  0  0  0  0  0  0  0  0  0  0  0
    1.3406   -1.7018    4.5335 C   0  0  0  0  0  0  0  0  0  0  0  0
    0.3767   -2.4137    5.2120 C   0  0  0  0  0  0  0  0  0  0  0  0
   -0.2377   -1.3820    6.2613 C   0  0  1  0  0  0  0  0  0  0  0  0
    1.0781   -0.7042    6.7100 C   0  0  1  0  0  0  0  0  0  0  0  0
    1.4616   -0.4457    5.2638 C   0  0  1  0  0  0  0  0  0  0  0  0
    2.9901   -0.0709    5.2375 C   0  0  0  0  0  0  0  0  0  0  0  0
    3.8108   -1.0566    5.8379 O   0  0  0  0  0  0  0  0  0  0  0  0
    0.0842    0.0972    4.6922 C   0  0  0  0  0  0  0  0  0  0  0  0
   -0.3326    0.2542    3.5461 O   0  0  0  0  0  0  0  0  0  0  0  0
   -0.8512   -0.2638    5.4815 N   0  0  0  0  0  0  0  0  0  0  0  0
   -1.7560    0.8292    5.8850 C   0  0  2  0  0  0  0  0  0  0  0  0
   -1.8014    2.2889    5.1390 C   0  0  2  0  0  0  0  0  0  0  0  0
   -1.4863    2.8982    3.7392 C   0  0  1  0  0  0  0  0  0  0  0  0
   -2.6439    3.6580    3.0367 C   0  0  0  0  0  0  0  0  0  0  0  0
   -3.6410    2.9451    2.5196 N   0  0  0  0  0  0  0  0  0  0  0  0
   -2.6416    4.8669    2.8818 O   0  0  0  0  0  0  0  0  0  0  0  0
   -0.1627    3.7679    3.8894 C   0  0  1  0  0  0  0  0  0  0  0  0
   -0.3286    5.1128    4.3205 O   0  0  0  0  0  0  0  0  0  0  0  0
   -0.8812    5.3019    8.1714 H   0  0  0  0  0  0  0  0  0  0  0  0
    0.3587    4.0394    8.2258 H   0  0  0  0  0  0  0  0  0  0  0  0
   -1.3168    3.6766    8.7211 H   0  0  0  0  0  0  0  0  0  0  0  0
   -1.9772    2.0327    7.4883 H   0  0  0  0  0  0  0  0  0  0  0  0
   -0.1651    1.7754    8.8937 H   0  0  0  0  0  0  0  0  0  0  0  0
   -0.8749    0.2453    8.6100 H   0  0  0  0  0  0  0  0  0  0  0  0
    1.2800   -0.0337    8.6200 H   0  0  0  0  0  0  0  0  0  0  0  0
    2.0537    2.0307    8.8605 H   0  0  0  0  0  0  0  0  0  0  0  0
    3.1132    1.0797    7.9728 H   0  0  0  0  0  0  0  0  0  0  0  0
    2.8348    3.6647    7.7066 H   0  0  0  0  0  0  0  0  0  0  0  0
    3.5163    2.7184    6.5283 H   0  0  0  0  0  0  0  0  0  0  0  0
    1.1763    4.5865    6.4077 H   0  0  0  0  0  0  0  0  0  0  0  0
    2.4024    4.3426    5.3230 H   0  0  0  0  0  0  0  0  0  0  0  0
    1.9748    3.0408    3.2110 H   0  0  0  0  0  0  0  0  0  0  0  0
    3.6992    2.5735    3.2754 H   0  0  0  0  0  0  0  0  0  0  0  0
    1.8829    1.7865    1.6926 H   0  0  0  0  0  0  0  0  0  0  0  0
    1.9959   -0.3525    1.2616 H   0  0  0  0  0  0  0  0  0  0  0  0
    1.2176   -2.2322    2.4814 H   0  0  0  0  0  0  0  0  0  0  0  0
    3.8038   -1.6239    3.3185 H   0  0  0  0  0  0  0  0  0  0  0  0
   -0.1519   -3.2834    4.8456 H   0  0  0  0  0  0  0  0  0  0  0  0
   -0.8396   -1.8168    7.0605 H   0  0  0  0  0  0  0  0  0  0  0  0
    1.7154   -1.4792    7.1603 H   0  0  0  0  0  0  0  0  0  0  0  0
    3.4657    0.0783    4.2793 H   0  0  0  0  0  0  0  0  0  0  0  0
    3.1867    0.8092    5.7874 H   0  0  0  0  0  0  0  0  0  0  0  0
    3.7238   -1.8739    5.3527 H   0  0  0  0  0  0  0  0  0  0  0  0
   -2.7364    0.4795    6.1833 H   0  0  0  0  0  0  0  0  0  0  0  0
   -2.6947    2.7853    5.5357 H   0  0  0  0  0  0  0  0  0  0  0  0
   -1.2821    2.1529    2.9853 H   0  0  0  0  0  0  0  0  0  0  0  0
   -3.6569    1.9353    2.5660 H   0  0  0  0  0  0  0  0  0  0  0  0
   -4.3705    3.4139    2.0069 H   0  0  0  0  0  0  0  0  0  0  0  0
    0.2399    3.8867    2.8940 H   0  0  0  0  0  0  0  0  0  0  0  0
    0.3568    5.6206    3.8907 H   0  0  0  0  0  0  0  0  0  0  0  0
  1  2  1  0
  1 35  1  0
  1 36  1  0
  1 37  1  0
  3  2  1  1
  3 10  1  0
  3 28  1  0
  3  4  1  0
  4 27  1  0
  4  5  1  0
  4 38  1  1
  5  6  1  0
  5 39  1  0
  5 40  1  0
  6 20  1  0
  6  7  1  0
  6 41  1  1
  7  8  1  0
  7 42  1  0
  7 43  1  0
  8  9  1  0
  8 44  1  0
  8 45  1  0
 10  9  1  1
  9 46  1  0
  9 47  1  0
 10 33  1  0
 10 11  1  0
 11 12  1  0
 11 13  1  0
 11 48  1  1
 12 49  1  0
 13 14  2  3
 13 50  1  0
 14 15  1  0
 14 51  1  0
 15 16  1  0
 15 17  1  0
 15 52  1  6
 16 53  1  0
 17 21  1  0
 17 18  2  0
 18 19  1  0
 18 54  1  0
 19 26  1  0
 19 20  1  0
 19 55  1  1
 20 21  1  0
 20 56  1  1
 21 22  1  1
 21 24  1  0
 22 23  1  0
 22 57  1  0
 22 58  1  0
 23 59  1  0
 24 25  2  0
 24 26  1  0
 26 27  1  0
 27 28  1  0
 27 60  1  1
 28 29  1  0
 28 61  1  1
 29 30  1  0
 29 33  1  0
 29 62  1  6
 30 31  1  0
 30 32  2  0
 31 63  1  0
 31 64  1  0
 33 34  1  0
 33 65  1  6
 34 66  1  0
M  END
>  <i_m_ct_stereo_status>  (118) 
1

>  <s_m_source_file>  (118) 
/var/tmp/pbs.5076255.sched01/tmpniar21pp/41tndis9zi.sdf

>  <i_m_source_file_index>  (118) 
13

>  <i_lp_mmshare_version>  (118) 
48012

>  <i_f3d_flags>  (118) 
0

>  <s_epik_input>  (118) 
W0NIM11PW0NAQF0xKFtDQEBdMjM0KVtDQEhdNVtDQEBIXShbQ0BASF0xW0NAQEhdKEMoPU8pW05IMl0pW0NASF00W09IXSlONltDQEBIXTdbQ0BIXShbQ0BIXShbQ0gyXTUpW0NIMl1bQ0gyXVtDSDJdMilbQ0BAXShDNj1PKShbQ0gyXVtPSF0pQyg9W0NIXTcpW0NASF0oW09IXSkvW0NIXT1bQ0hdXFtDSF0zW09IXQ==

>  <s_epik_cmdline>  (118) 
J2VwaWtfcHl0aG9uJywgJy1waHQnLCAnMi4wJywgJy1waCcsICc3LjAnLCAnLXRuJywgJzgnLCAnLW1hJywgJzIwMCcsICctaW1hZScsICc8aW5maWxlLm1hZT4nLCAnLW9tYWUnLCAnPG91dGZpbGUubWFlPic=

>  <r_lp_tautomer_probability>  (118) 
1

>  <r_epik_Ionization_Penalty>  (118) 
2.39813e-06

>  <r_epik_Ionization_Penalty_Charging>  (118) 
0

>  <r_epik_Ionization_Penalty_Neutral>  (118) 
2.39813e-06

>  <r_epik_State_Penalty>  (118) 
-0

>  <r_epik_Charging_Adjusted_Penalty>  (118) 
0

>  <i_epik_Tot_Q>  (118) 
0

>  <i_epik_Tot_abs_Q>  (118) 
0

>  <s_lp_Force_Field>  (118) 
OPLS3e

>  <r_lp_Energy>  (118) 
388.186

>  <b_lp_Chiralities_Consistent>  (118) 
1

>  <s_lp_Variant>  (118) 
37:0-3

>  <s_i_glide_gridfile>  (118) 
pfpi4k_grid

>  <i_i_glide_lignum>  (118) 
13

>  <i_i_glide_rotatable_bonds>  (118) 
7

>  <r_i_docking_score>  (118) 
-3.82817

>  <r_i_glide_ligand_efficiency>  (118) 
-0.112593

>  <r_i_glide_ligand_efficiency_sa>  (118) 
-0.364758

>  <r_i_glide_ligand_efficiency_ln>  (118) 
-0.845749

>  <r_i_glide_gscore>  (118) 
-3.82817

>  <r_i_glide_lipo>  (118) 
0

>  <r_i_glide_hbond>  (118) 
-0.678542

>  <r_i_glide_metal>  (118) 
-0

>  <r_i_glide_rewards>  (118) 
-0.18729

>  <r_i_glide_evdw>  (118) 
-22.3608

>  <r_i_glide_ecoul>  (118) 
-12.0966

>  <r_i_glide_erotb>  (118) 
0.0905602

>  <r_i_glide_esite>  (118) 
-0.120371

>  <r_i_glide_emodel>  (118) 
-39.3505

>  <r_i_glide_energy>  (118) 
-34.4573

>  <r_i_glide_einternal>  (118) 
6.88344

>  <r_i_glide_intrahb_reward>  (118) 
-0

>  <i_i_glide_confnum>  (118) 
2

>  <i_i_glide_posenum>  (118) 
23

>  <r_i_glide_eff_state_penalty>  (118) 
0

>  <ligand_id>  (118) 
37

>  <original_smiles>  (118) 
COC12C3CC4CCCC15C(O)C=CC(O)C1=CC6C4C1(CO)C(=O)N6C3C2C(C(N)=O)C5O

>  <smiles>  (118) 
[H]OC1([H])C([H])=C([H])C([H])(O[H])C23C([H])([H])C([H])([H])C([H])([H])C4([H])C([H])([H])C5([H])C([H])(N6C(=O)C7(C([H])([H])O[H])C1=C([H])C6([H])C74[H])C([H])(C([H])(C(=O)N([H])[H])C2([H])O[H])C53OC([H])([H])[H]

$$$$
37:2:2
     RDKit          3D

 66 72  0  0  1  0  0  0  0  0999 V2000
   -1.6754    4.1960    7.8199 C   0  0  0  0  0  0  0  0  0  0  0  0
   -1.0115    3.9748    6.5562 O   0  0  0  0  0  0  0  0  0  0  0  0
   -0.6375    2.6900    5.9519 C   0  0  2  0  0  0  0  0  0  0  0  0
   -1.1395    1.6056    6.9816 C   0  0  2  0  0  0  0  0  0  0  0  0
   -0.3345    1.0408    8.1094 C   0  0  0  0  0  0  0  0  0  0  0  0
    1.0295    0.5262    7.7208 C   0  0  2  0  0  0  0  0  0  0  0  0
    2.1579    1.6336    7.8754 C   0  0  0  0  0  0  0  0  0  0  0  0
    2.5105    2.9130    6.9910 C   0  0  0  0  0  0  0  0  0  0  0  0
    1.6332    3.7439    5.9695 C   0  0  0  0  0  0  0  0  0  0  0  0
    0.7002    2.9965    4.9516 C   0  0  1  0  0  0  0  0  0  0  0  0
    1.8671    2.2074    3.9089 C   0  0  1  0  0  0  0  0  0  0  0  0
    3.2244    2.5334    4.1428 O   0  0  0  0  0  0  0  0  0  0  0  0
    1.8725    1.2110    2.6292 C   0  0  0  0  0  0  0  0  0  0  0  0
    1.9551   -0.1638    2.3456 C   0  0  0  0  0  0  0  0  0  0  0  0
    1.8667   -1.6064    3.0814 C   0  0  1  0  0  0  0  0  0  0  0  0
    3.1309   -2.2239    2.9854 O   0  0  0  0  0  0  0  0  0  0  0  0
    1.3372   -1.7024    4.5509 C   0  0  0  0  0  0  0  0  0  0  0  0
    0.3699   -2.4244    5.2256 C   0  0  0  0  0  0  0  0  0  0  0  0
   -0.2489   -1.3907    6.2674 C   0  0  1  0  0  0  0  0  0  0  0  0
    1.0546   -0.7039    6.7283 C   0  0  1  0  0  0  0  0  0  0  0  0
    1.4401   -0.4535    5.2640 C   0  0  1  0  0  0  0  0  0  0  0  0
    2.9627   -0.0594    5.2463 C   0  0  0  0  0  0  0  0  0  0  0  0
    3.7891   -1.0417    5.8470 O   0  0  0  0  0  0  0  0  0  0  0  0
    0.0652    0.1048    4.6885 C   0  0  0  0  0  0  0  0  0  0  0  0
   -0.3381    0.2556    3.5564 O   0  0  0  0  0  0  0  0  0  0  0  0
   -0.8751   -0.2767    5.4753 N   0  0  0  0  0  0  0  0  0  0  0  0
   -1.7890    0.8008    5.8748 C   0  0  2  0  0  0  0  0  0  0  0  0
   -1.8366    2.2771    5.1285 C   0  0  2  0  0  0  0  0  0  0  0  0
   -1.5096    2.9039    3.7351 C   0  0  1  0  0  0  0  0  0  0  0  0
   -2.6615    3.6520    3.0339 C   0  0  0  0  0  0  0  0  0  0  0  0
   -3.6539    2.9453    2.5090 N   0  0  0  0  0  0  0  0  0  0  0  0
   -2.6623    4.8741    2.8780 O   0  0  0  0  0  0  0  0  0  0  0  0
   -0.1738    3.7619    3.8807 C   0  0  1  0  0  0  0  0  0  0  0  0
   -0.3287    5.1238    4.3009 O   0  0  0  0  0  0  0  0  0  0  0  0
   -1.6245    5.2111    8.0844 H   0  0  0  0  0  0  0  0  0  0  0  0
   -1.2232    3.6247    8.6485 H   0  0  0  0  0  0  0  0  0  0  0  0
   -2.7480    3.9248    7.7510 H   0  0  0  0  0  0  0  0  0  0  0  0
   -2.0574    1.9347    7.4777 H   0  0  0  0  0  0  0  0  0  0  0  0
   -0.1835    1.8133    8.8573 H   0  0  0  0  0  0  0  0  0  0  0  0
   -0.8780    0.2572    8.6414 H   0  0  0  0  0  0  0  0  0  0  0  0
    1.2546   -0.0317    8.6357 H   0  0  0  0  0  0  0  0  0  0  0  0
    2.0280    2.0337    8.8813 H   0  0  0  0  0  0  0  0  0  0  0  0
    3.0958    1.0832    7.9916 H   0  0  0  0  0  0  0  0  0  0  0  0
    2.8088    3.6583    7.7288 H   0  0  0  0  0  0  0  0  0  0  0  0
    3.4801    2.7289    6.5336 H   0  0  0  0  0  0  0  0  0  0  0  0
    1.1217    4.5147    6.5446 H   0  0  0  0  0  0  0  0  0  0  0  0
    2.3158    4.3769    5.3992 H   0  0  0  0  0  0  0  0  0  0  0  0
    1.9494    3.0495    3.2314 H   0  0  0  0  0  0  0  0  0  0  0  0
    3.6728    2.5612    3.3130 H   0  0  0  0  0  0  0  0  0  0  0  0
    1.8738    1.7894    1.7108 H   0  0  0  0  0  0  0  0  0  0  0  0
    1.9874   -0.3481    1.2805 H   0  0  0  0  0  0  0  0  0  0  0  0
    1.1976   -2.2292    2.4891 H   0  0  0  0  0  0  0  0  0  0  0  0
    3.7444   -1.7110    3.4814 H   0  0  0  0  0  0  0  0  0  0  0  0
   -0.1682   -3.2779    4.8569 H   0  0  0  0  0  0  0  0  0  0  0  0
   -0.8626   -1.8122    7.0602 H   0  0  0  0  0  0  0  0  0  0  0  0
    1.6874   -1.4740    7.1648 H   0  0  0  0  0  0  0  0  0  0  0  0
    3.4430    0.0846    4.2833 H   0  0  0  0  0  0  0  0  0  0  0  0
    3.1519    0.8248    5.8002 H   0  0  0  0  0  0  0  0  0  0  0  0
    4.6741   -0.7211    5.8730 H   0  0  0  0  0  0  0  0  0  0  0  0
   -2.7646    0.4461    6.1690 H   0  0  0  0  0  0  0  0  0  0  0  0
   -2.7272    2.7623    5.5345 H   0  0  0  0  0  0  0  0  0  0  0  0
   -1.2991    2.1617    2.9845 H   0  0  0  0  0  0  0  0  0  0  0  0
   -3.6666    1.9147    2.5605 H   0  0  0  0  0  0  0  0  0  0  0  0
   -4.3758    3.4189    1.9989 H   0  0  0  0  0  0  0  0  0  0  0  0
    0.2196    3.8742    2.8828 H   0  0  0  0  0  0  0  0  0  0  0  0
    0.3090    5.6326    3.8365 H   0  0  0  0  0  0  0  0  0  0  0  0
  1  2  1  0
  1 35  1  0
  1 36  1  0
  1 37  1  0
  3  2  1  1
  3 10  1  0
  3 28  1  0
  3  4  1  0
  4 27  1  0
  4  5  1  0
  4 38  1  1
  5  6  1  0
  5 39  1  0
  5 40  1  0
  6 20  1  0
  6  7  1  0
  6 41  1  1
  7  8  1  0
  7 42  1  0
  7 43  1  0
  8  9  1  0
  8 44  1  0
  8 45  1  0
 10  9  1  1
  9 46  1  0
  9 47  1  0
 10 33  1  0
 10 11  1  0
 11 12  1  0
 11 13  1  0
 11 48  1  1
 12 49  1  0
 13 14  2  3
 13 50  1  0
 14 15  1  0
 14 51  1  0
 15 16  1  0
 15 17  1  0
 15 52  1  6
 16 53  1  0
 17 21  1  0
 17 18  2  0
 18 19  1  0
 18 54  1  0
 19 26  1  0
 19 20  1  0
 19 55  1  1
 20 21  1  0
 20 56  1  1
 21 22  1  1
 21 24  1  0
 22 23  1  0
 22 57  1  0
 22 58  1  0
 23 59  1  0
 24 25  2  0
 24 26  1  0
 26 27  1  0
 27 28  1  0
 27 60  1  1
 28 29  1  0
 28 61  1  1
 29 30  1  0
 29 33  1  0
 29 62  1  6
 30 31  1  0
 30 32  2  0
 31 63  1  0
 31 64  1  0
 33 34  1  0
 33 65  1  6
 34 66  1  0
M  END
>  <i_m_ct_stereo_status>  (119) 
1

>  <s_m_source_file>  (119) 
/var/tmp/pbs.5076255.sched01/tmpniar21pp/41tndis9zi.sdf

>  <i_m_source_file_index>  (119) 
13

>  <i_lp_mmshare_version>  (119) 
48012

>  <i_f3d_flags>  (119) 
0

>  <s_epik_input>  (119) 
W0NIM11PW0NAQF0xKFtDQEBdMjM0KVtDQEhdNVtDQEBIXShbQ0BASF0xW0NAQEhdKEMoPU8pW05IMl0pW0NASF00W09IXSlONltDQEBIXTdbQ0BIXShbQ0BIXShbQ0gyXTUpW0NIMl1bQ0gyXVtDSDJdMilbQ0BAXShDNj1PKShbQ0gyXVtPSF0pQyg9W0NIXTcpW0NASF0oW09IXSkvW0NIXT1bQ0hdXFtDSF0zW09IXQ==

>  <s_epik_cmdline>  (119) 
J2VwaWtfcHl0aG9uJywgJy1waHQnLCAnMi4wJywgJy1waCcsICc3LjAnLCAnLXRuJywgJzgnLCAnLW1hJywgJzIwMCcsICctaW1hZScsICc8aW5maWxlLm1hZT4nLCAnLW9tYWUnLCAnPG91dGZpbGUubWFlPic=

>  <r_lp_tautomer_probability>  (119) 
1

>  <r_epik_Ionization_Penalty>  (119) 
2.39813e-06

>  <r_epik_Ionization_Penalty_Charging>  (119) 
0

>  <r_epik_Ionization_Penalty_Neutral>  (119) 
2.39813e-06

>  <r_epik_State_Penalty>  (119) 
-0

>  <r_epik_Charging_Adjusted_Penalty>  (119) 
0

>  <i_epik_Tot_Q>  (119) 
0

>  <i_epik_Tot_abs_Q>  (119) 
0

>  <s_lp_Force_Field>  (119) 
OPLS3e

>  <r_lp_Energy>  (119) 
388.186

>  <b_lp_Chiralities_Consistent>  (119) 
1

>  <s_lp_Variant>  (119) 
37:0-3

>  <s_i_glide_gridfile>  (119) 
pfpi4k_grid

>  <i_i_glide_lignum>  (119) 
13

>  <i_i_glide_rotatable_bonds>  (119) 
7

>  <r_i_docking_score>  (119) 
-3.74516

>  <r_i_glide_ligand_efficiency>  (119) 
-0.110152

>  <r_i_glide_ligand_efficiency_sa>  (119) 
-0.356849

>  <r_i_glide_ligand_efficiency_ln>  (119) 
-0.827412

>  <r_i_glide_gscore>  (119) 
-3.74516

>  <r_i_glide_lipo>  (119) 
0

>  <r_i_glide_hbond>  (119) 
-0.64835

>  <r_i_glide_metal>  (119) 
-0

>  <r_i_glide_rewards>  (119) 
-0.18729

>  <r_i_glide_evdw>  (119) 
-22.7713

>  <r_i_glide_ecoul>  (119) 
-11.6096

>  <r_i_glide_erotb>  (119) 
0.0905602

>  <r_i_glide_esite>  (119) 
-0.120079

>  <r_i_glide_emodel>  (119) 
-34.8998

>  <r_i_glide_energy>  (119) 
-34.3809

>  <r_i_glide_einternal>  (119) 
14.0895

>  <r_i_glide_intrahb_reward>  (119) 
-0

>  <i_i_glide_confnum>  (119) 
2

>  <i_i_glide_posenum>  (119) 
13

>  <r_i_glide_eff_state_penalty>  (119) 
0

>  <ligand_id>  (119) 
37

>  <original_smiles>  (119) 
COC12C3CC4CCCC15C(O)C=CC(O)C1=CC6C4C1(CO)C(=O)N6C3C2C(C(N)=O)C5O

>  <smiles>  (119) 
[H]OC1([H])C([H])=C([H])C([H])(O[H])C23C([H])([H])C([H])([H])C([H])([H])C4([H])C([H])([H])C5([H])C([H])(N6C(=O)C7(C([H])([H])O[H])C1=C([H])C6([H])C74[H])C([H])(C([H])(C(=O)N([H])[H])C2([H])O[H])C53OC([H])([H])[H]

$$$$
37:3:0
     RDKit          3D

 66 72  0  0  1  0  0  0  0  0999 V2000
   -2.1568    3.6894    7.0813 C   0  0  0  0  0  0  0  0  0  0  0  0
   -0.8204    3.2955    6.7212 O   0  0  0  0  0  0  0  0  0  0  0  0
   -0.4478    2.3371    5.6818 C   0  0  2  0  0  0  0  0  0  0  0  0
   -0.8279    0.9894    6.4238 C   0  0  2  0  0  0  0  0  0  0  0  0
   -0.0437    0.1712    7.4135 C   0  0  0  0  0  0  0  0  0  0  0  0
    1.3636   -0.1220    6.9883 C   0  0  2  0  0  0  0  0  0  0  0  0
    2.3130    1.0622    7.4444 C   0  0  0  0  0  0  0  0  0  0  0  0
    1.8767    2.5817    7.3831 C   0  0  0  0  0  0  0  0  0  0  0  0
    1.7480    3.5176    6.1006 C   0  0  0  0  0  0  0  0  0  0  0  0
    0.8593    3.0626    4.8592 C   0  0  1  0  0  0  0  0  0  0  0  0
    1.9816    2.8633    3.5189 C   0  0  1  0  0  0  0  0  0  0  0  0
    3.3470    3.1341    3.7960 O   0  0  0  0  0  0  0  0  0  0  0  0
    1.9170    1.9725    2.2017 C   0  0  0  0  0  0  0  0  0  0  0  0
    2.7377    0.9145    1.8343 C   0  0  0  0  0  0  0  0  0  0  0  0
    2.4891   -0.6778    1.8773 C   0  0  1  0  0  0  0  0  0  0  0  0
    3.6725   -1.3242    1.4550 O   0  0  0  0  0  0  0  0  0  0  0  0
    2.0374   -1.2728    3.2855 C   0  0  0  0  0  0  0  0  0  0  0  0
    1.1474   -2.2432    3.6901 C   0  0  0  0  0  0  0  0  0  0  0  0
    0.3370   -1.6505    4.9587 C   0  0  1  0  0  0  0  0  0  0  0  0
    1.5271   -0.9714    5.6411 C   0  0  1  0  0  0  0  0  0  0  0  0
    1.9093   -0.2671    4.3375 C   0  0  1  0  0  0  0  0  0  0  0  0
    3.2665    0.4258    4.6694 C   0  0  0  0  0  0  0  0  0  0  0  0
    4.1978   -0.4291    5.3048 O   0  0  0  0  0  0  0  0  0  0  0  0
    0.4739    0.2396    3.9023 C   0  0  0  0  0  0  0  0  0  0  0  0
    0.0314    0.3422    2.7635 O   0  0  0  0  0  0  0  0  0  0  0  0
   -0.4131   -0.4203    4.5284 N   0  0  0  0  0  0  0  0  0  0  0  0
   -1.4374    0.4209    5.1662 C   0  0  2  0  0  0  0  0  0  0  0  0
   -1.6150    2.0091    4.7660 C   0  0  2  0  0  0  0  0  0  0  0  0
   -1.3136    2.9881    3.5868 C   0  0  1  0  0  0  0  0  0  0  0  0
   -2.5363    3.7000    2.9727 C   0  0  0  0  0  0  0  0  0  0  0  0
   -3.5247    2.9425    2.5078 N   0  0  0  0  0  0  0  0  0  0  0  0
   -2.5823    4.9275    2.8586 O   0  0  0  0  0  0  0  0  0  0  0  0
   -0.1623    3.9833    4.0585 C   0  0  1  0  0  0  0  0  0  0  0  0
   -0.5488    5.1146    4.8275 O   0  0  0  0  0  0  0  0  0  0  0  0
   -2.1049    4.4676    7.8455 H   0  0  0  0  0  0  0  0  0  0  0  0
   -2.7616    2.8989    7.5256 H   0  0  0  0  0  0  0  0  0  0  0  0
   -2.7194    4.0923    6.2448 H   0  0  0  0  0  0  0  0  0  0  0  0
   -1.7272    1.1817    6.9904 H   0  0  0  0  0  0  0  0  0  0  0  0
   -0.0354    0.6561    8.3890 H   0  0  0  0  0  0  0  0  0  0  0  0
   -0.5499   -0.7739    7.5913 H   0  0  0  0  0  0  0  0  0  0  0  0
    1.6389   -0.8914    7.7081 H   0  0  0  0  0  0  0  0  0  0  0  0
    2.3874    0.8969    8.5217 H   0  0  0  0  0  0  0  0  0  0  0  0
    3.3615    0.9097    7.2002 H   0  0  0  0  0  0  0  0  0  0  0  0
    0.9939    2.6864    8.0064 H   0  0  0  0  0  0  0  0  0  0  0  0
    2.6267    3.0847    7.9899 H   0  0  0  0  0  0  0  0  0  0  0  0
    1.3240    4.4483    6.4772 H   0  0  0  0  0  0  0  0  0  0  0  0
    2.7451    3.8519    5.8523 H   0  0  0  0  0  0  0  0  0  0  0  0
    1.9543    3.8025    2.9782 H   0  0  0  0  0  0  0  0  0  0  0  0
    3.8694    2.9925    3.0117 H   0  0  0  0  0  0  0  0  0  0  0  0
    0.9457    2.0310    1.7381 H   0  0  0  0  0  0  0  0  0  0  0  0
    3.7803    1.0696    2.0335 H   0  0  0  0  0  0  0  0  0  0  0  0
    1.7213   -0.9045    1.1525 H   0  0  0  0  0  0  0  0  0  0  0  0
    3.5858   -1.5286    0.5372 H   0  0  0  0  0  0  0  0  0  0  0  0
    0.7624   -3.0331    3.0679 H   0  0  0  0  0  0  0  0  0  0  0  0
   -0.1886   -2.3880    5.5636 H   0  0  0  0  0  0  0  0  0  0  0  0
    2.2497   -1.7646    5.8644 H   0  0  0  0  0  0  0  0  0  0  0  0
    3.9213    0.7130    3.8812 H   0  0  0  0  0  0  0  0  0  0  0  0
    3.1115    1.3221    5.2281 H   0  0  0  0  0  0  0  0  0  0  0  0
    5.0021    0.0550    5.3924 H   0  0  0  0  0  0  0  0  0  0  0  0
   -2.4004   -0.0761    5.3552 H   0  0  0  0  0  0  0  0  0  0  0  0
   -2.5880    2.2340    5.1906 H   0  0  0  0  0  0  0  0  0  0  0  0
   -0.9264    2.4517    2.7334 H   0  0  0  0  0  0  0  0  0  0  0  0
   -3.4573    1.9359    2.5461 H   0  0  0  0  0  0  0  0  0  0  0  0
   -4.3075    3.3847    2.0498 H   0  0  0  0  0  0  0  0  0  0  0  0
    0.1757    4.4858    3.1557 H   0  0  0  0  0  0  0  0  0  0  0  0
    0.2139    5.6605    4.9367 H   0  0  0  0  0  0  0  0  0  0  0  0
  1  2  1  0
  1 35  1  0
  1 36  1  0
  1 37  1  0
  3  2  1  1
  3 10  1  0
  3 28  1  0
  3  4  1  0
  4 27  1  0
  4  5  1  0
  4 38  1  1
  5  6  1  0
  5 39  1  0
  5 40  1  0
  6 20  1  0
  6  7  1  0
  6 41  1  1
  7  8  1  0
  7 42  1  0
  7 43  1  0
  8  9  1  0
  8 44  1  0
  8 45  1  0
 10  9  1  1
  9 46  1  0
  9 47  1  0
 10 33  1  0
 10 11  1  0
 11 12  1  0
 11 13  1  0
 11 48  1  6
 12 49  1  0
 13 14  2  3
 13 50  1  0
 14 15  1  0
 14 51  1  0
 15 16  1  0
 15 17  1  0
 15 52  1  6
 16 53  1  0
 17 21  1  0
 17 18  2  0
 18 19  1  0
 18 54  1  0
 19 26  1  0
 19 20  1  0
 19 55  1  1
 20 21  1  0
 20 56  1  1
 21 22  1  1
 21 24  1  0
 22 23  1  0
 22 57  1  0
 22 58  1  0
 23 59  1  0
 24 25  2  0
 24 26  1  0
 26 27  1  0
 27 28  1  0
 27 60  1  1
 28 29  1  0
 28 61  1  1
 29 30  1  0
 29 33  1  0
 29 62  1  6
 30 31  1  0
 30 32  2  0
 31 63  1  0
 31 64  1  0
 33 34  1  0
 33 65  1  6
 34 66  1  0
M  END
>  <i_m_ct_stereo_status>  (120) 
1

>  <s_m_source_file>  (120) 
/var/tmp/pbs.5076255.sched01/tmpniar21pp/41tndis9zi.sdf

>  <i_m_source_file_index>  (120) 
14

>  <i_lp_mmshare_version>  (120) 
48012

>  <i_f3d_flags>  (120) 
0

>  <s_epik_input>  (120) 
W0NIM11PW0NAQF0xKFtDQEBdMjM0KVtDQEhdNVtDQEBIXShbQ0BASF0xW0NAQEhdKEMoPU8pW05IMl0pW0NASF00W09IXSlONltDQEBIXTdbQ0BIXShbQ0BIXShbQ0gyXTUpW0NIMl1bQ0gyXVtDSDJdMilbQ0BAXShDNj1PKShbQ0gyXVtPSF0pQyg9W0NIXTcpW0NASF0oW09IXSkvW0NIXT1bQ0hdXFtDSF0zW09IXQ==

>  <s_epik_cmdline>  (120) 
J2VwaWtfcHl0aG9uJywgJy1waHQnLCAnMi4wJywgJy1waCcsICc3LjAnLCAnLXRuJywgJzgnLCAnLW1hJywgJzIwMCcsICctaW1hZScsICc8aW5maWxlLm1hZT4nLCAnLW9tYWUnLCAnPG91dGZpbGUubWFlPic=

>  <r_lp_tautomer_probability>  (120) 
1

>  <r_epik_Ionization_Penalty>  (120) 
2.39813e-06

>  <r_epik_Ionization_Penalty_Charging>  (120) 
0

>  <r_epik_Ionization_Penalty_Neutral>  (120) 
2.39813e-06

>  <r_epik_State_Penalty>  (120) 
-0

>  <r_epik_Charging_Adjusted_Penalty>  (120) 
0

>  <i_epik_Tot_Q>  (120) 
0

>  <i_epik_Tot_abs_Q>  (120) 
0

>  <s_lp_Force_Field>  (120) 
OPLS3e

>  <r_lp_Energy>  (120) 
417.66

>  <b_lp_Chiralities_Consistent>  (120) 
1

>  <s_lp_Variant>  (120) 
37:0-4

>  <s_i_glide_gridfile>  (120) 
pfpi4k_grid

>  <i_i_glide_lignum>  (120) 
14

>  <i_i_glide_rotatable_bonds>  (120) 
7

>  <r_i_docking_score>  (120) 
-4.26656

>  <r_i_glide_ligand_efficiency>  (120) 
-0.125487

>  <r_i_glide_ligand_efficiency_sa>  (120) 
-0.406529

>  <r_i_glide_ligand_efficiency_ln>  (120) 
-0.942603

>  <r_i_glide_gscore>  (120) 
-4.26656

>  <r_i_glide_lipo>  (120) 
-0.152008

>  <r_i_glide_hbond>  (120) 
-0.76

>  <r_i_glide_metal>  (120) 
-0

>  <r_i_glide_rewards>  (120) 
-0.18729

>  <r_i_glide_evdw>  (120) 
-22.3278

>  <r_i_glide_ecoul>  (120) 
-13.5378

>  <r_i_glide_erotb>  (120) 
0.0905602

>  <r_i_glide_esite>  (120) 
-0.110766

>  <r_i_glide_emodel>  (120) 
-43.772

>  <r_i_glide_energy>  (120) 
-35.8655

>  <r_i_glide_einternal>  (120) 
4.40894

>  <r_i_glide_intrahb_reward>  (120) 
-0

>  <i_i_glide_confnum>  (120) 
5

>  <i_i_glide_posenum>  (120) 
1

>  <r_i_glide_eff_state_penalty>  (120) 
0

>  <ligand_id>  (120) 
37

>  <original_smiles>  (120) 
COC12C3CC4CCCC15C(O)C=CC(O)C1=CC6C4C1(CO)C(=O)N6C3C2C(C(N)=O)C5O

>  <smiles>  (120) 
[H]OC1([H])C([H])=C([H])C([H])(O[H])C23C([H])([H])C([H])([H])C([H])([H])C4([H])C([H])([H])C5([H])C([H])(N6C(=O)C7(C([H])([H])O[H])C1=C([H])C6([H])C74[H])C([H])(C([H])(C(=O)N([H])[H])C2([H])O[H])C53OC([H])([H])[H]

$$$$
37:3:1
     RDKit          3D

 66 72  0  0  1  0  0  0  0  0999 V2000
   -1.7397    3.7972    7.7000 C   0  0  0  0  0  0  0  0  0  0  0  0
   -0.8786    3.7527    6.5461 O   0  0  0  0  0  0  0  0  0  0  0  0
   -0.5650    2.5908    5.7035 C   0  0  2  0  0  0  0  0  0  0  0  0
   -1.0065    1.3143    6.5432 C   0  0  2  0  0  0  0  0  0  0  0  0
   -0.2325    0.5727    7.5921 C   0  0  0  0  0  0  0  0  0  0  0  0
    1.1334    0.1460    7.1534 C   0  0  2  0  0  0  0  0  0  0  0  0
    2.1714    1.3049    7.4573 C   0  0  0  0  0  0  0  0  0  0  0  0
    1.8364    2.8415    7.2583 C   0  0  0  0  0  0  0  0  0  0  0  0
    1.7162    3.6550    5.8952 C   0  0  0  0  0  0  0  0  0  0  0  0
    0.7451    3.1363    4.7479 C   0  0  1  0  0  0  0  0  0  0  0  0
    1.7856    2.7372    3.3857 C   0  0  1  0  0  0  0  0  0  0  0  0
    3.1602    2.9404    3.6090 O   0  0  0  0  0  0  0  0  0  0  0  0
    1.6293    1.7327    2.1562 C   0  0  0  0  0  0  0  0  0  0  0  0
    2.3638    0.5874    1.8731 C   0  0  0  0  0  0  0  0  0  0  0  0
    1.9937   -0.9730    2.0716 C   0  0  1  0  0  0  0  0  0  0  0  0
    3.1129   -1.7476    1.6931 O   0  0  0  0  0  0  0  0  0  0  0  0
    1.5636   -1.3987    3.5497 C   0  0  0  0  0  0  0  0  0  0  0  0
    0.6365   -2.2592    4.0904 C   0  0  0  0  0  0  0  0  0  0  0  0
   -0.0753   -1.4941    5.3189 C   0  0  1  0  0  0  0  0  0  0  0  0
    1.1814   -0.8382    5.8919 C   0  0  1  0  0  0  0  0  0  0  0  0
    1.5489   -0.2890    4.5055 C   0  0  1  0  0  0  0  0  0  0  0  0
    2.9611    0.3362    4.7243 C   0  0  0  0  0  0  0  0  0  0  0  0
    3.8574   -0.5146    5.4102 O   0  0  0  0  0  0  0  0  0  0  0  0
    0.1406    0.2799    4.0682 C   0  0  0  0  0  0  0  0  0  0  0  0
   -0.3381    0.3150    2.9375 O   0  0  0  0  0  0  0  0  0  0  0  0
   -0.7535   -0.2663    4.7739 N   0  0  0  0  0  0  0  0  0  0  0  0
   -1.6858    0.7001    5.3590 C   0  0  2  0  0  0  0  0  0  0  0  0
   -1.7806    2.2748    4.8550 C   0  0  2  0  0  0  0  0  0  0  0  0
   -1.4808    3.1197    3.5667 C   0  0  1  0  0  0  0  0  0  0  0  0
   -2.6649    3.8514    2.9348 C   0  0  0  0  0  0  0  0  0  0  0  0
   -2.4936    5.0923    2.4878 N   0  0  0  0  0  0  0  0  0  0  0  0
   -3.7640    3.3151    2.8119 O   0  0  0  0  0  0  0  0  0  0  0  0
   -0.2276    4.0527    3.8899 C   0  0  1  0  0  0  0  0  0  0  0  0
   -0.5114    5.3092    4.4993 O   0  0  0  0  0  0  0  0  0  0  0  0
   -1.7145    4.7798    8.1862 H   0  0  0  0  0  0  0  0  0  0  0  0
   -1.4419    3.1178    8.4949 H   0  0  0  0  0  0  0  0  0  0  0  0
   -2.7750    3.6036    7.4292 H   0  0  0  0  0  0  0  0  0  0  0  0
   -1.9488    1.4705    7.0568 H   0  0  0  0  0  0  0  0  0  0  0  0
   -0.1580    1.1632    8.5080 H   0  0  0  0  0  0  0  0  0  0  0  0
   -0.8009   -0.2999    7.8938 H   0  0  0  0  0  0  0  0  0  0  0  0
    1.3774   -0.5627    7.9459 H   0  0  0  0  0  0  0  0  0  0  0  0
    2.2791    1.2462    8.5428 H   0  0  0  0  0  0  0  0  0  0  0  0
    3.1943    1.0586    7.1933 H   0  0  0  0  0  0  0  0  0  0  0  0
    0.9866    3.0750    7.8931 H   0  0  0  0  0  0  0  0  0  0  0  0
    2.6455    3.3489    7.7835 H   0  0  0  0  0  0  0  0  0  0  0  0
    1.3702    4.6460    6.1836 H   0  0  0  0  0  0  0  0  0  0  0  0
    2.7248    3.8969    5.5842 H   0  0  0  0  0  0  0  0  0  0  0  0
    1.8194    3.6185    2.7550 H   0  0  0  0  0  0  0  0  0  0  0  0
    3.6197    2.9454    2.7779 H   0  0  0  0  0  0  0  0  0  0  0  0
    0.6479    1.8102    1.7171 H   0  0  0  0  0  0  0  0  0  0  0  0
    3.4208    0.6978    2.0207 H   0  0  0  0  0  0  0  0  0  0  0  0
    1.1778   -1.2136    1.3886 H   0  0  0  0  0  0  0  0  0  0  0  0
    3.1558   -1.7604    0.7477 H   0  0  0  0  0  0  0  0  0  0  0  0
    0.1843   -3.0904    3.5799 H   0  0  0  0  0  0  0  0  0  0  0  0
   -0.6271   -2.1255    6.0160 H   0  0  0  0  0  0  0  0  0  0  0  0
    1.8529   -1.6481    6.1694 H   0  0  0  0  0  0  0  0  0  0  0  0
    3.5955    0.5050    3.8873 H   0  0  0  0  0  0  0  0  0  0  0  0
    2.8864    1.2913    5.1991 H   0  0  0  0  0  0  0  0  0  0  0  0
    4.6802   -0.0566    5.4693 H   0  0  0  0  0  0  0  0  0  0  0  0
   -2.6399    0.2553    5.6393 H   0  0  0  0  0  0  0  0  0  0  0  0
   -2.6919    2.6572    5.3126 H   0  0  0  0  0  0  0  0  0  0  0  0
   -1.1776    2.4689    2.7513 H   0  0  0  0  0  0  0  0  0  0  0  0
   -1.5420    5.4762    2.5152 H   0  0  0  0  0  0  0  0  0  0  0  0
   -3.2409    5.5908    2.0035 H   0  0  0  0  0  0  0  0  0  0  0  0
    0.1089    4.4171    2.9232 H   0  0  0  0  0  0  0  0  0  0  0  0
    0.2401    5.8722    4.3805 H   0  0  0  0  0  0  0  0  0  0  0  0
  1  2  1  0
  1 35  1  0
  1 36  1  0
  1 37  1  0
  3  2  1  1
  3 10  1  0
  3 28  1  0
  3  4  1  0
  4 27  1  0
  4  5  1  0
  4 38  1  1
  5  6  1  0
  5 39  1  0
  5 40  1  0
  6 20  1  0
  6  7  1  0
  6 41  1  1
  7  8  1  0
  7 42  1  0
  7 43  1  0
  8  9  1  0
  8 44  1  0
  8 45  1  0
 10  9  1  1
  9 46  1  0
  9 47  1  0
 10 33  1  0
 10 11  1  0
 11 12  1  0
 11 13  1  0
 11 48  1  6
 12 49  1  0
 13 14  2  3
 13 50  1  0
 14 15  1  0
 14 51  1  0
 15 16  1  0
 15 17  1  0
 15 52  1  6
 16 53  1  0
 17 21  1  0
 17 18  2  0
 18 19  1  0
 18 54  1  0
 19 26  1  0
 19 20  1  0
 19 55  1  1
 20 21  1  0
 20 56  1  1
 21 22  1  1
 21 24  1  0
 22 23  1  0
 22 57  1  0
 22 58  1  0
 23 59  1  0
 24 25  2  0
 24 26  1  0
 26 27  1  0
 27 28  1  0
 27 60  1  1
 28 29  1  0
 28 61  1  1
 29 30  1  0
 29 33  1  0
 29 62  1  6
 30 31  1  0
 30 32  2  0
 31 63  1  0
 31 64  1  0
 33 34  1  0
 33 65  1  6
 34 66  1  0
M  END
>  <i_m_ct_stereo_status>  (121) 
1

>  <s_m_source_file>  (121) 
/var/tmp/pbs.5076255.sched01/tmpniar21pp/41tndis9zi.sdf

>  <i_m_source_file_index>  (121) 
14

>  <i_lp_mmshare_version>  (121) 
48012

>  <i_f3d_flags>  (121) 
0

>  <s_epik_input>  (121) 
W0NIM11PW0NAQF0xKFtDQEBdMjM0KVtDQEhdNVtDQEBIXShbQ0BASF0xW0NAQEhdKEMoPU8pW05IMl0pW0NASF00W09IXSlONltDQEBIXTdbQ0BIXShbQ0BIXShbQ0gyXTUpW0NIMl1bQ0gyXVtDSDJdMilbQ0BAXShDNj1PKShbQ0gyXVtPSF0pQyg9W0NIXTcpW0NASF0oW09IXSkvW0NIXT1bQ0hdXFtDSF0zW09IXQ==

>  <s_epik_cmdline>  (121) 
J2VwaWtfcHl0aG9uJywgJy1waHQnLCAnMi4wJywgJy1waCcsICc3LjAnLCAnLXRuJywgJzgnLCAnLW1hJywgJzIwMCcsICctaW1hZScsICc8aW5maWxlLm1hZT4nLCAnLW9tYWUnLCAnPG91dGZpbGUubWFlPic=

>  <r_lp_tautomer_probability>  (121) 
1

>  <r_epik_Ionization_Penalty>  (121) 
2.39813e-06

>  <r_epik_Ionization_Penalty_Charging>  (121) 
0

>  <r_epik_Ionization_Penalty_Neutral>  (121) 
2.39813e-06

>  <r_epik_State_Penalty>  (121) 
-0

>  <r_epik_Charging_Adjusted_Penalty>  (121) 
0

>  <i_epik_Tot_Q>  (121) 
0

>  <i_epik_Tot_abs_Q>  (121) 
0

>  <s_lp_Force_Field>  (121) 
OPLS3e

>  <r_lp_Energy>  (121) 
417.66

>  <b_lp_Chiralities_Consistent>  (121) 
1

>  <s_lp_Variant>  (121) 
37:0-4

>  <s_i_glide_gridfile>  (121) 
pfpi4k_grid

>  <i_i_glide_lignum>  (121) 
14

>  <i_i_glide_rotatable_bonds>  (121) 
7

>  <r_i_docking_score>  (121) 
-2.66826

>  <r_i_glide_ligand_efficiency>  (121) 
-0.0784783

>  <r_i_glide_ligand_efficiency_sa>  (121) 
-0.254239

>  <r_i_glide_ligand_efficiency_ln>  (121) 
-0.589494

>  <r_i_glide_gscore>  (121) 
-2.66826

>  <r_i_glide_lipo>  (121) 
-0.0570351

>  <r_i_glide_hbond>  (121) 
-0.259637

>  <r_i_glide_metal>  (121) 
-0

>  <r_i_glide_rewards>  (121) 
-0.18729

>  <r_i_glide_evdw>  (121) 
-21.6266

>  <r_i_glide_ecoul>  (121) 
-6.40836

>  <r_i_glide_erotb>  (121) 
0.0905602

>  <r_i_glide_esite>  (121) 
-0.212276

>  <r_i_glide_emodel>  (121) 
-25.8043

>  <r_i_glide_energy>  (121) 
-28.035

>  <r_i_glide_einternal>  (121) 
13.4484

>  <r_i_glide_intrahb_reward>  (121) 
-0

>  <i_i_glide_confnum>  (121) 
5

>  <i_i_glide_posenum>  (121) 
4

>  <r_i_glide_eff_state_penalty>  (121) 
0

>  <ligand_id>  (121) 
37

>  <original_smiles>  (121) 
COC12C3CC4CCCC15C(O)C=CC(O)C1=CC6C4C1(CO)C(=O)N6C3C2C(C(N)=O)C5O

>  <smiles>  (121) 
[H]OC1([H])C([H])=C([H])C([H])(O[H])C23C([H])([H])C([H])([H])C([H])([H])C4([H])C([H])([H])C5([H])C([H])(N6C(=O)C7(C([H])([H])O[H])C1=C([H])C6([H])C74[H])C([H])(C([H])(C(=O)N([H])[H])C2([H])O[H])C53OC([H])([H])[H]

$$$$
37:3:2
     RDKit          3D

 66 72  0  0  1  0  0  0  0  0999 V2000
   -1.0420    1.7774    8.4356 C   0  0  0  0  0  0  0  0  0  0  0  0
   -0.2985    2.1429    7.2606 O   0  0  0  0  0  0  0  0  0  0  0  0
    0.1539    1.2450    6.1851 C   0  0  2  0  0  0  0  0  0  0  0  0
   -0.0533   -0.2364    6.7381 C   0  0  2  0  0  0  0  0  0  0  0  0
    0.8758   -1.0803    7.5631 C   0  0  0  0  0  0  0  0  0  0  0  0
    2.2687   -1.1741    7.0174 C   0  0  2  0  0  0  0  0  0  0  0  0
    3.1424    0.0442    7.5448 C   0  0  0  0  0  0  0  0  0  0  0  0
    2.5732    1.5182    7.7009 C   0  0  0  0  0  0  0  0  0  0  0  0
    2.2574    2.5818    6.5546 C   0  0  0  0  0  0  0  0  0  0  0  0
    1.3117    2.1836    5.3379 C   0  0  1  0  0  0  0  0  0  0  0  0
    2.3335    2.2441    3.9014 C   0  0  1  0  0  0  0  0  0  0  0  0
    3.6827    2.6065    4.1038 O   0  0  0  0  0  0  0  0  0  0  0  0
    2.2447    1.5273    2.4777 C   0  0  0  0  0  0  0  0  0  0  0  0
    3.1137    0.5915    1.9288 C   0  0  0  0  0  0  0  0  0  0  0  0
    2.9992   -1.0125    1.7962 C   0  0  1  0  0  0  0  0  0  0  0  0
    4.2096   -1.4989    1.2482 O   0  0  0  0  0  0  0  0  0  0  0  0
    2.7204   -1.8066    3.1494 C   0  0  0  0  0  0  0  0  0  0  0  0
    1.9677   -2.9096    3.4996 C   0  0  0  0  0  0  0  0  0  0  0  0
    1.2258   -2.5446    4.8844 C   0  0  1  0  0  0  0  0  0  0  0  0
    2.3941   -1.8425    5.5713 C   0  0  1  0  0  0  0  0  0  0  0  0
    2.5924   -0.9519    4.3363 C   0  0  1  0  0  0  0  0  0  0  0  0
    3.9154   -0.1735    4.6497 C   0  0  0  0  0  0  0  0  0  0  0  0
    4.9725   -1.0022    5.0956 O   0  0  0  0  0  0  0  0  0  0  0  0
    1.0903   -0.5315    4.0574 C   0  0  0  0  0  0  0  0  0  0  0  0
    0.5473   -0.3250    2.9704 O   0  0  0  0  0  0  0  0  0  0  0  0
    0.3344   -1.3540    4.6429 N   0  0  0  0  0  0  0  0  0  0  0  0
   -0.6960   -0.6885    5.4603 C   0  0  2  0  0  0  0  0  0  0  0  0
   -1.0438    0.9155    5.3197 C   0  0  2  0  0  0  0  0  0  0  0  0
   -0.9333    2.0428    4.2399 C   0  0  1  0  0  0  0  0  0  0  0  0
   -2.2246    2.7435    3.8060 C   0  0  0  0  0  0  0  0  0  0  0  0
   -3.1401    2.9908    4.7292 N   0  0  0  0  0  0  0  0  0  0  0  0
   -2.4369    3.0414    2.6372 O   0  0  0  0  0  0  0  0  0  0  0  0
    0.1496    3.0925    4.7300 C   0  0  1  0  0  0  0  0  0  0  0  0
   -0.3351    4.0836    5.6317 O   0  0  0  0  0  0  0  0  0  0  0  0
   -1.1374    2.6247    9.1147 H   0  0  0  0  0  0  0  0  0  0  0  0
   -0.5611    1.0047    9.0309 H   0  0  0  0  0  0  0  0  0  0  0  0
   -2.0529    1.4650    8.1887 H   0  0  0  0  0  0  0  0  0  0  0  0
   -0.9648   -0.3192    7.3167 H   0  0  0  0  0  0  0  0  0  0  0  0
    0.9251   -0.6973    8.5805 H   0  0  0  0  0  0  0  0  0  0  0  0
    0.4640   -2.0861    7.6796 H   0  0  0  0  0  0  0  0  0  0  0  0
    2.6706   -1.9912    7.6195 H   0  0  0  0  0  0  0  0  0  0  0  0
    3.3182   -0.2312    8.5871 H   0  0  0  0  0  0  0  0  0  0  0  0
    4.1768    0.0268    7.2115 H   0  0  0  0  0  0  0  0  0  0  0  0
    1.7332    1.4709    8.3895 H   0  0  0  0  0  0  0  0  0  0  0  0
    3.3292    2.0170    8.3116 H   0  0  0  0  0  0  0  0  0  0  0  0
    1.7917    3.4220    7.0690 H   0  0  0  0  0  0  0  0  0  0  0  0
    3.2023    3.0330    6.2786 H   0  0  0  0  0  0  0  0  0  0  0  0
    2.1893    3.2393    3.4967 H   0  0  0  0  0  0  0  0  0  0  0  0
    4.1080    2.6604    3.2531 H   0  0  0  0  0  0  0  0  0  0  0  0
    1.2367    1.5435    2.1059 H   0  0  0  0  0  0  0  0  0  0  0  0
    4.1473    0.8176    2.0846 H   0  0  0  0  0  0  0  0  0  0  0  0
    2.2024   -1.2203    1.0790 H   0  0  0  0  0  0  0  0  0  0  0  0
    4.8435   -1.5805    1.9481 H   0  0  0  0  0  0  0  0  0  0  0  0
    1.5900   -3.6554    2.8173 H   0  0  0  0  0  0  0  0  0  0  0  0
    0.7981   -3.3773    5.4366 H   0  0  0  0  0  0  0  0  0  0  0  0
    3.1939   -2.5753    5.6375 H   0  0  0  0  0  0  0  0  0  0  0  0
    4.4773    0.2703    3.8592 H   0  0  0  0  0  0  0  0  0  0  0  0
    3.7343    0.6321    5.3316 H   0  0  0  0  0  0  0  0  0  0  0  0
    5.7139   -0.4428    5.2746 H   0  0  0  0  0  0  0  0  0  0  0  0
   -1.5875   -1.3010    5.6279 H   0  0  0  0  0  0  0  0  0  0  0  0
   -1.9607    1.0246    5.8935 H   0  0  0  0  0  0  0  0  0  0  0  0
   -0.5762    1.6403    3.3066 H   0  0  0  0  0  0  0  0  0  0  0  0
   -2.9950    2.6963    5.6850 H   0  0  0  0  0  0  0  0  0  0  0  0
   -4.0341    3.3432    4.4251 H   0  0  0  0  0  0  0  0  0  0  0  0
    0.3671    3.7208    3.8684 H   0  0  0  0  0  0  0  0  0  0  0  0
   -0.4530    3.6479    6.4716 H   0  0  0  0  0  0  0  0  0  0  0  0
  1  2  1  0
  1 35  1  0
  1 36  1  0
  1 37  1  0
  3  2  1  1
  3 10  1  0
  3 28  1  0
  3  4  1  0
  4 27  1  0
  4  5  1  0
  4 38  1  1
  5  6  1  0
  5 39  1  0
  5 40  1  0
  6 20  1  0
  6  7  1  0
  6 41  1  1
  7  8  1  0
  7 42  1  0
  7 43  1  0
  8  9  1  0
  8 44  1  0
  8 45  1  0
 10  9  1  1
  9 46  1  0
  9 47  1  0
 10 33  1  0
 10 11  1  0
 11 12  1  0
 11 13  1  0
 11 48  1  6
 12 49  1  0
 13 14  2  3
 13 50  1  0
 14 15  1  0
 14 51  1  0
 15 16  1  0
 15 17  1  0
 15 52  1  6
 16 53  1  0
 17 21  1  0
 17 18  2  0
 18 19  1  0
 18 54  1  0
 19 26  1  0
 19 20  1  0
 19 55  1  1
 20 21  1  0
 20 56  1  1
 21 22  1  1
 21 24  1  0
 22 23  1  0
 22 57  1  0
 22 58  1  0
 23 59  1  0
 24 25  2  0
 24 26  1  0
 26 27  1  0
 27 28  1  0
 27 60  1  1
 28 29  1  0
 28 61  1  1
 29 30  1  0
 29 33  1  0
 29 62  1  6
 30 31  1  0
 30 32  2  0
 31 63  1  0
 31 64  1  0
 33 34  1  0
 33 65  1  6
 34 66  1  0
M  END
>  <i_m_ct_stereo_status>  (122) 
1

>  <s_m_source_file>  (122) 
/var/tmp/pbs.5076255.sched01/tmpniar21pp/41tndis9zi.sdf

>  <i_m_source_file_index>  (122) 
14

>  <i_lp_mmshare_version>  (122) 
48012

>  <i_f3d_flags>  (122) 
0

>  <s_epik_input>  (122) 
W0NIM11PW0NAQF0xKFtDQEBdMjM0KVtDQEhdNVtDQEBIXShbQ0BASF0xW0NAQEhdKEMoPU8pW05IMl0pW0NASF00W09IXSlONltDQEBIXTdbQ0BIXShbQ0BIXShbQ0gyXTUpW0NIMl1bQ0gyXVtDSDJdMilbQ0BAXShDNj1PKShbQ0gyXVtPSF0pQyg9W0NIXTcpW0NASF0oW09IXSkvW0NIXT1bQ0hdXFtDSF0zW09IXQ==

>  <s_epik_cmdline>  (122) 
J2VwaWtfcHl0aG9uJywgJy1waHQnLCAnMi4wJywgJy1waCcsICc3LjAnLCAnLXRuJywgJzgnLCAnLW1hJywgJzIwMCcsICctaW1hZScsICc8aW5maWxlLm1hZT4nLCAnLW9tYWUnLCAnPG91dGZpbGUubWFlPic=

>  <r_lp_tautomer_probability>  (122) 
1

>  <r_epik_Ionization_Penalty>  (122) 
2.39813e-06

>  <r_epik_Ionization_Penalty_Charging>  (122) 
0

>  <r_epik_Ionization_Penalty_Neutral>  (122) 
2.39813e-06

>  <r_epik_State_Penalty>  (122) 
-0

>  <r_epik_Charging_Adjusted_Penalty>  (122) 
0

>  <i_epik_Tot_Q>  (122) 
0

>  <i_epik_Tot_abs_Q>  (122) 
0

>  <s_lp_Force_Field>  (122) 
OPLS3e

>  <r_lp_Energy>  (122) 
417.66

>  <b_lp_Chiralities_Consistent>  (122) 
1

>  <s_lp_Variant>  (122) 
37:0-4

>  <s_i_glide_gridfile>  (122) 
pfpi4k_grid

>  <i_i_glide_lignum>  (122) 
14

>  <i_i_glide_rotatable_bonds>  (122) 
7

>  <r_i_docking_score>  (122) 
-2.21303

>  <r_i_glide_ligand_efficiency>  (122) 
-0.0650891

>  <r_i_glide_ligand_efficiency_sa>  (122) 
-0.210863

>  <r_i_glide_ligand_efficiency_ln>  (122) 
-0.48892

>  <r_i_glide_gscore>  (122) 
-2.21303

>  <r_i_glide_lipo>  (122) 
-0.20836

>  <r_i_glide_hbond>  (122) 
-0.32

>  <r_i_glide_metal>  (122) 
-0

>  <r_i_glide_rewards>  (122) 
-0.68729

>  <r_i_glide_evdw>  (122) 
-17.704

>  <r_i_glide_ecoul>  (122) 
-0.875311

>  <r_i_glide_erotb>  (122) 
0.0905602

>  <r_i_glide_esite>  (122) 
-0.0714414

>  <r_i_glide_emodel>  (122) 
-20.929

>  <r_i_glide_energy>  (122) 
-18.5793

>  <r_i_glide_einternal>  (122) 
13.4679

>  <r_i_glide_intrahb_reward>  (122) 
-0.5

>  <i_i_glide_confnum>  (122) 
5

>  <i_i_glide_posenum>  (122) 
7

>  <r_i_glide_eff_state_penalty>  (122) 
0

>  <ligand_id>  (122) 
37

>  <original_smiles>  (122) 
COC12C3CC4CCCC15C(O)C=CC(O)C1=CC6C4C1(CO)C(=O)N6C3C2C(C(N)=O)C5O

>  <smiles>  (122) 
[H]OC1([H])C([H])=C([H])C([H])(O[H])C23C([H])([H])C([H])([H])C([H])([H])C4([H])C([H])([H])C5([H])C([H])(N6C(=O)C7(C([H])([H])O[H])C1=C([H])C6([H])C74[H])C([H])(C([H])(C(=O)N([H])[H])C2([H])O[H])C53OC([H])([H])[H]

$$$$
38:0:0
     RDKit          3D

 48 52  0  0  1  0  0  0  0  0999 V2000
    1.7672    1.9649    4.6374 C   0  0  0  0  0  0  0  0  0  0  0  0
    2.9778    1.2614    4.5587 C   0  0  0  0  0  0  0  0  0  0  0  0
    3.3198    0.5819    3.3725 C   0  0  0  0  0  0  0  0  0  0  0  0
    2.4302    0.5943    2.2750 C   0  0  0  0  0  0  0  0  0  0  0  0
    1.2148    1.3020    2.3573 C   0  0  0  0  0  0  0  0  0  0  0  0
    0.8742    1.9996    3.5377 C   0  0  0  0  0  0  0  0  0  0  0  0
   -0.3313    2.7429    3.6396 N   0  0  0  0  0  0  0  0  0  0  0  0
   -1.4187    2.5604    2.8965 C   0  0  0  0  0  0  0  0  0  0  0  0
   -2.3835    3.3973    3.2657 N   0  0  0  0  0  0  0  0  0  0  0  0
   -1.7962    4.1155    4.2993 N   0  0  0  0  0  0  0  0  0  0  0  0
   -0.5879    3.7189    4.5356 N   0  0  0  0  0  0  0  0  0  0  0  0
    2.7230   -0.0387    1.0860 O   0  0  0  0  0  0  0  0  0  0  0  0
    3.7123   -1.0611    1.1260 C   0  0  1  0  0  0  0  0  0  0  0  0
    4.9736   -0.5174    1.8473 C   0  0  0  0  0  0  0  0  0  0  0  0
    4.6558   -0.1282    3.2901 C   0  0  0  0  0  0  0  0  0  0  0  0
    3.0969   -2.3012    1.8131 C   0  0  0  0  0  0  0  0  0  0  0  0
    4.0641   -3.4770    1.7424 C   0  0  0  0  0  0  0  0  0  0  0  0
    4.4123   -3.8052    0.3247 N   0  0  2  0  0  0  0  0  0  0  0  0
    5.2868   -4.9920    0.1749 C   0  0  0  0  0  0  0  0  0  0  0  0
    4.8530   -6.2833    0.8835 C   0  0  0  0  0  0  0  0  0  0  0  0
    6.3310   -6.4765    1.2587 C   0  0  0  0  0  0  0  0  0  0  0  0
    6.5770   -4.9850    1.0201 C   0  0  0  0  0  0  0  0  0  0  0  0
    4.9864   -2.6398   -0.4074 C   0  0  0  0  0  0  0  0  0  0  0  0
    4.0438   -1.4205   -0.3352 C   0  0  0  0  0  0  0  0  0  0  0  0
    1.5312    2.4916    5.5524 H   0  0  0  0  0  0  0  0  0  0  0  0
    3.6598    1.2573    5.3995 H   0  0  0  0  0  0  0  0  0  0  0  0
    0.5735    1.3082    1.4894 H   0  0  0  0  0  0  0  0  0  0  0  0
   -1.5214    1.8276    2.1093 H   0  0  0  0  0  0  0  0  0  0  0  0
    5.8181   -1.2092    1.8598 H   0  0  0  0  0  0  0  0  0  0  0  0
    5.3233    0.3593    1.2963 H   0  0  0  0  0  0  0  0  0  0  0  0
    5.4514    0.4951    3.6961 H   0  0  0  0  0  0  0  0  0  0  0  0
    4.6092   -1.0178    3.9194 H   0  0  0  0  0  0  0  0  0  0  0  0
    2.8820   -2.1164    2.8626 H   0  0  0  0  0  0  0  0  0  0  0  0
    2.1347   -2.5615    1.3679 H   0  0  0  0  0  0  0  0  0  0  0  0
    4.9587   -3.2138    2.3056 H   0  0  0  0  0  0  0  0  0  0  0  0
    3.5941   -4.3068    2.2640 H   0  0  0  0  0  0  0  0  0  0  0  0
    5.4882   -5.2001   -0.8728 H   0  0  0  0  0  0  0  0  0  0  0  0
    4.2359   -6.1680    1.7717 H   0  0  0  0  0  0  0  0  0  0  0  0
    4.4500   -7.0463    0.2098 H   0  0  0  0  0  0  0  0  0  0  0  0
    6.4873   -6.7769    2.2912 H   0  0  0  0  0  0  0  0  0  0  0  0
    6.8943   -7.0926    0.5594 H   0  0  0  0  0  0  0  0  0  0  0  0
    7.4812   -4.7512    0.4448 H   0  0  0  0  0  0  0  0  0  0  0  0
    6.5377   -4.4359    1.9577 H   0  0  0  0  0  0  0  0  0  0  0  0
    5.9603   -2.3893    0.0191 H   0  0  0  0  0  0  0  0  0  0  0  0
    5.1796   -2.8918   -1.4538 H   0  0  0  0  0  0  0  0  0  0  0  0
    3.1242   -1.6508   -0.8740 H   0  0  0  0  0  0  0  0  0  0  0  0
    4.4809   -0.5688   -0.8620 H   0  0  0  0  0  0  0  0  0  0  0  0
    3.5462   -4.0155   -0.1563 H   0  0  0  0  0  0  0  0  0  0  0  0
  1  6  2  0
  1  2  1  0
  1 25  1  0
  2  3  2  0
  2 26  1  0
  3 15  1  0
  3  4  1  0
  4  5  2  0
  4 12  1  0
  5  6  1  0
  5 27  1  0
  6  7  1  0
  7 11  1  0
  7  8  1  0
  8  9  2  0
  8 28  1  0
  9 10  1  0
 10 11  2  0
 13 12  1  6
 13 24  1  0
 13 14  1  0
 13 16  1  0
 14 15  1  0
 14 29  1  0
 14 30  1  0
 15 31  1  0
 15 32  1  0
 16 17  1  0
 16 33  1  0
 16 34  1  0
 17 18  1  0
 17 35  1  0
 17 36  1  0
 18 19  1  0
 18 23  1  0
 18 48  1  6
 19 22  1  0
 19 20  1  0
 19 37  1  0
 20 21  1  0
 20 38  1  0
 20 39  1  0
 21 22  1  0
 21 40  1  0
 21 41  1  0
 22 42  1  0
 22 43  1  0
 23 24  1  0
 23 44  1  0
 23 45  1  0
 24 46  1  0
 24 47  1  0
M  CHG  1  18   1
M  END
>  <i_m_ct_stereo_status>  (123) 
1

>  <s_m_source_file>  (123) 
/var/tmp/pbs.5076255.sched01/tmpniar21pp/41tndis9zi.sdf

>  <i_m_source_file_index>  (123) 
15

>  <i_lp_mmshare_version>  (123) 
48012

>  <i_f3d_flags>  (123) 
0

>  <s_epik_input>  (123) 
bjFubltjSF1uMS1jKFtjSF0yKVtjSF1bY0hdYyhbQ0gyXVtDSDJdMyljMk9DMzRbQ0gyXVtDSDJdTihbQ0gyXVtDSDJdNClbQ0hdNVtDSDJdW0NIMl1bQ0gyXTU=

>  <s_epik_cmdline>  (123) 
J2VwaWtfcHl0aG9uJywgJy1waHQnLCAnMi4wJywgJy1waCcsICc3LjAnLCAnLXRuJywgJzgnLCAnLW1hJywgJzIwMCcsICctaW1hZScsICc8aW5maWxlLm1hZT4nLCAnLW9tYWUnLCAnPG91dGZpbGUubWFlPic=

>  <r_lp_tautomer_probability>  (123) 
1

>  <r_epik_Ionization_Penalty>  (123) 
0.00327136

>  <r_epik_Ionization_Penalty_Charging>  (123) 
0.00327136

>  <r_epik_Ionization_Penalty_Neutral>  (123) 
8.85435e-10

>  <r_epik_State_Penalty>  (123) 
0.00231045

>  <r_epik_Charging_Adjusted_Penalty>  (123) 
0.00558181

>  <i_epik_Tot_Q>  (123) 
1

>  <i_epik_Tot_abs_Q>  (123) 
1

>  <s_lp_Force_Field>  (123) 
OPLS3e

>  <r_lp_Energy>  (123) 
55.2179

>  <b_lp_Chiralities_Consistent>  (123) 
1

>  <s_lp_Variant>  (123) 
38:0-1

>  <s_i_glide_gridfile>  (123) 
pfpi4k_grid

>  <i_i_glide_lignum>  (123) 
15

>  <i_i_glide_rotatable_bonds>  (123) 
2

>  <r_i_docking_score>  (123) 
-3.69784

>  <r_i_glide_ligand_efficiency>  (123) 
-0.154077

>  <r_i_glide_ligand_efficiency_sa>  (123) 
-0.444434

>  <r_i_glide_ligand_efficiency_ln>  (123) 
-0.885062

>  <r_i_glide_gscore>  (123) 
-3.69784

>  <r_i_glide_lipo>  (123) 
-0.591598

>  <r_i_glide_hbond>  (123) 
0

>  <r_i_glide_metal>  (123) 
-0

>  <r_i_glide_rewards>  (123) 
-1.18353

>  <r_i_glide_evdw>  (123) 
-26.9592

>  <r_i_glide_ecoul>  (123) 
-4.24144

>  <r_i_glide_erotb>  (123) 
0.352039

>  <r_i_glide_esite>  (123) 
-0.290576

>  <r_i_glide_emodel>  (123) 
-33.0658

>  <r_i_glide_energy>  (123) 
-31.2006

>  <r_i_glide_einternal>  (123) 
11.1727

>  <r_i_glide_intrahb_reward>  (123) 
-0

>  <i_i_glide_confnum>  (123) 
5

>  <i_i_glide_posenum>  (123) 
1

>  <r_i_glide_eff_state_penalty>  (123) 
0

>  <ligand_id>  (123) 
38

>  <original_smiles>  (123) 
c1cc2c(cc1-n1cnnn1)OC1(CC2)CCN(C2CCC2)CC1

>  <smiles>  (123) 
[H]c1c([H])c2c(c([H])c1-n1nnnc1[H])OC1(C([H])([H])C2([H])[H])C([H])([H])C([H])([H])[N+]([H])(C2([H])C([H])([H])C([H])([H])C2([H])[H])C([H])([H])C1([H])[H]

$$$$
38:0:1
     RDKit          3D

 48 52  0  0  1  0  0  0  0  0999 V2000
   -1.3169    0.7307    4.1896 C   0  0  0  0  0  0  0  0  0  0  0  0
   -0.5051   -0.3776    4.4849 C   0  0  0  0  0  0  0  0  0  0  0  0
    0.8101   -0.4328    3.9912 C   0  0  0  0  0  0  0  0  0  0  0  0
    1.3118    0.6171    3.1785 C   0  0  0  0  0  0  0  0  0  0  0  0
    0.4928    1.7329    2.8966 C   0  0  0  0  0  0  0  0  0  0  0  0
   -0.8261    1.7900    3.3994 C   0  0  0  0  0  0  0  0  0  0  0  0
   -1.6679    2.8805    3.1063 N   0  0  0  0  0  0  0  0  0  0  0  0
   -1.3342    4.1530    3.2713 C   0  0  0  0  0  0  0  0  0  0  0  0
   -2.3248    4.9402    2.9006 N   0  0  0  0  0  0  0  0  0  0  0  0
   -3.3250    4.0583    2.5086 N   0  0  0  0  0  0  0  0  0  0  0  0
   -2.9312    2.8158    2.6493 N   0  0  0  0  0  0  0  0  0  0  0  0
    2.5889    0.6069    2.6596 O   0  0  0  0  0  0  0  0  0  0  0  0
    3.2609   -0.6496    2.6235 C   0  0  1  0  0  0  0  0  0  0  0  0
    3.1376   -1.3481    4.0032 C   0  0  0  0  0  0  0  0  0  0  0  0
    1.6780   -1.6205    4.3516 C   0  0  0  0  0  0  0  0  0  0  0  0
    2.6501   -1.4760    1.4668 C   0  0  0  0  0  0  0  0  0  0  0  0
    3.4350   -2.7541    1.2599 C   0  0  0  0  0  0  0  0  0  0  0  0
    4.8752   -2.4728    0.9744 N   0  0  2  0  0  0  0  0  0  0  0  0
    5.6897   -3.6807    0.6824 C   0  0  0  0  0  0  0  0  0  0  0  0
    5.1494   -4.6438   -0.3870 C   0  0  0  0  0  0  0  0  0  0  0  0
    5.6006   -5.7845    0.5371 C   0  0  0  0  0  0  0  0  0  0  0  0
    5.6030   -4.8150    1.7176 C   0  0  0  0  0  0  0  0  0  0  0  0
    5.5179   -1.6632    2.0459 C   0  0  0  0  0  0  0  0  0  0  0  0
    4.7395   -0.3629    2.2924 C   0  0  0  0  0  0  0  0  0  0  0  0
   -2.3263    0.7687    4.5661 H   0  0  0  0  0  0  0  0  0  0  0  0
   -0.8890   -1.1858    5.0907 H   0  0  0  0  0  0  0  0  0  0  0  0
    0.8787    2.5249    2.2679 H   0  0  0  0  0  0  0  0  0  0  0  0
   -0.3903    4.5174    3.6318 H   0  0  0  0  0  0  0  0  0  0  0  0
    3.6834   -2.2886    4.0698 H   0  0  0  0  0  0  0  0  0  0  0  0
    3.5818   -0.6993    4.7586 H   0  0  0  0  0  0  0  0  0  0  0  0
    1.5872   -1.8604    5.4107 H   0  0  0  0  0  0  0  0  0  0  0  0
    1.3196   -2.4965    3.8079 H   0  0  0  0  0  0  0  0  0  0  0  0
    1.6133   -1.7607    1.6644 H   0  0  0  0  0  0  0  0  0  0  0  0
    2.6241   -0.9001    0.5374 H   0  0  0  0  0  0  0  0  0  0  0  0
    3.3173   -3.3428    2.1667 H   0  0  0  0  0  0  0  0  0  0  0  0
    2.9224   -3.2914    0.4634 H   0  0  0  0  0  0  0  0  0  0  0  0
    6.7332   -3.4262    0.4617 H   0  0  0  0  0  0  0  0  0  0  0  0
    4.0710   -4.6859   -0.5489 H   0  0  0  0  0  0  0  0  0  0  0  0
    5.6655   -4.5930   -1.3471 H   0  0  0  0  0  0  0  0  0  0  0  0
    4.8666   -6.5843    0.6366 H   0  0  0  0  0  0  0  0  0  0  0  0
    6.5999   -6.1564    0.3103 H   0  0  0  0  0  0  0  0  0  0  0  0
    6.4599   -4.8817    2.3886 H   0  0  0  0  0  0  0  0  0  0  0  0
    4.6737   -4.9201    2.2795 H   0  0  0  0  0  0  0  0  0  0  0  0
    5.5723   -2.2620    2.9545 H   0  0  0  0  0  0  0  0  0  0  0  0
    6.5552   -1.4308    1.7924 H   0  0  0  0  0  0  0  0  0  0  0  0
    4.7995    0.2510    1.3932 H   0  0  0  0  0  0  0  0  0  0  0  0
    5.2116    0.2114    3.0933 H   0  0  0  0  0  0  0  0  0  0  0  0
    4.8911   -1.8939    0.1470 H   0  0  0  0  0  0  0  0  0  0  0  0
  1  6  2  0
  1  2  1  0
  1 25  1  0
  2  3  2  0
  2 26  1  0
  3 15  1  0
  3  4  1  0
  4  5  2  0
  4 12  1  0
  5  6  1  0
  5 27  1  0
  6  7  1  0
  7 11  1  0
  7  8  1  0
  8  9  2  0
  8 28  1  0
  9 10  1  0
 10 11  2  0
 13 12  1  1
 13 24  1  0
 13 14  1  0
 13 16  1  0
 14 15  1  0
 14 29  1  0
 14 30  1  0
 15 31  1  0
 15 32  1  0
 16 17  1  0
 16 33  1  0
 16 34  1  0
 17 18  1  0
 17 35  1  0
 17 36  1  0
 18 19  1  0
 18 23  1  0
 18 48  1  6
 19 22  1  0
 19 20  1  0
 19 37  1  0
 20 21  1  0
 20 38  1  0
 20 39  1  0
 21 22  1  0
 21 40  1  0
 21 41  1  0
 22 42  1  0
 22 43  1  0
 23 24  1  0
 23 44  1  0
 23 45  1  0
 24 46  1  0
 24 47  1  0
M  CHG  1  18   1
M  END
>  <i_m_ct_stereo_status>  (124) 
1

>  <s_m_source_file>  (124) 
/var/tmp/pbs.5076255.sched01/tmpniar21pp/41tndis9zi.sdf

>  <i_m_source_file_index>  (124) 
15

>  <i_lp_mmshare_version>  (124) 
48012

>  <i_f3d_flags>  (124) 
0

>  <s_epik_input>  (124) 
bjFubltjSF1uMS1jKFtjSF0yKVtjSF1bY0hdYyhbQ0gyXVtDSDJdMyljMk9DMzRbQ0gyXVtDSDJdTihbQ0gyXVtDSDJdNClbQ0hdNVtDSDJdW0NIMl1bQ0gyXTU=

>  <s_epik_cmdline>  (124) 
J2VwaWtfcHl0aG9uJywgJy1waHQnLCAnMi4wJywgJy1waCcsICc3LjAnLCAnLXRuJywgJzgnLCAnLW1hJywgJzIwMCcsICctaW1hZScsICc8aW5maWxlLm1hZT4nLCAnLW9tYWUnLCAnPG91dGZpbGUubWFlPic=

>  <r_lp_tautomer_probability>  (124) 
1

>  <r_epik_Ionization_Penalty>  (124) 
0.00327136

>  <r_epik_Ionization_Penalty_Charging>  (124) 
0.00327136

>  <r_epik_Ionization_Penalty_Neutral>  (124) 
8.85435e-10

>  <r_epik_State_Penalty>  (124) 
0.00231045

>  <r_epik_Charging_Adjusted_Penalty>  (124) 
0.00558181

>  <i_epik_Tot_Q>  (124) 
1

>  <i_epik_Tot_abs_Q>  (124) 
1

>  <s_lp_Force_Field>  (124) 
OPLS3e

>  <r_lp_Energy>  (124) 
55.2179

>  <b_lp_Chiralities_Consistent>  (124) 
1

>  <s_lp_Variant>  (124) 
38:0-1

>  <s_i_glide_gridfile>  (124) 
pfpi4k_grid

>  <i_i_glide_lignum>  (124) 
15

>  <i_i_glide_rotatable_bonds>  (124) 
2

>  <r_i_docking_score>  (124) 
-3.51893

>  <r_i_glide_ligand_efficiency>  (124) 
-0.146622

>  <r_i_glide_ligand_efficiency_sa>  (124) 
-0.422931

>  <r_i_glide_ligand_efficiency_ln>  (124) 
-0.842241

>  <r_i_glide_gscore>  (124) 
-3.51893

>  <r_i_glide_lipo>  (124) 
-0.467262

>  <r_i_glide_hbond>  (124) 
0

>  <r_i_glide_metal>  (124) 
-0

>  <r_i_glide_rewards>  (124) 
-1.18353

>  <r_i_glide_evdw>  (124) 
-21.57

>  <r_i_glide_ecoul>  (124) 
-5.75724

>  <r_i_glide_erotb>  (124) 
0.352039

>  <r_i_glide_esite>  (124) 
-0.278094

>  <r_i_glide_emodel>  (124) 
-28.1121

>  <r_i_glide_energy>  (124) 
-27.3272

>  <r_i_glide_einternal>  (124) 
12.4757

>  <r_i_glide_intrahb_reward>  (124) 
-0

>  <i_i_glide_confnum>  (124) 
5

>  <i_i_glide_posenum>  (124) 
3

>  <r_i_glide_eff_state_penalty>  (124) 
0

>  <ligand_id>  (124) 
38

>  <original_smiles>  (124) 
c1cc2c(cc1-n1cnnn1)OC1(CC2)CCN(C2CCC2)CC1

>  <smiles>  (124) 
[H]c1c([H])c2c(c([H])c1-n1nnnc1[H])OC1(C([H])([H])C2([H])[H])C([H])([H])C([H])([H])[N+]([H])(C2([H])C([H])([H])C([H])([H])C2([H])[H])C([H])([H])C1([H])[H]

$$$$
38:0:2
     RDKit          3D

 48 52  0  0  1  0  0  0  0  0999 V2000
    1.5680    2.0990    4.9051 C   0  0  0  0  0  0  0  0  0  0  0  0
    2.8162    1.4669    4.7798 C   0  0  0  0  0  0  0  0  0  0  0  0
    3.0387    0.5475    3.7370 C   0  0  0  0  0  0  0  0  0  0  0  0
    2.0006    0.2464    2.8234 C   0  0  0  0  0  0  0  0  0  0  0  0
    0.7557    0.9009    2.9407 C   0  0  0  0  0  0  0  0  0  0  0  0
    0.5329    1.8242    3.9851 C   0  0  0  0  0  0  0  0  0  0  0  0
   -0.7222    2.4577    4.1415 N   0  0  0  0  0  0  0  0  0  0  0  0
   -1.4889    2.9057    3.1492 C   0  0  0  0  0  0  0  0  0  0  0  0
   -2.5858    3.4732    3.6269 N   0  0  0  0  0  0  0  0  0  0  0  0
   -2.4402    3.3392    5.0000 N   0  0  0  0  0  0  0  0  0  0  0  0
   -1.3166    2.7563    5.3103 N   0  0  0  0  0  0  0  0  0  0  0  0
    2.1542   -0.6726    1.8064 O   0  0  0  0  0  0  0  0  0  0  0  0
    3.2471   -1.5840    1.9056 C   0  0  1  0  0  0  0  0  0  0  0  0
    4.5392   -0.8056    2.2638 C   0  0  0  0  0  0  0  0  0  0  0  0
    4.3989   -0.1024    3.6102 C   0  0  0  0  0  0  0  0  0  0  0  0
    2.8806   -2.6719    2.9461 C   0  0  0  0  0  0  0  0  0  0  0  0
    3.9149   -3.8024    2.9466 C   0  0  0  0  0  0  0  0  0  0  0  0
    4.0511   -4.4096    1.5979 N   0  0  2  0  0  0  0  0  0  0  0  0
    5.0234   -5.5197    1.6190 C   0  0  0  0  0  0  0  0  0  0  0  0
    4.9764   -6.4316    0.3970 C   0  0  0  0  0  0  0  0  0  0  0  0
    5.2029   -7.6024    1.3571 C   0  0  0  0  0  0  0  0  0  0  0  0
    4.6084   -6.7268    2.4650 C   0  0  0  0  0  0  0  0  0  0  0  0
    4.4040   -3.4073    0.5567 C   0  0  0  0  0  0  0  0  0  0  0  0
    3.3827   -2.2560    0.5255 C   0  0  0  0  0  0  0  0  0  0  0  0
    1.4144    2.8094    5.7073 H   0  0  0  0  0  0  0  0  0  0  0  0
    3.6044    1.6790    5.4904 H   0  0  0  0  0  0  0  0  0  0  0  0
   -0.0228    0.6680    2.2302 H   0  0  0  0  0  0  0  0  0  0  0  0
   -1.2334    2.8311    2.1028 H   0  0  0  0  0  0  0  0  0  0  0  0
    5.4320   -1.4333    2.2996 H   0  0  0  0  0  0  0  0  0  0  0  0
    4.7200   -0.0607    1.4849 H   0  0  0  0  0  0  0  0  0  0  0  0
    5.1911    0.6349    3.7323 H   0  0  0  0  0  0  0  0  0  0  0  0
    4.5204   -0.8198    4.4222 H   0  0  0  0  0  0  0  0  0  0  0  0
    2.8046   -2.2681    3.9551 H   0  0  0  0  0  0  0  0  0  0  0  0
    1.8894   -3.0790    2.7406 H   0  0  0  0  0  0  0  0  0  0  0  0
    4.8888   -3.4267    3.2611 H   0  0  0  0  0  0  0  0  0  0  0  0
    3.6295   -4.5505    3.6890 H   0  0  0  0  0  0  0  0  0  0  0  0
    6.0409   -5.1992    1.8463 H   0  0  0  0  0  0  0  0  0  0  0  0
    4.0090   -6.4748   -0.1055 H   0  0  0  0  0  0  0  0  0  0  0  0
    5.7878   -6.2471   -0.3060 H   0  0  0  0  0  0  0  0  0  0  0  0
    4.6277   -8.5006    1.1254 H   0  0  0  0  0  0  0  0  0  0  0  0
    6.2619   -7.8181    1.5158 H   0  0  0  0  0  0  0  0  0  0  0  0
    5.1217   -6.7903    3.4255 H   0  0  0  0  0  0  0  0  0  0  0  0
    3.5302   -6.8579    2.5686 H   0  0  0  0  0  0  0  0  0  0  0  0
    5.4035   -3.0215    0.7638 H   0  0  0  0  0  0  0  0  0  0  0  0
    4.4600   -3.8753   -0.4297 H   0  0  0  0  0  0  0  0  0  0  0  0
    2.4163   -2.6434    0.2056 H   0  0  0  0  0  0  0  0  0  0  0  0
    3.6530   -1.5292   -0.2405 H   0  0  0  0  0  0  0  0  0  0  0  0
    3.1489   -4.7910    1.3493 H   0  0  0  0  0  0  0  0  0  0  0  0
  1  6  2  0
  1  2  1  0
  1 25  1  0
  2  3  2  0
  2 26  1  0
  3 15  1  0
  3  4  1  0
  4  5  2  0
  4 12  1  0
  5  6  1  0
  5 27  1  0
  6  7  1  0
  7 11  1  0
  7  8  1  0
  8  9  2  0
  8 28  1  0
  9 10  1  0
 10 11  2  0
 13 12  1  6
 13 24  1  0
 13 14  1  0
 13 16  1  0
 14 15  1  0
 14 29  1  0
 14 30  1  0
 15 31  1  0
 15 32  1  0
 16 17  1  0
 16 33  1  0
 16 34  1  0
 17 18  1  0
 17 35  1  0
 17 36  1  0
 18 19  1  0
 18 23  1  0
 18 48  1  6
 19 22  1  0
 19 20  1  0
 19 37  1  0
 20 21  1  0
 20 38  1  0
 20 39  1  0
 21 22  1  0
 21 40  1  0
 21 41  1  0
 22 42  1  0
 22 43  1  0
 23 24  1  0
 23 44  1  0
 23 45  1  0
 24 46  1  0
 24 47  1  0
M  CHG  1  18   1
M  END
>  <i_m_ct_stereo_status>  (125) 
1

>  <s_m_source_file>  (125) 
/var/tmp/pbs.5076255.sched01/tmpniar21pp/41tndis9zi.sdf

>  <i_m_source_file_index>  (125) 
15

>  <i_lp_mmshare_version>  (125) 
48012

>  <i_f3d_flags>  (125) 
0

>  <s_epik_input>  (125) 
bjFubltjSF1uMS1jKFtjSF0yKVtjSF1bY0hdYyhbQ0gyXVtDSDJdMyljMk9DMzRbQ0gyXVtDSDJdTihbQ0gyXVtDSDJdNClbQ0hdNVtDSDJdW0NIMl1bQ0gyXTU=

>  <s_epik_cmdline>  (125) 
J2VwaWtfcHl0aG9uJywgJy1waHQnLCAnMi4wJywgJy1waCcsICc3LjAnLCAnLXRuJywgJzgnLCAnLW1hJywgJzIwMCcsICctaW1hZScsICc8aW5maWxlLm1hZT4nLCAnLW9tYWUnLCAnPG91dGZpbGUubWFlPic=

>  <r_lp_tautomer_probability>  (125) 
1

>  <r_epik_Ionization_Penalty>  (125) 
0.00327136

>  <r_epik_Ionization_Penalty_Charging>  (125) 
0.00327136

>  <r_epik_Ionization_Penalty_Neutral>  (125) 
8.85435e-10

>  <r_epik_State_Penalty>  (125) 
0.00231045

>  <r_epik_Charging_Adjusted_Penalty>  (125) 
0.00558181

>  <i_epik_Tot_Q>  (125) 
1

>  <i_epik_Tot_abs_Q>  (125) 
1

>  <s_lp_Force_Field>  (125) 
OPLS3e

>  <r_lp_Energy>  (125) 
55.2179

>  <b_lp_Chiralities_Consistent>  (125) 
1

>  <s_lp_Variant>  (125) 
38:0-1

>  <s_i_glide_gridfile>  (125) 
pfpi4k_grid

>  <i_i_glide_lignum>  (125) 
15

>  <i_i_glide_rotatable_bonds>  (125) 
2

>  <r_i_docking_score>  (125) 
-3.18978

>  <r_i_glide_ligand_efficiency>  (125) 
-0.132907

>  <r_i_glide_ligand_efficiency_sa>  (125) 
-0.383371

>  <r_i_glide_ligand_efficiency_ln>  (125) 
-0.763461

>  <r_i_glide_gscore>  (125) 
-3.18978

>  <r_i_glide_lipo>  (125) 
-0.416791

>  <r_i_glide_hbond>  (125) 
0

>  <r_i_glide_metal>  (125) 
-0

>  <r_i_glide_rewards>  (125) 
-1.18353

>  <r_i_glide_evdw>  (125) 
-23.6892

>  <r_i_glide_ecoul>  (125) 
-3.93037

>  <r_i_glide_erotb>  (125) 
0.352039

>  <r_i_glide_esite>  (125) 
-0.167485

>  <r_i_glide_emodel>  (125) 
-33.7943

>  <r_i_glide_energy>  (125) 
-27.6196

>  <r_i_glide_einternal>  (125) 
0.644134

>  <r_i_glide_intrahb_reward>  (125) 
-0

>  <i_i_glide_confnum>  (125) 
1

>  <i_i_glide_posenum>  (125) 
13

>  <r_i_glide_eff_state_penalty>  (125) 
0

>  <ligand_id>  (125) 
38

>  <original_smiles>  (125) 
c1cc2c(cc1-n1cnnn1)OC1(CC2)CCN(C2CCC2)CC1

>  <smiles>  (125) 
[H]c1c([H])c2c(c([H])c1-n1nnnc1[H])OC1(C([H])([H])C2([H])[H])C([H])([H])C([H])([H])[N+]([H])(C2([H])C([H])([H])C([H])([H])C2([H])[H])C([H])([H])C1([H])[H]

$$$$
40:0:0
     RDKit          3D

 62 67  0  0  1  0  0  0  0  0999 V2000
    9.1231   -3.1200    0.4758 C   0  0  0  0  0  0  0  0  0  0  0  0
    7.6984   -3.6201    0.5190 C   0  0  0  0  0  0  0  0  0  0  0  0
    7.1055   -4.4291    1.4119 C   0  0  0  0  0  0  0  0  0  0  0  0
    5.6643   -4.7467    1.0327 C   0  0  1  0  0  0  0  0  0  0  0  0
    4.5335   -5.0586    2.0845 C   0  0  1  0  0  0  0  0  0  0  0  0
    3.1680   -4.8871    1.3652 C   0  0  0  0  0  0  0  0  0  0  0  0
    3.0414   -4.4117    0.0920 C   0  0  0  0  0  0  0  0  0  0  0  0
    4.1822   -3.8882   -0.7676 C   0  0  0  0  0  0  0  0  0  0  0  0
    5.3379   -3.5245    0.1542 C   0  0  1  0  0  0  0  0  0  0  0  0
    4.9483   -2.4027    0.9383 O   0  0  0  0  0  0  0  0  0  0  0  0
    6.6925   -3.1819   -0.4507 C   0  0  0  0  0  0  0  0  0  0  0  0
    6.8647   -2.6048   -1.5261 O   0  0  0  0  0  0  0  0  0  0  0  0
    1.9088   -5.2426    2.1472 C   0  0  0  0  0  0  0  0  0  0  0  0
    1.8526   -6.6511    2.7531 C   0  0  2  0  0  0  0  0  0  0  0  0
    2.3703   -6.6866    4.0669 O   0  0  0  0  0  0  0  0  0  0  0  0
    3.7569   -6.4191    4.2023 C   0  0  1  0  0  0  0  0  0  0  0  0
    3.8210   -5.1026    5.0143 C   0  0  0  0  0  0  0  0  0  0  0  0
    4.3169   -7.5383    5.0761 C   0  0  0  0  0  0  0  0  0  0  0  0
    5.8082   -7.5809    4.7652 C   0  0  0  0  0  0  0  0  0  0  0  0
    6.0093   -6.8297    3.4271 C   0  0  1  0  0  0  0  0  0  0  0  0
    6.9255   -7.5981    2.4385 C   0  0  1  0  0  0  0  0  0  0  0  0
    8.3613   -7.7905    2.9399 C   0  0  0  0  0  0  0  0  0  0  0  0
    6.3239   -8.9199    1.9340 C   0  0  0  0  0  0  0  0  0  0  0  0
    4.7977   -8.9885    2.0495 C   0  0  0  0  0  0  0  0  0  0  0  0
    4.0728   -7.6226    1.9057 C   0  0  1  0  0  0  0  0  0  0  0  0
    2.5115   -7.7511    1.9046 C   0  0  1  0  0  0  0  0  0  0  0  0
    1.9316   -9.1286    2.3001 C   0  0  0  0  0  0  0  0  0  0  0  0
    4.5979   -6.4635    2.8589 C   0  0  2  0  0  0  0  0  0  0  0  0
    9.1605   -2.0409    0.6079 H   0  0  0  0  0  0  0  0  0  0  0  0
    9.5435   -3.3556   -0.4985 H   0  0  0  0  0  0  0  0  0  0  0  0
    9.7387   -3.5779    1.2477 H   0  0  0  0  0  0  0  0  0  0  0  0
    7.6186   -4.8646    2.2541 H   0  0  0  0  0  0  0  0  0  0  0  0
    5.7337   -5.6171    0.3797 H   0  0  0  0  0  0  0  0  0  0  0  0
    4.5999   -4.2451    2.8083 H   0  0  0  0  0  0  0  0  0  0  0  0
    2.0747   -4.3402   -0.3718 H   0  0  0  0  0  0  0  0  0  0  0  0
    4.4707   -4.6479   -1.4933 H   0  0  0  0  0  0  0  0  0  0  0  0
    3.8402   -3.0233   -1.3332 H   0  0  0  0  0  0  0  0  0  0  0  0
    4.0732   -2.5595    1.2654 H   0  0  0  0  0  0  0  0  0  0  0  0
    1.7102   -4.4837    2.9042 H   0  0  0  0  0  0  0  0  0  0  0  0
    1.0724   -5.2069    1.4568 H   0  0  0  0  0  0  0  0  0  0  0  0
    0.7915   -6.8859    2.8485 H   0  0  0  0  0  0  0  0  0  0  0  0
    4.8457   -4.7764    5.1816 H   0  0  0  0  0  0  0  0  0  0  0  0
    3.3553   -5.2248    5.9924 H   0  0  0  0  0  0  0  0  0  0  0  0
    3.2824   -4.2865    4.5355 H   0  0  0  0  0  0  0  0  0  0  0  0
    4.1117   -7.3999    6.1389 H   0  0  0  0  0  0  0  0  0  0  0  0
    3.8536   -8.4848    4.8056 H   0  0  0  0  0  0  0  0  0  0  0  0
    6.3671   -7.0849    5.5585 H   0  0  0  0  0  0  0  0  0  0  0  0
    6.1553   -8.6148    4.7400 H   0  0  0  0  0  0  0  0  0  0  0  0
    6.4975   -5.8995    3.7142 H   0  0  0  0  0  0  0  0  0  0  0  0
    7.0195   -7.0035    1.5367 H   0  0  0  0  0  0  0  0  0  0  0  0
    8.4168   -8.4557    3.8015 H   0  0  0  0  0  0  0  0  0  0  0  0
    8.8442   -6.8447    3.1925 H   0  0  0  0  0  0  0  0  0  0  0  0
    8.9455   -8.2518    2.1476 H   0  0  0  0  0  0  0  0  0  0  0  0
    6.6058   -9.0524    0.8891 H   0  0  0  0  0  0  0  0  0  0  0  0
    6.7636   -9.7645    2.4668 H   0  0  0  0  0  0  0  0  0  0  0  0
    4.4445   -9.6779    1.2824 H   0  0  0  0  0  0  0  0  0  0  0  0
    4.5466   -9.4510    2.9999 H   0  0  0  0  0  0  0  0  0  0  0  0
    4.3287   -7.3090    0.8914 H   0  0  0  0  0  0  0  0  0  0  0  0
    2.1744   -7.5907    0.8803 H   0  0  0  0  0  0  0  0  0  0  0  0
    2.1991   -9.4095    3.3174 H   0  0  0  0  0  0  0  0  0  0  0  0
    2.2595   -9.9190    1.6242 H   0  0  0  0  0  0  0  0  0  0  0  0
    0.8429   -9.1203    2.2440 H   0  0  0  0  0  0  0  0  0  0  0  0
  1  2  1  0
  1 29  1  0
  1 30  1  0
  1 31  1  0
  2 11  1  0
  2  3  2  0
  3  4  1  0
  3 32  1  0
  4  9  1  0
  4  5  1  0
  4 33  1  6
  5 28  1  0
  5  6  1  0
  5 34  1  1
  6  7  2  0
  6 13  1  0
  7  8  1  0
  7 35  1  0
  8  9  1  0
  8 36  1  0
  8 37  1  0
  9 10  1  1
  9 11  1  0
 10 38  1  0
 11 12  2  0
 13 14  1  0
 13 39  1  0
 13 40  1  0
 14 26  1  0
 14 15  1  0
 14 41  1  1
 15 16  1  0
 28 16  1  1
 16 17  1  1
 16 18  1  0
 17 42  1  0
 17 43  1  0
 17 44  1  0
 18 19  1  0
 18 45  1  0
 18 46  1  0
 19 20  1  0
 19 47  1  0
 19 48  1  0
 20 28  1  0
 20 21  1  0
 20 49  1  1
 21 22  1  0
 21 23  1  0
 21 50  1  6
 22 51  1  0
 22 52  1  0
 22 53  1  0
 23 24  1  0
 23 54  1  0
 23 55  1  0
 24 25  1  0
 24 56  1  0
 24 57  1  0
 25 26  1  0
 25 28  1  0
 25 58  1  6
 26 27  1  0
 26 59  1  6
 27 60  1  0
 27 61  1  0
 27 62  1  0
M  END
>  <i_m_ct_stereo_status>  (126) 
1

>  <s_m_source_file>  (126) 
/var/tmp/pbs.5076255.sched01/tmpniar21pp/41tndis9zi.sdf

>  <i_m_source_file_index>  (126) 
17

>  <i_lp_mmshare_version>  (126) 
48012

>  <i_f3d_flags>  (126) 
0

>  <s_epik_input>  (126) 
W0NIM11DKD1bQ0hdMSlDKD1PKVtDQF0oW09IXSkoW0NAQEhdMVtDQEBIXTJbQ0BdMzQ1KVtDSDJdW0NIXT1DMltDSDJdW0NAQEhdNk9bQ0BAXTMoW0NIM10pW0NIMl1bQ0gyXVtDQEhdNFtDQEBIXShbQ0gzXSlbQ0gyXVtDSDJdW0NASF01W0NASF02W0NIM10=

>  <s_epik_cmdline>  (126) 
J2VwaWtfcHl0aG9uJywgJy1waHQnLCAnMi4wJywgJy1waCcsICc3LjAnLCAnLXRuJywgJzgnLCAnLW1hJywgJzIwMCcsICctaW1hZScsICc8aW5maWxlLm1hZT4nLCAnLW9tYWUnLCAnPG91dGZpbGUubWFlPic=

>  <r_lp_tautomer_probability>  (126) 
1

>  <r_epik_Ionization_Penalty>  (126) 
4.47097e-07

>  <r_epik_Ionization_Penalty_Charging>  (126) 
0

>  <r_epik_Ionization_Penalty_Neutral>  (126) 
4.47097e-07

>  <r_epik_State_Penalty>  (126) 
-0

>  <r_epik_Charging_Adjusted_Penalty>  (126) 
0

>  <i_epik_Tot_Q>  (126) 
0

>  <i_epik_Tot_abs_Q>  (126) 
0

>  <s_lp_Force_Field>  (126) 
OPLS3e

>  <r_lp_Energy>  (126) 
61.1454

>  <b_lp_Chiralities_Consistent>  (126) 
1

>  <s_lp_Variant>  (126) 
40:0-1

>  <s_i_glide_gridfile>  (126) 
pfpi4k_grid

>  <i_i_glide_lignum>  (126) 
17

>  <i_i_glide_rotatable_bonds>  (126) 
1

>  <r_i_docking_score>  (126) 
-3.12653

>  <r_i_glide_ligand_efficiency>  (126) 
-0.111662

>  <r_i_glide_ligand_efficiency_sa>  (126) 
-0.339071

>  <r_i_glide_ligand_efficiency_ln>  (126) 
-0.721695

>  <r_i_glide_gscore>  (126) 
-3.12653

>  <r_i_glide_lipo>  (126) 
-0.670793

>  <r_i_glide_hbond>  (126) 
-0.0982246

>  <r_i_glide_metal>  (126) 
-0

>  <r_i_glide_rewards>  (126) 
-0.929744

>  <r_i_glide_evdw>  (126) 
-25.2083

>  <r_i_glide_ecoul>  (126) 
-1.11569

>  <r_i_glide_erotb>  (126) 
0

>  <r_i_glide_esite>  (126) 
0

>  <r_i_glide_emodel>  (126) 
-31.04

>  <r_i_glide_energy>  (126) 
-26.324

>  <r_i_glide_einternal>  (126) 
0.0201991

>  <r_i_glide_intrahb_reward>  (126) 
-0

>  <i_i_glide_confnum>  (126) 
1

>  <i_i_glide_posenum>  (126) 
6

>  <r_i_glide_eff_state_penalty>  (126) 
0

>  <ligand_id>  (126) 
40

>  <original_smiles>  (126) 
CC1=CC2C3C(=CCC2(O)C1=O)CC1OC2(C)CCC4C(C)CCC(C1C)C432

>  <smiles>  (126) 
[H]OC12C(=O)C(C([H])([H])[H])=C([H])C1([H])C1([H])C(=C([H])C2([H])[H])C([H])([H])C2([H])OC3(C([H])([H])[H])C([H])([H])C([H])([H])C4([H])C([H])(C([H])([H])[H])C([H])([H])C([H])([H])C([H])(C2([H])C([H])([H])[H])C143

$$$$
40:0:1
     RDKit          3D

 62 67  0  0  1  0  0  0  0  0999 V2000
    8.1700   -2.1013    0.1252 C   0  0  0  0  0  0  0  0  0  0  0  0
    6.8569   -2.8473    0.2795 C   0  0  0  0  0  0  0  0  0  0  0  0
    6.4549   -3.6901    1.2428 C   0  0  0  0  0  0  0  0  0  0  0  0
    5.0880   -4.2966    0.9402 C   0  0  1  0  0  0  0  0  0  0  0  0
    4.0732   -4.7778    2.0413 C   0  0  1  0  0  0  0  0  0  0  0  0
    2.6806   -4.9215    1.3647 C   0  0  0  0  0  0  0  0  0  0  0  0
    2.4403   -4.5571    0.0793 C   0  0  0  0  0  0  0  0  0  0  0  0
    3.4310   -3.8577   -0.8401 C   0  0  0  0  0  0  0  0  0  0  0  0
    4.5018   -3.2163    0.0144 C   0  0  1  0  0  0  0  0  0  0  0  0
    3.9029   -2.1451    0.7316 O   0  0  0  0  0  0  0  0  0  0  0  0
    5.7496   -2.6656   -0.6645 C   0  0  0  0  0  0  0  0  0  0  0  0
    5.7777   -2.1487   -1.7793 O   0  0  0  0  0  0  0  0  0  0  0  0
    1.5351   -5.4634    2.2117 C   0  0  0  0  0  0  0  0  0  0  0  0
    1.7669   -6.8235    2.8769 C   0  0  2  0  0  0  0  0  0  0  0  0
    2.3185   -6.6835    4.1721 O   0  0  0  0  0  0  0  0  0  0  0  0
    3.6300   -6.1474    4.2446 C   0  0  1  0  0  0  0  0  0  0  0  0
    3.4690   -4.8001    4.9893 C   0  0  0  0  0  0  0  0  0  0  0  0
    4.4235   -7.0897    5.1450 C   0  0  0  0  0  0  0  0  0  0  0  0
    5.8863   -6.8636    4.7785 C   0  0  0  0  0  0  0  0  0  0  0  0
    5.8991   -6.1602    3.4026 C   0  0  1  0  0  0  0  0  0  0  0  0
    6.9144   -6.7868    2.4096 C   0  0  1  0  0  0  0  0  0  0  0  0
    8.3788   -6.6702    2.8505 C   0  0  0  0  0  0  0  0  0  0  0  0
    6.5649   -8.2275    2.0016 C   0  0  0  0  0  0  0  0  0  0  0  0
    5.0835   -8.5799    2.1705 C   0  0  0  0  0  0  0  0  0  0  0  0
    4.1047   -7.3886    1.9952 C   0  0  1  0  0  0  0  0  0  0  0  0
    2.5998   -7.8158    2.0525 C   0  0  1  0  0  0  0  0  0  0  0  0
    2.3077   -9.2550    2.5360 C   0  0  0  0  0  0  0  0  0  0  0  0
    4.4265   -6.1024    2.8765 C   0  0  2  0  0  0  0  0  0  0  0  0
    8.0030   -1.0315    0.2495 H   0  0  0  0  0  0  0  0  0  0  0  0
    8.5985   -2.2822   -0.8607 H   0  0  0  0  0  0  0  0  0  0  0  0
    8.9024   -2.4115    0.8660 H   0  0  0  0  0  0  0  0  0  0  0  0
    7.0689   -3.9844    2.0761 H   0  0  0  0  0  0  0  0  0  0  0  0
    5.3109   -5.1682    0.3279 H   0  0  0  0  0  0  0  0  0  0  0  0
    3.9914   -3.9264    2.7166 H   0  0  0  0  0  0  0  0  0  0  0  0
    1.4705   -4.7006   -0.3714 H   0  0  0  0  0  0  0  0  0  0  0  0
    3.8793   -4.5855   -1.5194 H   0  0  0  0  0  0  0  0  0  0  0  0
    2.9052   -3.1188   -1.4432 H   0  0  0  0  0  0  0  0  0  0  0  0
    3.4711   -1.5850    0.0995 H   0  0  0  0  0  0  0  0  0  0  0  0
    1.2178   -4.7150    2.9380 H   0  0  0  0  0  0  0  0  0  0  0  0
    0.6860   -5.6170    1.5543 H   0  0  0  0  0  0  0  0  0  0  0  0
    0.7748   -7.2484    3.0320 H   0  0  0  0  0  0  0  0  0  0  0  0
    4.4166   -4.2769    5.0997 H   0  0  0  0  0  0  0  0  0  0  0  0
    3.0654   -4.9584    5.9883 H   0  0  0  0  0  0  0  0  0  0  0  0
    2.7689   -4.1306    4.4937 H   0  0  0  0  0  0  0  0  0  0  0  0
    4.2294   -6.9375    6.2074 H   0  0  0  0  0  0  0  0  0  0  0  0
    4.1463   -8.1206    4.9368 H   0  0  0  0  0  0  0  0  0  0  0  0
    6.3639   -6.2289    5.5264 H   0  0  0  0  0  0  0  0  0  0  0  0
    6.4276   -7.8124    4.7858 H   0  0  0  0  0  0  0  0  0  0  0  0
    6.2041   -5.1396    3.6256 H   0  0  0  0  0  0  0  0  0  0  0  0
    6.8592   -6.2285    1.4803 H   0  0  0  0  0  0  0  0  0  0  0  0
    8.6016   -7.2744    3.7276 H   0  0  0  0  0  0  0  0  0  0  0  0
    8.6771   -5.6418    3.0524 H   0  0  0  0  0  0  0  0  0  0  0  0
    9.0039   -7.0398    2.0410 H   0  0  0  0  0  0  0  0  0  0  0  0
    6.8368   -8.3559    0.9566 H   0  0  0  0  0  0  0  0  0  0  0  0
    7.1813   -8.9447    2.5478 H   0  0  0  0  0  0  0  0  0  0  0  0
    4.8478   -9.3656    1.4511 H   0  0  0  0  0  0  0  0  0  0  0  0
    4.9595   -9.0293    3.1516 H   0  0  0  0  0  0  0  0  0  0  0  0
    4.2686   -7.0875    0.9585 H   0  0  0  0  0  0  0  0  0  0  0  0
    2.2119   -7.7786    1.0342 H   0  0  0  0  0  0  0  0  0  0  0  0
    2.6544   -9.4240    3.5567 H   0  0  0  0  0  0  0  0  0  0  0  0
    2.7585  -10.0073    1.8885 H   0  0  0  0  0  0  0  0  0  0  0  0
    1.2359   -9.4565    2.5272 H   0  0  0  0  0  0  0  0  0  0  0  0
  1  2  1  0
  1 29  1  0
  1 30  1  0
  1 31  1  0
  2 11  1  0
  2  3  2  0
  3  4  1  0
  3 32  1  0
  4  9  1  0
  4  5  1  0
  4 33  1  6
  5 28  1  0
  5  6  1  0
  5 34  1  1
  6  7  2  0
  6 13  1  0
  7  8  1  0
  7 35  1  0
  8  9  1  0
  8 36  1  0
  8 37  1  0
  9 10  1  1
  9 11  1  0
 10 38  1  0
 11 12  2  0
 13 14  1  0
 13 39  1  0
 13 40  1  0
 14 26  1  0
 14 15  1  0
 14 41  1  1
 15 16  1  0
 28 16  1  1
 16 17  1  1
 16 18  1  0
 17 42  1  0
 17 43  1  0
 17 44  1  0
 18 19  1  0
 18 45  1  0
 18 46  1  0
 19 20  1  0
 19 47  1  0
 19 48  1  0
 20 28  1  0
 20 21  1  0
 20 49  1  1
 21 22  1  0
 21 23  1  0
 21 50  1  6
 22 51  1  0
 22 52  1  0
 22 53  1  0
 23 24  1  0
 23 54  1  0
 23 55  1  0
 24 25  1  0
 24 56  1  0
 24 57  1  0
 25 26  1  0
 25 28  1  0
 25 58  1  6
 26 27  1  0
 26 59  1  6
 27 60  1  0
 27 61  1  0
 27 62  1  0
M  END
>  <i_m_ct_stereo_status>  (127) 
1

>  <s_m_source_file>  (127) 
/var/tmp/pbs.5076255.sched01/tmpniar21pp/41tndis9zi.sdf

>  <i_m_source_file_index>  (127) 
17

>  <i_lp_mmshare_version>  (127) 
48012

>  <i_f3d_flags>  (127) 
0

>  <s_epik_input>  (127) 
W0NIM11DKD1bQ0hdMSlDKD1PKVtDQF0oW09IXSkoW0NAQEhdMVtDQEBIXTJbQ0BdMzQ1KVtDSDJdW0NIXT1DMltDSDJdW0NAQEhdNk9bQ0BAXTMoW0NIM10pW0NIMl1bQ0gyXVtDQEhdNFtDQEBIXShbQ0gzXSlbQ0gyXVtDSDJdW0NASF01W0NASF02W0NIM10=

>  <s_epik_cmdline>  (127) 
J2VwaWtfcHl0aG9uJywgJy1waHQnLCAnMi4wJywgJy1waCcsICc3LjAnLCAnLXRuJywgJzgnLCAnLW1hJywgJzIwMCcsICctaW1hZScsICc8aW5maWxlLm1hZT4nLCAnLW9tYWUnLCAnPG91dGZpbGUubWFlPic=

>  <r_lp_tautomer_probability>  (127) 
1

>  <r_epik_Ionization_Penalty>  (127) 
4.47097e-07

>  <r_epik_Ionization_Penalty_Charging>  (127) 
0

>  <r_epik_Ionization_Penalty_Neutral>  (127) 
4.47097e-07

>  <r_epik_State_Penalty>  (127) 
-0

>  <r_epik_Charging_Adjusted_Penalty>  (127) 
0

>  <i_epik_Tot_Q>  (127) 
0

>  <i_epik_Tot_abs_Q>  (127) 
0

>  <s_lp_Force_Field>  (127) 
OPLS3e

>  <r_lp_Energy>  (127) 
61.1454

>  <b_lp_Chiralities_Consistent>  (127) 
1

>  <s_lp_Variant>  (127) 
40:0-1

>  <s_i_glide_gridfile>  (127) 
pfpi4k_grid

>  <i_i_glide_lignum>  (127) 
17

>  <i_i_glide_rotatable_bonds>  (127) 
1

>  <r_i_docking_score>  (127) 
-2.58076

>  <r_i_glide_ligand_efficiency>  (127) 
-0.0921701

>  <r_i_glide_ligand_efficiency_sa>  (127) 
-0.279883

>  <r_i_glide_ligand_efficiency_ln>  (127) 
-0.595716

>  <r_i_glide_gscore>  (127) 
-2.58076

>  <r_i_glide_lipo>  (127) 
-0.441287

>  <r_i_glide_hbond>  (127) 
0

>  <r_i_glide_metal>  (127) 
-0

>  <r_i_glide_rewards>  (127) 
-0.800893

>  <r_i_glide_evdw>  (127) 
-24.0058

>  <r_i_glide_ecoul>  (127) 
-0.876007

>  <r_i_glide_erotb>  (127) 
0

>  <r_i_glide_esite>  (127) 
-0.00689017

>  <r_i_glide_emodel>  (127) 
-27.8514

>  <r_i_glide_energy>  (127) 
-24.8818

>  <r_i_glide_einternal>  (127) 
1.73981

>  <r_i_glide_intrahb_reward>  (127) 
-0

>  <i_i_glide_confnum>  (127) 
1

>  <i_i_glide_posenum>  (127) 
10

>  <r_i_glide_eff_state_penalty>  (127) 
0

>  <ligand_id>  (127) 
40

>  <original_smiles>  (127) 
CC1=CC2C3C(=CCC2(O)C1=O)CC1OC2(C)CCC4C(C)CCC(C1C)C432

>  <smiles>  (127) 
[H]OC12C(=O)C(C([H])([H])[H])=C([H])C1([H])C1([H])C(=C([H])C2([H])[H])C([H])([H])C2([H])OC3(C([H])([H])[H])C([H])([H])C([H])([H])C4([H])C([H])(C([H])([H])[H])C([H])([H])C([H])([H])C([H])(C2([H])C([H])([H])[H])C143

$$$$
40:0:2
     RDKit          3D

 62 67  0  0  1  0  0  0  0  0999 V2000
    3.3538   -3.8598    7.0453 C   0  0  0  0  0  0  0  0  0  0  0  0
    3.3602   -4.2392    5.5820 C   0  0  0  0  0  0  0  0  0  0  0  0
    4.0549   -3.7086    4.5647 C   0  0  0  0  0  0  0  0  0  0  0  0
    3.6732   -4.3325    3.2212 C   0  0  1  0  0  0  0  0  0  0  0  0
    4.6490   -4.4364    1.9999 C   0  0  1  0  0  0  0  0  0  0  0  0
    4.0719   -5.5059    1.0345 C   0  0  0  0  0  0  0  0  0  0  0  0
    2.9833   -6.2665    1.3059 C   0  0  0  0  0  0  0  0  0  0  0  0
    2.2236   -6.2726    2.6199 C   0  0  0  0  0  0  0  0  0  0  0  0
    3.1479   -5.7100    3.6895 C   0  0  1  0  0  0  0  0  0  0  0  0
    4.2302   -6.6068    3.8934 O   0  0  0  0  0  0  0  0  0  0  0  0
    2.5807   -5.3662    5.0628 C   0  0  0  0  0  0  0  0  0  0  0  0
    1.6403   -5.9627    5.5852 O   0  0  0  0  0  0  0  0  0  0  0  0
    4.8315   -5.7210   -0.2626 C   0  0  0  0  0  0  0  0  0  0  0  0
    4.9893   -4.4784   -1.1637 C   0  0  2  0  0  0  0  0  0  0  0  0
    6.2024   -3.7948   -0.9214 O   0  0  0  0  0  0  0  0  0  0  0  0
    6.3513   -3.2587    0.3711 C   0  0  1  0  0  0  0  0  0  0  0  0
    7.4748   -4.0966    0.9994 C   0  0  0  0  0  0  0  0  0  0  0  0
    6.8642   -1.8423    0.1585 C   0  0  0  0  0  0  0  0  0  0  0  0
    6.4476   -1.0582    1.3937 C   0  0  0  0  0  0  0  0  0  0  0  0
    5.3722   -1.8803    2.1271 C   0  0  1  0  0  0  0  0  0  0  0  0
    4.1569   -1.0183    2.5883 C   0  0  1  0  0  0  0  0  0  0  0  0
    4.4922    0.0501    3.6512 C   0  0  0  0  0  0  0  0  0  0  0  0
    3.3861   -0.4128    1.4086 C   0  0  0  0  0  0  0  0  0  0  0  0
    3.5842   -1.1725    0.0956 C   0  0  0  0  0  0  0  0  0  0  0  0
    3.8154   -2.6984    0.2452 C   0  0  1  0  0  0  0  0  0  0  0  0
    3.8447   -3.4556   -1.1222 C   0  0  1  0  0  0  0  0  0  0  0  0
    3.9022   -2.5780   -2.4013 C   0  0  0  0  0  0  0  0  0  0  0  0
    5.0125   -3.0949    1.2064 C   0  0  2  0  0  0  0  0  0  0  0  0
    3.7716   -4.6646    7.6462 H   0  0  0  0  0  0  0  0  0  0  0  0
    2.3294   -3.6883    7.3734 H   0  0  0  0  0  0  0  0  0  0  0  0
    3.9290   -2.9570    7.2321 H   0  0  0  0  0  0  0  0  0  0  0  0
    4.7291   -2.8717    4.6740 H   0  0  0  0  0  0  0  0  0  0  0  0
    2.8070   -3.7614    2.8849 H   0  0  0  0  0  0  0  0  0  0  0  0
    5.5606   -4.8686    2.4130 H   0  0  0  0  0  0  0  0  0  0  0  0
    2.6226   -6.9830    0.5834 H   0  0  0  0  0  0  0  0  0  0  0  0
    1.3060   -5.6975    2.5212 H   0  0  0  0  0  0  0  0  0  0  0  0
    1.9339   -7.2938    2.8664 H   0  0  0  0  0  0  0  0  0  0  0  0
    4.5863   -6.8459    3.0520 H   0  0  0  0  0  0  0  0  0  0  0  0
    5.7920   -6.1935   -0.0685 H   0  0  0  0  0  0  0  0  0  0  0  0
    4.2942   -6.4799   -0.8170 H   0  0  0  0  0  0  0  0  0  0  0  0
    5.0597   -4.8471   -2.1881 H   0  0  0  0  0  0  0  0  0  0  0  0
    7.6580   -3.7818    2.0322 H   0  0  0  0  0  0  0  0  0  0  0  0
    8.4098   -3.9983    0.4559 H   0  0  0  0  0  0  0  0  0  0  0  0
    7.2692   -5.1565    1.0552 H   0  0  0  0  0  0  0  0  0  0  0  0
    7.9374   -1.7969   -0.0316 H   0  0  0  0  0  0  0  0  0  0  0  0
    6.3823   -1.4131   -0.7167 H   0  0  0  0  0  0  0  0  0  0  0  0
    7.3059   -0.9341    2.0483 H   0  0  0  0  0  0  0  0  0  0  0  0
    6.1188   -0.0559    1.1129 H   0  0  0  0  0  0  0  0  0  0  0  0
    5.8706   -2.2828    3.0077 H   0  0  0  0  0  0  0  0  0  0  0  0
    3.4446   -1.6730    3.0707 H   0  0  0  0  0  0  0  0  0  0  0  0
    5.1439    0.8327    3.2780 H   0  0  0  0  0  0  0  0  0  0  0  0
    4.9719   -0.3788    4.5307 H   0  0  0  0  0  0  0  0  0  0  0  0
    3.5709    0.5407    3.9767 H   0  0  0  0  0  0  0  0  0  0  0  0
    2.3220   -0.4330    1.6609 H   0  0  0  0  0  0  0  0  0  0  0  0
    3.6309    0.6385    1.2684 H   0  0  0  0  0  0  0  0  0  0  0  0
    2.6942   -1.0042   -0.4951 H   0  0  0  0  0  0  0  0  0  0  0  0
    4.3891   -0.6998   -0.4626 H   0  0  0  0  0  0  0  0  0  0  0  0
    2.9025   -3.0508    0.7307 H   0  0  0  0  0  0  0  0  0  0  0  0
    2.9121   -4.0201   -1.2085 H   0  0  0  0  0  0  0  0  0  0  0  0
    4.7948   -1.9514   -2.4400 H   0  0  0  0  0  0  0  0  0  0  0  0
    3.0249   -1.9356   -2.4959 H   0  0  0  0  0  0  0  0  0  0  0  0
    3.9160   -3.2026   -3.2949 H   0  0  0  0  0  0  0  0  0  0  0  0
  1  2  1  0
  1 29  1  0
  1 30  1  0
  1 31  1  0
  2 11  1  0
  2  3  2  0
  3  4  1  0
  3 32  1  0
  4  9  1  0
  4  5  1  0
  4 33  1  6
  5 28  1  0
  5  6  1  0
  5 34  1  1
  6  7  2  0
  6 13  1  0
  7  8  1  0
  7 35  1  0
  8  9  1  0
  8 36  1  0
  8 37  1  0
  9 10  1  1
  9 11  1  0
 10 38  1  0
 11 12  2  0
 13 14  1  0
 13 39  1  0
 13 40  1  0
 14 26  1  0
 14 15  1  0
 14 41  1  6
 15 16  1  0
 28 16  1  6
 16 17  1  1
 16 18  1  0
 17 42  1  0
 17 43  1  0
 17 44  1  0
 18 19  1  0
 18 45  1  0
 18 46  1  0
 19 20  1  0
 19 47  1  0
 19 48  1  0
 20 28  1  0
 20 21  1  0
 20 49  1  1
 21 22  1  0
 21 23  1  0
 21 50  1  1
 22 51  1  0
 22 52  1  0
 22 53  1  0
 23 24  1  0
 23 54  1  0
 23 55  1  0
 24 25  1  0
 24 56  1  0
 24 57  1  0
 25 26  1  0
 25 28  1  0
 25 58  1  1
 26 27  1  0
 26 59  1  6
 27 60  1  0
 27 61  1  0
 27 62  1  0
M  END
>  <i_m_ct_stereo_status>  (128) 
1

>  <s_m_source_file>  (128) 
/var/tmp/pbs.5076255.sched01/tmpniar21pp/41tndis9zi.sdf

>  <i_m_source_file_index>  (128) 
17

>  <i_lp_mmshare_version>  (128) 
48012

>  <i_f3d_flags>  (128) 
0

>  <s_epik_input>  (128) 
W0NIM11DKD1bQ0hdMSlDKD1PKVtDQF0oW09IXSkoW0NAQEhdMVtDQEBIXTJbQ0BdMzQ1KVtDSDJdW0NIXT1DMltDSDJdW0NAQEhdNk9bQ0BAXTMoW0NIM10pW0NIMl1bQ0gyXVtDQEhdNFtDQEBIXShbQ0gzXSlbQ0gyXVtDSDJdW0NASF01W0NASF02W0NIM10=

>  <s_epik_cmdline>  (128) 
J2VwaWtfcHl0aG9uJywgJy1waHQnLCAnMi4wJywgJy1waCcsICc3LjAnLCAnLXRuJywgJzgnLCAnLW1hJywgJzIwMCcsICctaW1hZScsICc8aW5maWxlLm1hZT4nLCAnLW9tYWUnLCAnPG91dGZpbGUubWFlPic=

>  <r_lp_tautomer_probability>  (128) 
1

>  <r_epik_Ionization_Penalty>  (128) 
4.47097e-07

>  <r_epik_Ionization_Penalty_Charging>  (128) 
0

>  <r_epik_Ionization_Penalty_Neutral>  (128) 
4.47097e-07

>  <r_epik_State_Penalty>  (128) 
-0

>  <r_epik_Charging_Adjusted_Penalty>  (128) 
0

>  <i_epik_Tot_Q>  (128) 
0

>  <i_epik_Tot_abs_Q>  (128) 
0

>  <s_lp_Force_Field>  (128) 
OPLS3e

>  <r_lp_Energy>  (128) 
61.1454

>  <b_lp_Chiralities_Consistent>  (128) 
1

>  <s_lp_Variant>  (128) 
40:0-1

>  <s_i_glide_gridfile>  (128) 
pfpi4k_grid

>  <i_i_glide_lignum>  (128) 
17

>  <i_i_glide_rotatable_bonds>  (128) 
1

>  <r_i_docking_score>  (128) 
-2.44951

>  <r_i_glide_ligand_efficiency>  (128) 
-0.0874826

>  <r_i_glide_ligand_efficiency_sa>  (128) 
-0.265649

>  <r_i_glide_ligand_efficiency_ln>  (128) 
-0.565419

>  <r_i_glide_gscore>  (128) 
-2.44951

>  <r_i_glide_lipo>  (128) 
-0.55252

>  <r_i_glide_hbond>  (128) 
0

>  <r_i_glide_metal>  (128) 
-0

>  <r_i_glide_rewards>  (128) 
-0.800893

>  <r_i_glide_evdw>  (128) 
-18.7738

>  <r_i_glide_ecoul>  (128) 
-1.04939

>  <r_i_glide_erotb>  (128) 
0

>  <r_i_glide_esite>  (128) 
0

>  <r_i_glide_emodel>  (128) 
-23.3794

>  <r_i_glide_energy>  (128) 
-19.8232

>  <r_i_glide_einternal>  (128) 
0.00189333

>  <r_i_glide_intrahb_reward>  (128) 
-0

>  <i_i_glide_confnum>  (128) 
1

>  <i_i_glide_posenum>  (128) 
26

>  <r_i_glide_eff_state_penalty>  (128) 
0

>  <ligand_id>  (128) 
40

>  <original_smiles>  (128) 
CC1=CC2C3C(=CCC2(O)C1=O)CC1OC2(C)CCC4C(C)CCC(C1C)C432

>  <smiles>  (128) 
[H]OC12C(=O)C(C([H])([H])[H])=C([H])C1([H])C1([H])C(=C([H])C2([H])[H])C([H])([H])C2([H])OC3(C([H])([H])[H])C([H])([H])C([H])([H])C4([H])C([H])(C([H])([H])[H])C([H])([H])C([H])([H])C([H])(C2([H])C([H])([H])[H])C143

$$$$
41:0:0
     RDKit          3D

 57 61  0  0  1  0  0  0  0  0999 V2000
    3.9390   -1.3382   -1.7682 C   0  0  0  0  0  0  0  0  0  0  0  0
    4.4783   -2.2255   -0.6164 C   0  0  2  0  0  0  0  0  0  0  0  0
    4.1867   -3.6954   -0.9335 C   0  0  0  0  0  0  0  0  0  0  0  0
    2.8477   -4.1303   -0.3098 C   0  0  0  0  0  0  0  0  0  0  0  0
    2.8497   -3.9499    1.2229 C   0  0  2  0  0  0  0  0  0  0  0  0
    3.0749   -2.4443    1.5553 C   0  0  0  0  0  0  0  0  0  0  0  0
    3.8936   -1.7405    0.7061 C   0  0  0  0  0  0  0  0  0  0  0  0
    4.6295   -0.4652    1.0907 C   0  0  0  0  0  0  0  0  0  0  0  0
    6.0786   -0.7556    0.6654 C   0  0  0  0  0  0  0  0  0  0  0  0
    5.9299   -1.8524   -0.3671 C   0  0  0  0  0  0  0  0  0  0  0  0
    6.8830   -2.3394   -0.9906 O   0  0  0  0  0  0  0  0  0  0  0  0
    2.2445   -1.6730    2.5165 C   0  0  0  0  0  0  0  0  0  0  0  0
    1.7418   -2.1522    3.6846 C   0  0  0  0  0  0  0  0  0  0  0  0
    0.8017   -1.2547    4.4813 C   0  0  0  0  0  0  0  0  0  0  0  0
    1.1789    0.1084    4.4200 O   0  0  0  0  0  0  0  0  0  0  0  0
    1.5999    0.6670    3.2749 C   0  0  0  0  0  0  0  0  0  0  0  0
    1.8827    1.8430    3.1020 O   0  0  0  0  0  0  0  0  0  0  0  0
    1.6629   -0.3136    2.0795 C   0  0  0  0  0  0  0  0  0  0  0  0
    2.0113   -3.4580    4.2919 C   0  0  1  0  0  0  0  0  0  0  0  0
    3.4156   -3.9648    4.2146 C   0  0  2  0  0  0  0  0  0  0  0  0
    3.5724   -5.2250    3.4449 C   0  0  0  0  0  0  0  0  0  0  0  0
    3.8440   -4.9638    1.9431 C   0  0  1  0  0  0  0  0  0  0  0  0
    3.8918   -6.3698    1.2799 C   0  0  0  0  0  0  0  0  0  0  0  0
    5.1728   -4.4852    1.8815 O   0  0  0  0  0  0  0  0  0  0  0  0
    2.7701   -3.7681    5.5788 C   0  0  0  0  0  0  0  0  0  0  0  0
    3.2316   -2.6274    6.4614 C   0  0  0  0  0  0  0  0  0  0  0  0
    2.4740   -4.9961    6.4101 C   0  0  0  0  0  0  0  0  0  0  0  0
    4.2338   -0.2992   -1.6549 H   0  0  0  0  0  0  0  0  0  0  0  0
    2.8489   -1.3654   -1.8046 H   0  0  0  0  0  0  0  0  0  0  0  0
    4.3168   -1.6656   -2.7357 H   0  0  0  0  0  0  0  0  0  0  0  0
    4.1289   -3.8508   -2.0143 H   0  0  0  0  0  0  0  0  0  0  0  0
    4.9987   -4.3487   -0.6281 H   0  0  0  0  0  0  0  0  0  0  0  0
    2.0505   -3.5240   -0.7399 H   0  0  0  0  0  0  0  0  0  0  0  0
    2.5956   -5.1471   -0.5892 H   0  0  0  0  0  0  0  0  0  0  0  0
    1.8342   -4.1967    1.5610 H   0  0  0  0  0  0  0  0  0  0  0  0
    4.2416    0.3814    0.5041 H   0  0  0  0  0  0  0  0  0  0  0  0
    4.5580   -0.2164    2.1496 H   0  0  0  0  0  0  0  0  0  0  0  0
    6.5790    0.1164    0.2503 H   0  0  0  0  0  0  0  0  0  0  0  0
    6.6755   -1.1315    1.5040 H   0  0  0  0  0  0  0  0  0  0  0  0
   -0.2162   -1.3622    4.0870 H   0  0  0  0  0  0  0  0  0  0  0  0
    0.7689   -1.5771    5.5201 H   0  0  0  0  0  0  0  0  0  0  0  0
    2.2288    0.1525    1.2837 H   0  0  0  0  0  0  0  0  0  0  0  0
    0.6557   -0.4606    1.6977 H   0  0  0  0  0  0  0  0  0  0  0  0
    1.1887   -4.1478    4.0768 H   0  0  0  0  0  0  0  0  0  0  0  0
    4.2072   -3.2339    4.0186 H   0  0  0  0  0  0  0  0  0  0  0  0
    4.3895   -5.8005    3.8869 H   0  0  0  0  0  0  0  0  0  0  0  0
    2.6744   -5.8410    3.5492 H   0  0  0  0  0  0  0  0  0  0  0  0
    2.9118   -6.8350    1.2429 H   0  0  0  0  0  0  0  0  0  0  0  0
    4.5406   -7.0479    1.8473 H   0  0  0  0  0  0  0  0  0  0  0  0
    4.2975   -6.3582    0.2674 H   0  0  0  0  0  0  0  0  0  0  0  0
    5.4142   -4.3989    0.9842 H   0  0  0  0  0  0  0  0  0  0  0  0
    4.1163   -2.9181    7.0374 H   0  0  0  0  0  0  0  0  0  0  0  0
    2.4446   -2.3344    7.1508 H   0  0  0  0  0  0  0  0  0  0  0  0
    3.5009   -1.7569    5.8549 H   0  0  0  0  0  0  0  0  0  0  0  0
    3.3711   -5.3293    6.9316 H   0  0  0  0  0  0  0  0  0  0  0  0
    2.1382   -5.8226    5.7728 H   0  0  0  0  0  0  0  0  0  0  0  0
    1.6910   -4.7993    7.1399 H   0  0  0  0  0  0  0  0  0  0  0  0
  2  1  1  6
  1 28  1  0
  1 29  1  0
  1 30  1  0
  2  7  1  0
  2 10  1  0
  2  3  1  0
  3  4  1  0
  3 31  1  0
  3 32  1  0
  4  5  1  0
  4 33  1  0
  4 34  1  0
  5 22  1  0
  5  6  1  0
  5 35  1  1
  6  7  2  0
  6 12  1  0
  7  8  1  0
  8  9  1  0
  8 36  1  0
  8 37  1  0
  9 10  1  0
  9 38  1  0
  9 39  1  0
 10 11  2  0
 12 18  1  0
 12 13  2  0
 13 14  1  0
 13 19  1  0
 14 15  1  0
 14 40  1  0
 14 41  1  0
 15 16  1  0
 16 17  2  0
 16 18  1  0
 18 42  1  0
 18 43  1  0
 19 25  1  0
 19 20  1  0
 19 44  1  6
 20 21  1  0
 20 25  1  0
 20 45  1  1
 21 22  1  0
 21 46  1  0
 21 47  1  0
 22 23  1  0
 22 24  1  1
 23 48  1  0
 23 49  1  0
 23 50  1  0
 24 51  1  0
 25 26  1  0
 25 27  1  0
 26 52  1  0
 26 53  1  0
 26 54  1  0
 27 55  1  0
 27 56  1  0
 27 57  1  0
M  END
>  <i_m_ct_stereo_status>  (129) 
1

>  <s_m_source_file>  (129) 
/var/tmp/pbs.5076255.sched01/tmpniar21pp/41tndis9zi.sdf

>  <i_m_source_file_index>  (129) 
18

>  <i_lp_mmshare_version>  (129) 
48012

>  <i_f3d_flags>  (129) 
0

>  <s_epik_input>  (129) 
Tz1DMVtDSDJdW0NIMl1DKFtDQEBdMTJbQ0gzXSk9QzNbQ0BASF0oW0NIMl1bQ0gyXTIpW0NAQF0oW0NIM10pKFtPSF0pW0NIMl1bQ0BIXTRbQ0BASF0oQzQoW0NIM10pW0NIM10pQzU9QzNbQ0gyXUMoPU8pT1tDSDJdNQ==

>  <s_epik_cmdline>  (129) 
J2VwaWtfcHl0aG9uJywgJy1waHQnLCAnMi4wJywgJy1waCcsICc3LjAnLCAnLXRuJywgJzgnLCAnLW1hJywgJzIwMCcsICctaW1hZScsICc8aW5maWxlLm1hZT4nLCAnLW9tYWUnLCAnPG91dGZpbGUubWFlPic=

>  <r_lp_tautomer_probability>  (129) 
1

>  <r_epik_Ionization_Penalty>  (129) 
1.25287e-07

>  <r_epik_Ionization_Penalty_Charging>  (129) 
0

>  <r_epik_Ionization_Penalty_Neutral>  (129) 
1.25287e-07

>  <r_epik_State_Penalty>  (129) 
-0

>  <r_epik_Charging_Adjusted_Penalty>  (129) 
0

>  <i_epik_Tot_Q>  (129) 
0

>  <i_epik_Tot_abs_Q>  (129) 
0

>  <s_epik_Chemistry_Notes>  (129) 
This compound has an ester and may undergo hydrolysis at high or low pH.

>  <s_lp_Force_Field>  (129) 
OPLS3e

>  <r_lp_Energy>  (129) 
67.838

>  <b_lp_Chiralities_Consistent>  (129) 
1

>  <s_lp_Variant>  (129) 
41:0-1

>  <s_i_glide_gridfile>  (129) 
pfpi4k_grid

>  <i_i_glide_lignum>  (129) 
18

>  <i_i_glide_rotatable_bonds>  (129) 
1

>  <r_i_docking_score>  (129) 
-3.10127

>  <r_i_glide_ligand_efficiency>  (129) 
-0.114862

>  <r_i_glide_ligand_efficiency_sa>  (129) 
-0.344586

>  <r_i_glide_ligand_efficiency_ln>  (129) 
-0.721925

>  <r_i_glide_gscore>  (129) 
-3.10127

>  <r_i_glide_lipo>  (129) 
-0.342311

>  <r_i_glide_hbond>  (129) 
-0.14978

>  <r_i_glide_metal>  (129) 
-0

>  <r_i_glide_rewards>  (129) 
-0.883078

>  <r_i_glide_evdw>  (129) 
-26.413

>  <r_i_glide_ecoul>  (129) 
-2.45241

>  <r_i_glide_erotb>  (129) 
0

>  <r_i_glide_esite>  (129) 
-0.0375908

>  <r_i_glide_emodel>  (129) 
-33.8515

>  <r_i_glide_energy>  (129) 
-28.8654

>  <r_i_glide_einternal>  (129) 
0.00525879

>  <r_i_glide_intrahb_reward>  (129) 
-0

>  <i_i_glide_confnum>  (129) 
2

>  <i_i_glide_posenum>  (129) 
8

>  <r_i_glide_eff_state_penalty>  (129) 
0

>  <ligand_id>  (129) 
41

>  <original_smiles>  (129) 
CC12CCC3C(=C1CCC2=O)C1=C(COC(=O)C1)C1C(CC3(C)O)C1(C)C

>  <smiles>  (129) 
[H]OC1(C([H])([H])[H])C([H])([H])C2([H])C([H])(C3=C(C4=C5C([H])([H])C([H])([H])C(=O)C5(C([H])([H])[H])C([H])([H])C([H])([H])C41[H])C([H])([H])C(=O)OC3([H])[H])C2(C([H])([H])[H])C([H])([H])[H]

$$$$
41:0:1
     RDKit          3D

 57 61  0  0  1  0  0  0  0  0999 V2000
    3.8454   -1.7300   -1.7348 C   0  0  0  0  0  0  0  0  0  0  0  0
    4.5383   -2.4432   -0.5507 C   0  0  2  0  0  0  0  0  0  0  0  0
    4.4751   -3.9625   -0.7629 C   0  0  0  0  0  0  0  0  0  0  0  0
    3.2319   -4.5559   -0.0704 C   0  0  0  0  0  0  0  0  0  0  0  0
    3.2249   -4.2726    1.4411 C   0  0  2  0  0  0  0  0  0  0  0  0
    3.2285   -2.7286    1.6686 C   0  0  0  0  0  0  0  0  0  0  0  0
    3.9140   -1.9709    0.7547 C   0  0  0  0  0  0  0  0  0  0  0  0
    4.4525   -0.5746    1.0412 C   0  0  0  0  0  0  0  0  0  0  0  0
    5.9279   -0.6722    0.5935 C   0  0  0  0  0  0  0  0  0  0  0  0
    5.9206   -1.8542   -0.3627 C   0  0  0  0  0  0  0  0  0  0  0  0
    6.9317   -2.2320   -0.9751 O   0  0  0  0  0  0  0  0  0  0  0  0
    2.3072   -2.0283    2.6004 C   0  0  0  0  0  0  0  0  0  0  0  0
    1.9001   -2.5008    3.8075 C   0  0  0  0  0  0  0  0  0  0  0  0
    0.8436   -1.7088    4.5664 C   0  0  0  0  0  0  0  0  0  0  0  0
    1.0078   -0.3121    4.4116 O   0  0  0  0  0  0  0  0  0  0  0  0
    1.3210    0.2253    3.2237 C   0  0  0  0  0  0  0  0  0  0  0  0
    1.4060    1.4254    2.9722 O   0  0  0  0  0  0  0  0  0  0  0  0
    1.5220   -0.8050    2.0890 C   0  0  0  0  0  0  0  0  0  0  0  0
    2.3776   -3.7065    4.4902 C   0  0  1  0  0  0  0  0  0  0  0  0
    3.8375   -4.0001    4.4124 C   0  0  2  0  0  0  0  0  0  0  0  0
    4.1762   -5.2711    3.7154 C   0  0  0  0  0  0  0  0  0  0  0  0
    4.3776   -5.0753    2.1963 C   0  0  1  0  0  0  0  0  0  0  0  0
    4.6371   -6.4952    1.6240 C   0  0  0  0  0  0  0  0  0  0  0  0
    5.6084   -4.3913    2.0751 O   0  0  0  0  0  0  0  0  0  0  0  0
    3.1942   -3.8111    5.7740 C   0  0  0  0  0  0  0  0  0  0  0  0
    3.4921   -2.5603    6.5716 C   0  0  0  0  0  0  0  0  0  0  0  0
    3.1002   -5.0162    6.6883 C   0  0  0  0  0  0  0  0  0  0  0  0
    3.9728   -0.6494   -1.6963 H   0  0  0  0  0  0  0  0  0  0  0  0
    2.7737   -1.9241   -1.7397 H   0  0  0  0  0  0  0  0  0  0  0  0
    4.2545   -2.0537   -2.6927 H   0  0  0  0  0  0  0  0  0  0  0  0
    4.4272   -4.1965   -1.8245 H   0  0  0  0  0  0  0  0  0  0  0  0
    5.3810   -4.4537   -0.4225 H   0  0  0  0  0  0  0  0  0  0  0  0
    2.3403   -4.1165   -0.5222 H   0  0  0  0  0  0  0  0  0  0  0  0
    3.1447   -5.6214   -0.2691 H   0  0  0  0  0  0  0  0  0  0  0  0
    2.2701   -4.6486    1.8162 H   0  0  0  0  0  0  0  0  0  0  0  0
    3.9331    0.1578    0.4116 H   0  0  0  0  0  0  0  0  0  0  0  0
    4.3611   -0.2667    2.0787 H   0  0  0  0  0  0  0  0  0  0  0  0
    6.2807    0.2266    0.1066 H   0  0  0  0  0  0  0  0  0  0  0  0
    6.5837   -0.8971    1.4366 H   0  0  0  0  0  0  0  0  0  0  0  0
   -0.1491   -1.9947    4.2098 H   0  0  0  0  0  0  0  0  0  0  0  0
    0.8789   -1.9588    5.6272 H   0  0  0  0  0  0  0  0  0  0  0  0
    2.0002   -0.3077    1.2517 H   0  0  0  0  0  0  0  0  0  0  0  0
    0.5546   -1.1271    1.7367 H   0  0  0  0  0  0  0  0  0  0  0  0
    1.6648   -4.5276    4.3419 H   0  0  0  0  0  0  0  0  0  0  0  0
    4.5059   -3.1699    4.1549 H   0  0  0  0  0  0  0  0  0  0  0  0
    5.0760   -5.6866    4.1728 H   0  0  0  0  0  0  0  0  0  0  0  0
    3.3835   -6.0062    3.8837 H   0  0  0  0  0  0  0  0  0  0  0  0
    3.7336   -7.1052    1.6356 H   0  0  0  0  0  0  0  0  0  0  0  0
    5.3865   -7.0250    2.2133 H   0  0  0  0  0  0  0  0  0  0  0  0
    5.0205   -6.4826    0.6040 H   0  0  0  0  0  0  0  0  0  0  0  0
    5.5024   -3.5408    2.4425 H   0  0  0  0  0  0  0  0  0  0  0  0
    4.4168   -2.6719    7.1402 H   0  0  0  0  0  0  0  0  0  0  0  0
    2.6781   -2.3433    7.2617 H   0  0  0  0  0  0  0  0  0  0  0  0
    3.6114   -1.7017    5.9041 H   0  0  0  0  0  0  0  0  0  0  0  0
    4.0470   -5.1730    7.2102 H   0  0  0  0  0  0  0  0  0  0  0  0
    2.8879   -5.9226    6.1143 H   0  0  0  0  0  0  0  0  0  0  0  0
    2.3083   -4.8908    7.4241 H   0  0  0  0  0  0  0  0  0  0  0  0
  2  1  1  6
  1 28  1  0
  1 29  1  0
  1 30  1  0
  2  7  1  0
  2 10  1  0
  2  3  1  0
  3  4  1  0
  3 31  1  0
  3 32  1  0
  4  5  1  0
  4 33  1  0
  4 34  1  0
  5 22  1  0
  5  6  1  0
  5 35  1  1
  6  7  2  0
  6 12  1  0
  7  8  1  0
  8  9  1  0
  8 36  1  0
  8 37  1  0
  9 10  1  0
  9 38  1  0
  9 39  1  0
 10 11  2  0
 12 18  1  0
 12 13  2  0
 13 14  1  0
 13 19  1  0
 14 15  1  0
 14 40  1  0
 14 41  1  0
 15 16  1  0
 16 17  2  0
 16 18  1  0
 18 42  1  0
 18 43  1  0
 19 25  1  0
 19 20  1  0
 19 44  1  1
 20 21  1  0
 20 25  1  0
 20 45  1  6
 21 22  1  0
 21 46  1  0
 21 47  1  0
 22 23  1  0
 22 24  1  1
 23 48  1  0
 23 49  1  0
 23 50  1  0
 24 51  1  0
 25 26  1  0
 25 27  1  0
 26 52  1  0
 26 53  1  0
 26 54  1  0
 27 55  1  0
 27 56  1  0
 27 57  1  0
M  END
>  <i_m_ct_stereo_status>  (130) 
1

>  <s_m_source_file>  (130) 
/var/tmp/pbs.5076255.sched01/tmpniar21pp/41tndis9zi.sdf

>  <i_m_source_file_index>  (130) 
18

>  <i_lp_mmshare_version>  (130) 
48012

>  <i_f3d_flags>  (130) 
0

>  <s_epik_input>  (130) 
Tz1DMVtDSDJdW0NIMl1DKFtDQEBdMTJbQ0gzXSk9QzNbQ0BASF0oW0NIMl1bQ0gyXTIpW0NAQF0oW0NIM10pKFtPSF0pW0NIMl1bQ0BIXTRbQ0BASF0oQzQoW0NIM10pW0NIM10pQzU9QzNbQ0gyXUMoPU8pT1tDSDJdNQ==

>  <s_epik_cmdline>  (130) 
J2VwaWtfcHl0aG9uJywgJy1waHQnLCAnMi4wJywgJy1waCcsICc3LjAnLCAnLXRuJywgJzgnLCAnLW1hJywgJzIwMCcsICctaW1hZScsICc8aW5maWxlLm1hZT4nLCAnLW9tYWUnLCAnPG91dGZpbGUubWFlPic=

>  <r_lp_tautomer_probability>  (130) 
1

>  <r_epik_Ionization_Penalty>  (130) 
1.25287e-07

>  <r_epik_Ionization_Penalty_Charging>  (130) 
0

>  <r_epik_Ionization_Penalty_Neutral>  (130) 
1.25287e-07

>  <r_epik_State_Penalty>  (130) 
-0

>  <r_epik_Charging_Adjusted_Penalty>  (130) 
0

>  <i_epik_Tot_Q>  (130) 
0

>  <i_epik_Tot_abs_Q>  (130) 
0

>  <s_epik_Chemistry_Notes>  (130) 
This compound has an ester and may undergo hydrolysis at high or low pH.

>  <s_lp_Force_Field>  (130) 
OPLS3e

>  <r_lp_Energy>  (130) 
67.838

>  <b_lp_Chiralities_Consistent>  (130) 
1

>  <s_lp_Variant>  (130) 
41:0-1

>  <s_i_glide_gridfile>  (130) 
pfpi4k_grid

>  <i_i_glide_lignum>  (130) 
18

>  <i_i_glide_rotatable_bonds>  (130) 
1

>  <r_i_docking_score>  (130) 
-3.08274

>  <r_i_glide_ligand_efficiency>  (130) 
-0.114176

>  <r_i_glide_ligand_efficiency_sa>  (130) 
-0.342527

>  <r_i_glide_ligand_efficiency_ln>  (130) 
-0.717611

>  <r_i_glide_gscore>  (130) 
-3.08274

>  <r_i_glide_lipo>  (130) 
-0.307093

>  <r_i_glide_hbond>  (130) 
-0.16

>  <r_i_glide_metal>  (130) 
-0

>  <r_i_glide_rewards>  (130) 
-0.883078

>  <r_i_glide_evdw>  (130) 
-25.2368

>  <r_i_glide_ecoul>  (130) 
-2.86594

>  <r_i_glide_erotb>  (130) 
0

>  <r_i_glide_esite>  (130) 
-0.0408387

>  <r_i_glide_emodel>  (130) 
-33.0399

>  <r_i_glide_energy>  (130) 
-28.1027

>  <r_i_glide_einternal>  (130) 
0.00125837

>  <r_i_glide_intrahb_reward>  (130) 
-0

>  <i_i_glide_confnum>  (130) 
1

>  <i_i_glide_posenum>  (130) 
36

>  <r_i_glide_eff_state_penalty>  (130) 
0

>  <ligand_id>  (130) 
41

>  <original_smiles>  (130) 
CC12CCC3C(=C1CCC2=O)C1=C(COC(=O)C1)C1C(CC3(C)O)C1(C)C

>  <smiles>  (130) 
[H]OC1(C([H])([H])[H])C([H])([H])C2([H])C([H])(C3=C(C4=C5C([H])([H])C([H])([H])C(=O)C5(C([H])([H])[H])C([H])([H])C([H])([H])C41[H])C([H])([H])C(=O)OC3([H])[H])C2(C([H])([H])[H])C([H])([H])[H]

$$$$
41:0:2
     RDKit          3D

 57 61  0  0  1  0  0  0  0  0999 V2000
    3.9747   -1.3404   -1.7117 C   0  0  0  0  0  0  0  0  0  0  0  0
    4.5004   -2.2256   -0.5593 C   0  0  2  0  0  0  0  0  0  0  0  0
    4.2423   -3.7020   -0.8974 C   0  0  0  0  0  0  0  0  0  0  0  0
    2.8971   -4.1639   -0.3026 C   0  0  0  0  0  0  0  0  0  0  0  0
    2.8607   -3.9977    1.2274 C   0  0  2  0  0  0  0  0  0  0  0  0
    3.0525   -2.4893    1.5776 C   0  0  0  0  0  0  0  0  0  0  0  0
    3.8776   -1.7674    0.7526 C   0  0  0  0  0  0  0  0  0  0  0  0
    4.5813   -0.4822    1.1694 C   0  0  0  0  0  0  0  0  0  0  0  0
    6.0513   -0.7508    0.7781 C   0  0  0  0  0  0  0  0  0  0  0  0
    5.9375   -1.8441   -0.2700 C   0  0  0  0  0  0  0  0  0  0  0  0
    6.9186   -2.2945   -0.8820 O   0  0  0  0  0  0  0  0  0  0  0  0
    2.1859   -1.7414    2.5267 C   0  0  0  0  0  0  0  0  0  0  0  0
    1.6607   -2.2401    3.6755 C   0  0  0  0  0  0  0  0  0  0  0  0
    0.6841   -1.3674    4.4539 C   0  0  0  0  0  0  0  0  0  0  0  0
    1.0421    0.0013    4.4182 O   0  0  0  0  0  0  0  0  0  0  0  0
    1.4815    0.5754    3.2891 C   0  0  0  0  0  0  0  0  0  0  0  0
    1.7446    1.7663    3.1364 O   0  0  0  0  0  0  0  0  0  0  0  0
    1.5913   -0.3889    2.0874 C   0  0  0  0  0  0  0  0  0  0  0  0
    1.9378   -3.5473    4.2773 C   0  0  1  0  0  0  0  0  0  0  0  0
    3.3480   -4.0322    4.2327 C   0  0  2  0  0  0  0  0  0  0  0  0
    3.5494   -5.2824    3.4513 C   0  0  0  0  0  0  0  0  0  0  0  0
    3.8575   -5.0026    1.9610 C   0  0  1  0  0  0  0  0  0  0  0  0
    3.9446   -6.4007    1.2891 C   0  0  0  0  0  0  0  0  0  0  0  0
    5.1803   -4.4976    1.9391 O   0  0  0  0  0  0  0  0  0  0  0  0
    2.6689   -3.8565    5.5790 C   0  0  0  0  0  0  0  0  0  0  0  0
    3.0907   -2.7197    6.4847 C   0  0  0  0  0  0  0  0  0  0  0  0
    2.3679   -5.1000    6.3914 C   0  0  0  0  0  0  0  0  0  0  0  0
    4.2407   -0.2916   -1.5822 H   0  0  0  0  0  0  0  0  0  0  0  0
    2.8895   -1.3876   -1.7760 H   0  0  0  0  0  0  0  0  0  0  0  0
    4.3821   -1.6481   -2.6749 H   0  0  0  0  0  0  0  0  0  0  0  0
    4.2148   -3.8506   -1.9745 H   0  0  0  0  0  0  0  0  0  0  0  0
    5.0537   -4.3382   -0.5604 H   0  0  0  0  0  0  0  0  0  0  0  0
    2.0972   -3.5681   -0.7483 H   0  0  0  0  0  0  0  0  0  0  0  0
    2.6712   -5.1838   -0.5965 H   0  0  0  0  0  0  0  0  0  0  0  0
    1.8505   -4.2684    1.5418 H   0  0  0  0  0  0  0  0  0  0  0  0
    4.2005    0.3606    0.5779 H   0  0  0  0  0  0  0  0  0  0  0  0
    4.4799   -0.2451    2.2240 H   0  0  0  0  0  0  0  0  0  0  0  0
    6.5419    0.1277    0.3774 H   0  0  0  0  0  0  0  0  0  0  0  0
    6.6264   -1.1254    1.6275 H   0  0  0  0  0  0  0  0  0  0  0  0
   -0.3186   -1.4869    4.0363 H   0  0  0  0  0  0  0  0  0  0  0  0
    0.6321   -1.6977    5.4911 H   0  0  0  0  0  0  0  0  0  0  0  0
    2.1707    0.0944    1.3074 H   0  0  0  0  0  0  0  0  0  0  0  0
    0.6018   -0.5495    1.6816 H   0  0  0  0  0  0  0  0  0  0  0  0
    1.1289   -4.2480    4.0355 H   0  0  0  0  0  0  0  0  0  0  0  0
    4.1334   -3.2856    4.0606 H   0  0  0  0  0  0  0  0  0  0  0  0
    4.3557   -5.8519    3.9163 H   0  0  0  0  0  0  0  0  0  0  0  0
    2.6569   -5.9102    3.5274 H   0  0  0  0  0  0  0  0  0  0  0  0
    2.9667   -6.8768    1.2182 H   0  0  0  0  0  0  0  0  0  0  0  0
    4.5802   -7.0780    1.8606 H   0  0  0  0  0  0  0  0  0  0  0  0
    4.3713   -6.3697    0.2867 H   0  0  0  0  0  0  0  0  0  0  0  0
    5.7429   -5.1147    2.3502 H   0  0  0  0  0  0  0  0  0  0  0  0
    3.9624   -2.9984    7.0790 H   0  0  0  0  0  0  0  0  0  0  0  0
    2.2796   -2.4439    7.1571 H   0  0  0  0  0  0  0  0  0  0  0  0
    3.3573   -1.8392    5.8924 H   0  0  0  0  0  0  0  0  0  0  0  0
    3.2579   -5.4225    6.9363 H   0  0  0  0  0  0  0  0  0  0  0  0
    2.0647   -5.9243    5.7398 H   0  0  0  0  0  0  0  0  0  0  0  0
    1.5647   -4.9200    7.1031 H   0  0  0  0  0  0  0  0  0  0  0  0
  2  1  1  6
  1 28  1  0
  1 29  1  0
  1 30  1  0
  2  7  1  0
  2 10  1  0
  2  3  1  0
  3  4  1  0
  3 31  1  0
  3 32  1  0
  4  5  1  0
  4 33  1  0
  4 34  1  0
  5 22  1  0
  5  6  1  0
  5 35  1  1
  6  7  2  0
  6 12  1  0
  7  8  1  0
  8  9  1  0
  8 36  1  0
  8 37  1  0
  9 10  1  0
  9 38  1  0
  9 39  1  0
 10 11  2  0
 12 18  1  0
 12 13  2  0
 13 14  1  0
 13 19  1  0
 14 15  1  0
 14 40  1  0
 14 41  1  0
 15 16  1  0
 16 17  2  0
 16 18  1  0
 18 42  1  0
 18 43  1  0
 19 25  1  0
 19 20  1  0
 19 44  1  6
 20 21  1  0
 20 25  1  0
 20 45  1  1
 21 22  1  0
 21 46  1  0
 21 47  1  0
 22 23  1  0
 22 24  1  1
 23 48  1  0
 23 49  1  0
 23 50  1  0
 24 51  1  0
 25 26  1  0
 25 27  1  0
 26 52  1  0
 26 53  1  0
 26 54  1  0
 27 55  1  0
 27 56  1  0
 27 57  1  0
M  END
>  <i_m_ct_stereo_status>  (131) 
1

>  <s_m_source_file>  (131) 
/var/tmp/pbs.5076255.sched01/tmpniar21pp/41tndis9zi.sdf

>  <i_m_source_file_index>  (131) 
18

>  <i_lp_mmshare_version>  (131) 
48012

>  <i_f3d_flags>  (131) 
0

>  <s_epik_input>  (131) 
Tz1DMVtDSDJdW0NIMl1DKFtDQEBdMTJbQ0gzXSk9QzNbQ0BASF0oW0NIMl1bQ0gyXTIpW0NAQF0oW0NIM10pKFtPSF0pW0NIMl1bQ0BIXTRbQ0BASF0oQzQoW0NIM10pW0NIM10pQzU9QzNbQ0gyXUMoPU8pT1tDSDJdNQ==

>  <s_epik_cmdline>  (131) 
J2VwaWtfcHl0aG9uJywgJy1waHQnLCAnMi4wJywgJy1waCcsICc3LjAnLCAnLXRuJywgJzgnLCAnLW1hJywgJzIwMCcsICctaW1hZScsICc8aW5maWxlLm1hZT4nLCAnLW9tYWUnLCAnPG91dGZpbGUubWFlPic=

>  <r_lp_tautomer_probability>  (131) 
1

>  <r_epik_Ionization_Penalty>  (131) 
1.25287e-07

>  <r_epik_Ionization_Penalty_Charging>  (131) 
0

>  <r_epik_Ionization_Penalty_Neutral>  (131) 
1.25287e-07

>  <r_epik_State_Penalty>  (131) 
-0

>  <r_epik_Charging_Adjusted_Penalty>  (131) 
0

>  <i_epik_Tot_Q>  (131) 
0

>  <i_epik_Tot_abs_Q>  (131) 
0

>  <s_epik_Chemistry_Notes>  (131) 
This compound has an ester and may undergo hydrolysis at high or low pH.

>  <s_lp_Force_Field>  (131) 
OPLS3e

>  <r_lp_Energy>  (131) 
67.838

>  <b_lp_Chiralities_Consistent>  (131) 
1

>  <s_lp_Variant>  (131) 
41:0-1

>  <s_i_glide_gridfile>  (131) 
pfpi4k_grid

>  <i_i_glide_lignum>  (131) 
18

>  <i_i_glide_rotatable_bonds>  (131) 
1

>  <r_i_docking_score>  (131) 
-3.07659

>  <r_i_glide_ligand_efficiency>  (131) 
-0.113948

>  <r_i_glide_ligand_efficiency_sa>  (131) 
-0.341843

>  <r_i_glide_ligand_efficiency_ln>  (131) 
-0.716179

>  <r_i_glide_gscore>  (131) 
-3.07659

>  <r_i_glide_lipo>  (131) 
-0.339426

>  <r_i_glide_hbond>  (131) 
-0.154803

>  <r_i_glide_metal>  (131) 
-0

>  <r_i_glide_rewards>  (131) 
-0.883078

>  <r_i_glide_evdw>  (131) 
-26.2062

>  <r_i_glide_ecoul>  (131) 
-2.37902

>  <r_i_glide_erotb>  (131) 
0

>  <r_i_glide_esite>  (131) 
-0.0321192

>  <r_i_glide_emodel>  (131) 
-33.5119

>  <r_i_glide_energy>  (131) 
-28.5852

>  <r_i_glide_einternal>  (131) 
0.0219493

>  <r_i_glide_intrahb_reward>  (131) 
-0

>  <i_i_glide_confnum>  (131) 
1

>  <i_i_glide_posenum>  (131) 
32

>  <r_i_glide_eff_state_penalty>  (131) 
0

>  <ligand_id>  (131) 
41

>  <original_smiles>  (131) 
CC12CCC3C(=C1CCC2=O)C1=C(COC(=O)C1)C1C(CC3(C)O)C1(C)C

>  <smiles>  (131) 
[H]OC1(C([H])([H])[H])C([H])([H])C2([H])C([H])(C3=C(C4=C5C([H])([H])C([H])([H])C(=O)C5(C([H])([H])[H])C([H])([H])C([H])([H])C41[H])C([H])([H])C(=O)OC3([H])[H])C2(C([H])([H])[H])C([H])([H])[H]

$$$$
42:1:0
     RDKit          3D

 58 62  0  0  1  0  0  0  0  0999 V2000
    5.0581   -8.2804    1.7361 C   0  0  0  0  0  0  0  0  0  0  0  0
    4.5150   -7.1904    2.6946 C   0  0  0  0  0  0  0  0  0  0  0  0
    3.2213   -7.6839    3.3819 C   0  0  0  0  0  0  0  0  0  0  0  0
    5.5293   -6.9563    3.8642 C   0  0  1  0  0  0  0  0  0  0  0  0
    5.8770   -8.1514    4.5438 O   0  0  0  0  0  0  0  0  0  0  0  0
    6.8254   -6.2959    3.4037 C   0  0  0  0  0  0  0  0  0  0  0  0
    6.4772   -4.9890    2.7361 C   0  0  0  0  0  0  0  0  0  0  0  0
    5.5412   -5.0901    1.5557 C   0  0  1  0  0  0  0  0  0  0  0  0
    4.2395   -5.8314    1.9236 C   0  0  1  0  0  0  0  0  0  0  0  0
    3.3832   -5.9287    0.6337 C   0  0  1  0  0  0  0  0  0  0  0  0
    2.1509   -6.5420    0.9353 O   0  0  0  0  0  0  0  0  0  0  0  0
    3.1081   -4.5772   -0.0803 C   0  0  1  0  0  0  0  0  0  0  0  0
    2.3470   -3.7627    0.7905 O   0  0  0  0  0  0  0  0  0  0  0  0
    4.4312   -3.8259   -0.4709 C   0  0  2  0  0  0  0  0  0  0  0  0
    5.2140   -4.6135   -1.5410 C   0  0  0  0  0  0  0  0  0  0  0  0
    5.2917   -3.7041    0.8749 C   0  0  1  0  0  0  0  0  0  0  0  0
    4.8807   -2.5771    1.9267 C   0  0  0  0  0  0  0  0  0  0  0  0
    4.2603   -1.3056    1.2825 C   0  0  0  0  0  0  0  0  0  0  0  0
    4.2336   -1.3985   -0.1380 C   0  0  0  0  0  0  0  0  0  0  0  0
    5.0504   -1.3924   -1.4512 C   0  0  2  0  0  0  0  0  0  0  0  0
    6.4480   -1.6545   -1.3108 O   0  0  0  0  0  0  0  0  0  0  0  0
    4.5656   -0.5967   -2.6177 C   0  0  0  0  0  0  0  0  0  0  0  0
    3.1058   -0.9712   -2.8565 C   0  0  0  0  0  0  0  0  0  0  0  0
    2.9943   -2.3485   -2.2064 C   0  0  1  0  0  0  0  0  0  0  0  0
    3.0437   -3.2993   -3.2532 O   0  0  0  0  0  0  0  0  0  0  0  0
    4.1080   -2.4680   -1.1655 C   0  0  1  0  0  0  0  0  0  0  0  0
    5.2738   -9.2121    2.2581 H   0  0  0  0  0  0  0  0  0  0  0  0
    5.9782   -7.9678    1.2419 H   0  0  0  0  0  0  0  0  0  0  0  0
    4.3393   -8.5267    0.9582 H   0  0  0  0  0  0  0  0  0  0  0  0
    2.7107   -6.8577    3.8782 H   0  0  0  0  0  0  0  0  0  0  0  0
    3.4142   -8.4407    4.1391 H   0  0  0  0  0  0  0  0  0  0  0  0
    2.5207   -8.1449    2.6957 H   0  0  0  0  0  0  0  0  0  0  0  0
    5.0742   -6.2990    4.6114 H   0  0  0  0  0  0  0  0  0  0  0  0
    6.1503   -8.7859    3.8993 H   0  0  0  0  0  0  0  0  0  0  0  0
    7.4641   -6.0872    4.2627 H   0  0  0  0  0  0  0  0  0  0  0  0
    7.4105   -6.9226    2.7289 H   0  0  0  0  0  0  0  0  0  0  0  0
    6.0404   -4.3297    3.4875 H   0  0  0  0  0  0  0  0  0  0  0  0
    7.4009   -4.5661    2.3552 H   0  0  0  0  0  0  0  0  0  0  0  0
    6.1172   -5.7117    0.8779 H   0  0  0  0  0  0  0  0  0  0  0  0
    3.7009   -5.1853    2.6152 H   0  0  0  0  0  0  0  0  0  0  0  0
    3.9124   -6.5629   -0.0802 H   0  0  0  0  0  0  0  0  0  0  0  0
    2.3399   -7.4590    1.0690 H   0  0  0  0  0  0  0  0  0  0  0  0
    2.4840   -4.7428   -0.9617 H   0  0  0  0  0  0  0  0  0  0  0  0
    2.2446   -2.9126    0.3887 H   0  0  0  0  0  0  0  0  0  0  0  0
    6.0093   -3.9731   -1.9635 H   0  0  0  0  0  0  0  0  0  0  0  0
    4.6109   -5.0382   -2.3840 H   0  0  0  0  0  0  0  0  0  0  0  0
    5.6882   -5.4480   -1.0561 H   0  0  0  0  0  0  0  0  0  0  0  0
    6.2670   -3.3992    0.5078 H   0  0  0  0  0  0  0  0  0  0  0  0
    4.1732   -2.9753    2.6673 H   0  0  0  0  0  0  0  0  0  0  0  0
    5.7846   -2.2331    2.4453 H   0  0  0  0  0  0  0  0  0  0  0  0
    3.7932   -0.4962    1.8122 H   0  0  0  0  0  0  0  0  0  0  0  0
    6.4287   -2.2900   -0.6139 H   0  0  0  0  0  0  0  0  0  0  0  0
    4.7335    0.4882   -2.5544 H   0  0  0  0  0  0  0  0  0  0  0  0
    5.0252   -0.9801   -3.5097 H   0  0  0  0  0  0  0  0  0  0  0  0
    2.4341   -0.2987   -2.3345 H   0  0  0  0  0  0  0  0  0  0  0  0
    2.8407   -0.9184   -3.9161 H   0  0  0  0  0  0  0  0  0  0  0  0
    2.0016   -2.4556   -1.7671 H   0  0  0  0  0  0  0  0  0  0  0  0
    2.9443   -4.1525   -2.8485 H   0  0  0  0  0  0  0  0  0  0  0  0
  1  2  1  0
  1 27  1  0
  1 28  1  0
  1 29  1  0
  2  9  1  0
  2  3  1  0
  2  4  1  0
  3 30  1  0
  3 31  1  0
  3 32  1  0
  4  5  1  0
  4  6  1  0
  4 33  1  1
  5 34  1  0
  6  7  1  0
  6 35  1  0
  6 36  1  0
  7  8  1  0
  7 37  1  0
  7 38  1  0
  8 16  1  0
  8  9  1  0
  8 39  1  6
  9 10  1  0
  9 40  1  1
 10 11  1  0
 10 12  1  0
 10 41  1  6
 11 42  1  0
 12 13  1  0
 12 14  1  0
 12 43  1  6
 13 44  1  0
 14 26  1  0
 14 15  1  6
 14 16  1  0
 15 45  1  0
 15 46  1  0
 15 47  1  0
 16 17  1  0
 16 48  1  6
 17 18  1  0
 17 49  1  0
 17 50  1  0
 18 19  2  0
 18 51  1  0
 26 19  1  1
 19 20  1  0
 20 26  1  0
 20 21  1  1
 20 22  1  0
 21 52  1  0
 22 23  1  0
 22 53  1  0
 22 54  1  0
 23 24  1  0
 23 55  1  0
 23 56  1  0
 24 25  1  0
 24 26  1  0
 24 57  1  1
 25 58  1  0
M  END
>  <i_m_ct_stereo_status>  (132) 
1

>  <s_m_source_file>  (132) 
/var/tmp/pbs.5076255.sched01/tmpniar21pp/41tndis9zi.sdf

>  <i_m_source_file_index>  (132) 
20

>  <i_lp_mmshare_version>  (132) 
48012

>  <i_f3d_flags>  (132) 
0

>  <s_epik_input>  (132) 
W0NIMl0xW0NIMl1bQ0BIXShbT0hdKUMoW0NIM10pKFtDSDNdKVtDQEhdKFtDQEBIXShbT0hdKVtDQEhdMltPSF0pW0NASF0xW0NAQEhdKFtDQEBdMihDMzQ1KVtDSDNdKVtDSDJdW0NIXT1DM0M0KFtPSF0pW0NIMl1bQ0gyXVtDQEhdNVtPSF0=

>  <s_epik_cmdline>  (132) 
J2VwaWtfcHl0aG9uJywgJy1waHQnLCAnMi4wJywgJy1waCcsICc3LjAnLCAnLXRuJywgJzgnLCAnLW1hJywgJzIwMCcsICctaW1hZScsICc8aW5maWxlLm1hZT4nLCAnLW9tYWUnLCAnPG91dGZpbGUubWFlPic=

>  <r_lp_tautomer_probability>  (132) 
1

>  <r_epik_Ionization_Penalty>  (132) 
3.17334e-06

>  <r_epik_Ionization_Penalty_Charging>  (132) 
0

>  <r_epik_Ionization_Penalty_Neutral>  (132) 
3.17334e-06

>  <r_epik_State_Penalty>  (132) 
-0

>  <r_epik_Charging_Adjusted_Penalty>  (132) 
0

>  <i_epik_Tot_Q>  (132) 
0

>  <i_epik_Tot_abs_Q>  (132) 
0

>  <s_lp_Force_Field>  (132) 
OPLS3e

>  <r_lp_Energy>  (132) 
116.064

>  <b_lp_Chiralities_Consistent>  (132) 
1

>  <s_lp_Variant>  (132) 
42:0-2

>  <s_i_glide_gridfile>  (132) 
pfpi4k_grid

>  <i_i_glide_lignum>  (132) 
20

>  <i_i_glide_rotatable_bonds>  (132) 
5

>  <r_i_docking_score>  (132) 
-3.18279

>  <r_i_glide_ligand_efficiency>  (132) 
-0.122415

>  <r_i_glide_ligand_efficiency_sa>  (132) 
-0.362654

>  <r_i_glide_ligand_efficiency_ln>  (132) 
-0.747469

>  <r_i_glide_gscore>  (132) 
-3.18279

>  <r_i_glide_lipo>  (132) 
-0.232769

>  <r_i_glide_hbond>  (132) 
-0.466496

>  <r_i_glide_metal>  (132) 
-0

>  <r_i_glide_rewards>  (132) 
-0.924029

>  <r_i_glide_evdw>  (132) 
-5.64521

>  <r_i_glide_ecoul>  (132) 
-9.94419

>  <r_i_glide_erotb>  (132) 
0

>  <r_i_glide_esite>  (132) 
0

>  <r_i_glide_emodel>  (132) 
-10.5409

>  <r_i_glide_energy>  (132) 
-15.5894

>  <r_i_glide_einternal>  (132) 
2.09645

>  <r_i_glide_intrahb_reward>  (132) 
-0

>  <i_i_glide_confnum>  (132) 
2

>  <i_i_glide_posenum>  (132) 
33

>  <r_i_glide_eff_state_penalty>  (132) 
0

>  <ligand_id>  (132) 
42

>  <original_smiles>  (132) 
CC1(C)C(O)CCC2C1C(O)C(O)C1(C)C2CC=C2C3(O)CCC(O)C231

>  <smiles>  (132) 
[H]OC1([H])C([H])(O[H])C2(C([H])([H])[H])C([H])(C([H])([H])C([H])=C3C4(O[H])C([H])([H])C([H])([H])C([H])(O[H])C342)C2([H])C([H])([H])C([H])([H])C([H])(O[H])C(C([H])([H])[H])(C([H])([H])[H])C12[H]

$$$$
42:1:1
     RDKit          3D

 58 62  0  0  1  0  0  0  0  0999 V2000
    5.1756   -8.1933    1.7877 C   0  0  0  0  0  0  0  0  0  0  0  0
    4.5961   -7.1051    2.7230 C   0  0  0  0  0  0  0  0  0  0  0  0
    3.3224   -7.6216    3.4076 C   0  0  0  0  0  0  0  0  0  0  0  0
    5.5992   -6.8225    3.8917 C   0  0  1  0  0  0  0  0  0  0  0  0
    5.9992   -7.9891    4.5901 O   0  0  0  0  0  0  0  0  0  0  0  0
    6.8713   -6.1392    3.4081 C   0  0  0  0  0  0  0  0  0  0  0  0
    6.4757   -4.8656    2.7078 C   0  0  0  0  0  0  0  0  0  0  0  0
    5.5490   -5.0150    1.5374 C   0  0  1  0  0  0  0  0  0  0  0  0
    4.2750   -5.7713    1.9365 C   0  0  1  0  0  0  0  0  0  0  0  0
    3.4439   -5.8958    0.6357 C   0  0  1  0  0  0  0  0  0  0  0  0
    2.2064   -6.4830    0.9146 O   0  0  0  0  0  0  0  0  0  0  0  0
    3.1414   -4.5658   -0.0956 C   0  0  1  0  0  0  0  0  0  0  0  0
    2.3673   -3.7582    0.7609 O   0  0  0  0  0  0  0  0  0  0  0  0
    4.4259   -3.7719   -0.4563 C   0  0  2  0  0  0  0  0  0  0  0  0
    5.2009   -4.5477   -1.5170 C   0  0  0  0  0  0  0  0  0  0  0  0
    5.2726   -3.6233    0.8657 C   0  0  1  0  0  0  0  0  0  0  0  0
    4.8343   -2.4934    1.8935 C   0  0  0  0  0  0  0  0  0  0  0  0
    4.2006   -1.2442    1.2194 C   0  0  0  0  0  0  0  0  0  0  0  0
    4.1956   -1.3697   -0.2110 C   0  0  0  0  0  0  0  0  0  0  0  0
    4.9831   -1.3370   -1.4979 C   0  0  2  0  0  0  0  0  0  0  0  0
    6.3704   -1.5901   -1.3824 O   0  0  0  0  0  0  0  0  0  0  0  0
    4.4821   -0.5768   -2.6887 C   0  0  0  0  0  0  0  0  0  0  0  0
    3.0245   -0.9954   -2.9009 C   0  0  0  0  0  0  0  0  0  0  0  0
    2.9599   -2.3773   -2.2601 C   0  0  1  0  0  0  0  0  0  0  0  0
    3.0348   -3.3253   -3.3021 O   0  0  0  0  0  0  0  0  0  0  0  0
    4.0902   -2.4428   -1.1965 C   0  0  1  0  0  0  0  0  0  0  0  0
    5.4116   -9.1095    2.3287 H   0  0  0  0  0  0  0  0  0  0  0  0
    6.0889   -7.8656    1.2869 H   0  0  0  0  0  0  0  0  0  0  0  0
    4.4585   -8.4674    1.0166 H   0  0  0  0  0  0  0  0  0  0  0  0
    2.7924   -6.8016    3.8941 H   0  0  0  0  0  0  0  0  0  0  0  0
    3.5369   -8.3649    4.1740 H   0  0  0  0  0  0  0  0  0  0  0  0
    2.6418   -8.0911    2.7053 H   0  0  0  0  0  0  0  0  0  0  0  0
    5.1270   -6.1642    4.6268 H   0  0  0  0  0  0  0  0  0  0  0  0
    6.4280   -8.5628    3.9743 H   0  0  0  0  0  0  0  0  0  0  0  0
    7.4969   -5.8804    4.2587 H   0  0  0  0  0  0  0  0  0  0  0  0
    7.4825   -6.7671    2.7561 H   0  0  0  0  0  0  0  0  0  0  0  0
    6.0089   -4.2129    3.4459 H   0  0  0  0  0  0  0  0  0  0  0  0
    7.3598   -4.4246    2.2543 H   0  0  0  0  0  0  0  0  0  0  0  0
    6.1439   -5.6116    0.8465 H   0  0  0  0  0  0  0  0  0  0  0  0
    3.7134   -5.1271    2.6133 H   0  0  0  0  0  0  0  0  0  0  0  0
    4.0042   -6.5428   -0.0499 H   0  0  0  0  0  0  0  0  0  0  0  0
    1.9163   -6.8383    0.1076 H   0  0  0  0  0  0  0  0  0  0  0  0
    2.5126   -4.7446   -0.9708 H   0  0  0  0  0  0  0  0  0  0  0  0
    2.2102   -2.9295    0.3285 H   0  0  0  0  0  0  0  0  0  0  0  0
    5.9406   -3.9397   -2.0214 H   0  0  0  0  0  0  0  0  0  0  0  0
    4.5711   -4.8977   -2.2691 H   0  0  0  0  0  0  0  0  0  0  0  0
    5.6944   -5.4253   -1.1135 H   0  0  0  0  0  0  0  0  0  0  0  0
    6.2554   -3.3008    0.4909 H   0  0  0  0  0  0  0  0  0  0  0  0
    4.1369   -2.8935    2.6551 H   0  0  0  0  0  0  0  0  0  0  0  0
    5.7347   -2.1174    2.4169 H   0  0  0  0  0  0  0  0  0  0  0  0
    3.7156   -0.4238    1.7131 H   0  0  0  0  0  0  0  0  0  0  0  0
    6.3749   -2.2600   -0.7328 H   0  0  0  0  0  0  0  0  0  0  0  0
    4.6192    0.5160   -2.6292 H   0  0  0  0  0  0  0  0  0  0  0  0
    4.9584   -0.9646   -3.5698 H   0  0  0  0  0  0  0  0  0  0  0  0
    2.3513   -0.3159   -2.3980 H   0  0  0  0  0  0  0  0  0  0  0  0
    2.7875   -0.9774   -3.9654 H   0  0  0  0  0  0  0  0  0  0  0  0
    1.9915   -2.5275   -1.8106 H   0  0  0  0  0  0  0  0  0  0  0  0
    2.9944   -4.1870   -2.9047 H   0  0  0  0  0  0  0  0  0  0  0  0
  1  2  1  0
  1 27  1  0
  1 28  1  0
  1 29  1  0
  2  9  1  0
  2  3  1  0
  2  4  1  0
  3 30  1  0
  3 31  1  0
  3 32  1  0
  4  5  1  0
  4  6  1  0
  4 33  1  1
  5 34  1  0
  6  7  1  0
  6 35  1  0
  6 36  1  0
  7  8  1  0
  7 37  1  0
  7 38  1  0
  8 16  1  0
  8  9  1  0
  8 39  1  6
  9 10  1  0
  9 40  1  1
 10 11  1  0
 10 12  1  0
 10 41  1  6
 11 42  1  0
 12 13  1  0
 12 14  1  0
 12 43  1  6
 13 44  1  0
 14 26  1  0
 14 15  1  6
 14 16  1  0
 15 45  1  0
 15 46  1  0
 15 47  1  0
 16 17  1  0
 16 48  1  6
 17 18  1  0
 17 49  1  0
 17 50  1  0
 18 19  2  0
 18 51  1  0
 26 19  1  1
 19 20  1  0
 20 26  1  0
 20 21  1  1
 20 22  1  0
 21 52  1  0
 22 23  1  0
 22 53  1  0
 22 54  1  0
 23 24  1  0
 23 55  1  0
 23 56  1  0
 24 25  1  0
 24 26  1  0
 24 57  1  1
 25 58  1  0
M  END
>  <i_m_ct_stereo_status>  (133) 
1

>  <s_m_source_file>  (133) 
/var/tmp/pbs.5076255.sched01/tmpniar21pp/41tndis9zi.sdf

>  <i_m_source_file_index>  (133) 
20

>  <i_lp_mmshare_version>  (133) 
48012

>  <i_f3d_flags>  (133) 
0

>  <s_epik_input>  (133) 
W0NIMl0xW0NIMl1bQ0BIXShbT0hdKUMoW0NIM10pKFtDSDNdKVtDQEhdKFtDQEBIXShbT0hdKVtDQEhdMltPSF0pW0NASF0xW0NAQEhdKFtDQEBdMihDMzQ1KVtDSDNdKVtDSDJdW0NIXT1DM0M0KFtPSF0pW0NIMl1bQ0gyXVtDQEhdNVtPSF0=

>  <s_epik_cmdline>  (133) 
J2VwaWtfcHl0aG9uJywgJy1waHQnLCAnMi4wJywgJy1waCcsICc3LjAnLCAnLXRuJywgJzgnLCAnLW1hJywgJzIwMCcsICctaW1hZScsICc8aW5maWxlLm1hZT4nLCAnLW9tYWUnLCAnPG91dGZpbGUubWFlPic=

>  <r_lp_tautomer_probability>  (133) 
1

>  <r_epik_Ionization_Penalty>  (133) 
3.17334e-06

>  <r_epik_Ionization_Penalty_Charging>  (133) 
0

>  <r_epik_Ionization_Penalty_Neutral>  (133) 
3.17334e-06

>  <r_epik_State_Penalty>  (133) 
-0

>  <r_epik_Charging_Adjusted_Penalty>  (133) 
0

>  <i_epik_Tot_Q>  (133) 
0

>  <i_epik_Tot_abs_Q>  (133) 
0

>  <s_lp_Force_Field>  (133) 
OPLS3e

>  <r_lp_Energy>  (133) 
116.064

>  <b_lp_Chiralities_Consistent>  (133) 
1

>  <s_lp_Variant>  (133) 
42:0-2

>  <s_i_glide_gridfile>  (133) 
pfpi4k_grid

>  <i_i_glide_lignum>  (133) 
20

>  <i_i_glide_rotatable_bonds>  (133) 
5

>  <r_i_docking_score>  (133) 
-3.03693

>  <r_i_glide_ligand_efficiency>  (133) 
-0.116805

>  <r_i_glide_ligand_efficiency_sa>  (133) 
-0.346034

>  <r_i_glide_ligand_efficiency_ln>  (133) 
-0.713212

>  <r_i_glide_gscore>  (133) 
-3.03693

>  <r_i_glide_lipo>  (133) 
-0.274907

>  <r_i_glide_hbond>  (133) 
-0.455779

>  <r_i_glide_metal>  (133) 
-0

>  <r_i_glide_rewards>  (133) 
-0.924029

>  <r_i_glide_evdw>  (133) 
-5.41077

>  <r_i_glide_ecoul>  (133) 
-8.90074

>  <r_i_glide_erotb>  (133) 
0

>  <r_i_glide_esite>  (133) 
0

>  <r_i_glide_emodel>  (133) 
-9.29419

>  <r_i_glide_energy>  (133) 
-14.3115

>  <r_i_glide_einternal>  (133) 
1.89266

>  <r_i_glide_intrahb_reward>  (133) 
-0

>  <i_i_glide_confnum>  (133) 
2

>  <i_i_glide_posenum>  (133) 
11

>  <r_i_glide_eff_state_penalty>  (133) 
0

>  <ligand_id>  (133) 
42

>  <original_smiles>  (133) 
CC1(C)C(O)CCC2C1C(O)C(O)C1(C)C2CC=C2C3(O)CCC(O)C231

>  <smiles>  (133) 
[H]OC1([H])C([H])(O[H])C2(C([H])([H])[H])C([H])(C([H])([H])C([H])=C3C4(O[H])C([H])([H])C([H])([H])C([H])(O[H])C342)C2([H])C([H])([H])C([H])([H])C([H])(O[H])C(C([H])([H])[H])(C([H])([H])[H])C12[H]

$$$$
43:0:0
     RDKit          3D

 19 21  0  0  1  0  0  0  0  0999 V2000
    3.4787   -1.1425   -3.7356 C   0  0  0  0  0  0  0  0  0  0  0  0
    2.6545   -2.2924   -3.6905 C   0  0  0  0  0  0  0  0  0  0  0  0
    2.5667   -3.0553   -2.5506 C   0  0  0  0  0  0  0  0  0  0  0  0
    3.2985   -2.6960   -1.4500 N   0  0  0  0  0  0  0  0  0  0  0  0
    3.4405   -3.2432   -0.2007 C   0  0  0  0  0  0  0  0  0  0  0  0
    2.8195   -4.4147    0.2999 N   0  0  0  0  0  0  0  0  0  0  0  0
    3.0373   -5.0403    1.4604 C   0  0  0  0  0  0  0  0  0  0  0  0
    2.2282   -6.0739    1.6321 N   0  0  0  0  0  0  0  0  0  0  0  0
    1.4865   -6.0917    0.4755 N   0  0  0  0  0  0  0  0  0  0  0  0
    1.8187   -5.1059   -0.3147 N   0  0  0  0  0  0  0  0  0  0  0  0
    4.2944   -2.4964    0.5103 N   0  0  0  0  0  0  0  0  0  0  0  0
    4.7334   -1.4450   -0.2701 N   0  0  0  0  0  0  0  0  0  0  0  0
    4.1338   -1.5584   -1.4544 C   0  0  0  0  0  0  0  0  0  0  0  0
    4.2136   -0.7825   -2.6346 C   0  0  0  0  0  0  0  0  0  0  0  0
    3.5236   -0.5261   -4.6305 H   0  0  0  0  0  0  0  0  0  0  0  0
    2.0607   -2.5812   -4.5466 H   0  0  0  0  0  0  0  0  0  0  0  0
    1.9336   -3.9312   -2.5048 H   0  0  0  0  0  0  0  0  0  0  0  0
    3.7679   -4.7255    2.1921 H   0  0  0  0  0  0  0  0  0  0  0  0
    4.8360    0.1042   -2.6282 H   0  0  0  0  0  0  0  0  0  0  0  0
  1 14  2  0
  1  2  1  0
  1 15  1  0
  2  3  2  0
  2 16  1  0
  3  4  1  0
  3 17  1  0
  4 13  1  0
  4  5  1  0
  5  6  1  0
  5 11  2  0
  6 10  1  0
  6  7  1  0
  7  8  2  0
  7 18  1  0
  8  9  1  0
  9 10  2  0
 11 12  1  0
 12 13  2  0
 13 14  1  0
 14 19  1  0
M  END
>  <i_m_ct_stereo_status>  (134) 
1

>  <s_m_source_file>  (134) 
/var/tmp/pbs.5076255.sched01/tmpniar21pp/41tndis9zi.sdf

>  <i_m_source_file_index>  (134) 
21

>  <i_lp_mmshare_version>  (134) 
48012

>  <i_f3d_flags>  (134) 
0

>  <s_epik_input>  (134) 
W2NIXTFbY0hdW2NIXVtjSF1jKG4xMilubmMyLW4zW2NIXW5ubjM=

>  <s_epik_cmdline>  (134) 
J2VwaWtfcHl0aG9uJywgJy1waHQnLCAnMi4wJywgJy1waCcsICc3LjAnLCAnLXRuJywgJzgnLCAnLW1hJywgJzIwMCcsICctaW1hZScsICc8aW5maWxlLm1hZT4nLCAnLW9tYWUnLCAnPG91dGZpbGUubWFlPic=

>  <r_lp_tautomer_probability>  (134) 
1

>  <r_epik_Ionization_Penalty>  (134) 
7.11294e-09

>  <r_epik_Ionization_Penalty_Charging>  (134) 
0

>  <r_epik_Ionization_Penalty_Neutral>  (134) 
7.11294e-09

>  <r_epik_State_Penalty>  (134) 
-0

>  <r_epik_Charging_Adjusted_Penalty>  (134) 
0

>  <i_epik_Tot_Q>  (134) 
0

>  <i_epik_Tot_abs_Q>  (134) 
0

>  <s_lp_Force_Field>  (134) 
OPLS3e

>  <r_lp_Energy>  (134) 
16.3166

>  <b_lp_Chiralities_Consistent>  (134) 
1

>  <s_lp_Variant>  (134) 
43:0-1

>  <s_i_glide_gridfile>  (134) 
pfpi4k_grid

>  <i_i_glide_lignum>  (134) 
21

>  <i_i_glide_rotatable_bonds>  (134) 
1

>  <r_i_docking_score>  (134) 
-4.13524

>  <r_i_glide_ligand_efficiency>  (134) 
-0.295375

>  <r_i_glide_ligand_efficiency_sa>  (134) 
-0.711895

>  <r_i_glide_ligand_efficiency_ln>  (134) 
-1.13635

>  <r_i_glide_gscore>  (134) 
-4.13524

>  <r_i_glide_lipo>  (134) 
-0.518338

>  <r_i_glide_hbond>  (134) 
0

>  <r_i_glide_metal>  (134) 
-0

>  <r_i_glide_rewards>  (134) 
-2.14832

>  <r_i_glide_evdw>  (134) 
-19.2873

>  <r_i_glide_ecoul>  (134) 
-4.12788

>  <r_i_glide_erotb>  (134) 
0.455851

>  <r_i_glide_esite>  (134) 
-0.34089

>  <r_i_glide_emodel>  (134) 
-30.6582

>  <r_i_glide_energy>  (134) 
-23.4152

>  <r_i_glide_einternal>  (134) 
0.0163449

>  <r_i_glide_intrahb_reward>  (134) 
-0

>  <i_i_glide_confnum>  (134) 
4

>  <i_i_glide_posenum>  (134) 
11

>  <r_i_glide_eff_state_penalty>  (134) 
0

>  <ligand_id>  (134) 
43

>  <original_smiles>  (134) 
c1ccn2c(-n3cnnn3)nnc2c1

>  <smiles>  (134) 
[H]c1c([H])c([H])n2c(-n3nnnc3[H])nnc2c1[H]

$$$$
43:0:1
     RDKit          3D

 19 21  0  0  1  0  0  0  0  0999 V2000
    3.4778   -1.2171   -3.7920 C   0  0  0  0  0  0  0  0  0  0  0  0
    2.7069   -2.3805   -3.6194 C   0  0  0  0  0  0  0  0  0  0  0  0
    2.6720   -3.0348   -2.4168 C   0  0  0  0  0  0  0  0  0  0  0  0
    3.4172   -2.5568   -1.3545 N   0  0  0  0  0  0  0  0  0  0  0  0
    3.5951   -2.9718   -0.0564 C   0  0  0  0  0  0  0  0  0  0  0  0
    3.0065   -4.1117    0.5585 N   0  0  0  0  0  0  0  0  0  0  0  0
    2.2121   -5.1029    0.1078 C   0  0  0  0  0  0  0  0  0  0  0  0
    1.8647   -5.9465    1.0668 N   0  0  0  0  0  0  0  0  0  0  0  0
    2.5197   -5.4555    2.1686 N   0  0  0  0  0  0  0  0  0  0  0  0
    3.1872   -4.3709    1.8798 N   0  0  0  0  0  0  0  0  0  0  0  0
    4.4369   -2.1248    0.5568 N   0  0  0  0  0  0  0  0  0  0  0  0
    4.8299   -1.1437   -0.3364 N   0  0  0  0  0  0  0  0  0  0  0  0
    4.2047   -1.3968   -1.4902 C   0  0  0  0  0  0  0  0  0  0  0  0
    4.2173   -0.7276   -2.7375 C   0  0  0  0  0  0  0  0  0  0  0  0
    3.4738   -0.6949   -4.7434 H   0  0  0  0  0  0  0  0  0  0  0  0
    2.0911   -2.7725   -4.4214 H   0  0  0  0  0  0  0  0  0  0  0  0
    2.0340   -3.9024   -2.3301 H   0  0  0  0  0  0  0  0  0  0  0  0
    1.8205   -5.2338   -0.8877 H   0  0  0  0  0  0  0  0  0  0  0  0
    4.8016    0.1776   -2.8312 H   0  0  0  0  0  0  0  0  0  0  0  0
  1 14  2  0
  1  2  1  0
  1 15  1  0
  2  3  2  0
  2 16  1  0
  3  4  1  0
  3 17  1  0
  4 13  1  0
  4  5  1  0
  5  6  1  0
  5 11  2  0
  6 10  1  0
  6  7  1  0
  7  8  2  0
  7 18  1  0
  8  9  1  0
  9 10  2  0
 11 12  1  0
 12 13  2  0
 13 14  1  0
 14 19  1  0
M  END
>  <i_m_ct_stereo_status>  (135) 
1

>  <s_m_source_file>  (135) 
/var/tmp/pbs.5076255.sched01/tmpniar21pp/41tndis9zi.sdf

>  <i_m_source_file_index>  (135) 
21

>  <i_lp_mmshare_version>  (135) 
48012

>  <i_f3d_flags>  (135) 
0

>  <s_epik_input>  (135) 
W2NIXTFbY0hdW2NIXVtjSF1jKG4xMilubmMyLW4zW2NIXW5ubjM=

>  <s_epik_cmdline>  (135) 
J2VwaWtfcHl0aG9uJywgJy1waHQnLCAnMi4wJywgJy1waCcsICc3LjAnLCAnLXRuJywgJzgnLCAnLW1hJywgJzIwMCcsICctaW1hZScsICc8aW5maWxlLm1hZT4nLCAnLW9tYWUnLCAnPG91dGZpbGUubWFlPic=

>  <r_lp_tautomer_probability>  (135) 
1

>  <r_epik_Ionization_Penalty>  (135) 
7.11294e-09

>  <r_epik_Ionization_Penalty_Charging>  (135) 
0

>  <r_epik_Ionization_Penalty_Neutral>  (135) 
7.11294e-09

>  <r_epik_State_Penalty>  (135) 
-0

>  <r_epik_Charging_Adjusted_Penalty>  (135) 
0

>  <i_epik_Tot_Q>  (135) 
0

>  <i_epik_Tot_abs_Q>  (135) 
0

>  <s_lp_Force_Field>  (135) 
OPLS3e

>  <r_lp_Energy>  (135) 
16.3166

>  <b_lp_Chiralities_Consistent>  (135) 
1

>  <s_lp_Variant>  (135) 
43:0-1

>  <s_i_glide_gridfile>  (135) 
pfpi4k_grid

>  <i_i_glide_lignum>  (135) 
21

>  <i_i_glide_rotatable_bonds>  (135) 
1

>  <r_i_docking_score>  (135) 
-4.13203

>  <r_i_glide_ligand_efficiency>  (135) 
-0.295145

>  <r_i_glide_ligand_efficiency_sa>  (135) 
-0.711342

>  <r_i_glide_ligand_efficiency_ln>  (135) 
-1.13547

>  <r_i_glide_gscore>  (135) 
-4.13203

>  <r_i_glide_lipo>  (135) 
-0.541394

>  <r_i_glide_hbond>  (135) 
0

>  <r_i_glide_metal>  (135) 
-0

>  <r_i_glide_rewards>  (135) 
-2.13299

>  <r_i_glide_evdw>  (135) 
-21.098

>  <r_i_glide_ecoul>  (135) 
-3.87038

>  <r_i_glide_erotb>  (135) 
0.455851

>  <r_i_glide_esite>  (135) 
-0.278043

>  <r_i_glide_emodel>  (135) 
-32.077

>  <r_i_glide_energy>  (135) 
-24.9684

>  <r_i_glide_einternal>  (135) 
0.225975

>  <r_i_glide_intrahb_reward>  (135) 
-0

>  <i_i_glide_confnum>  (135) 
2

>  <i_i_glide_posenum>  (135) 
3

>  <r_i_glide_eff_state_penalty>  (135) 
0

>  <ligand_id>  (135) 
43

>  <original_smiles>  (135) 
c1ccn2c(-n3cnnn3)nnc2c1

>  <smiles>  (135) 
[H]c1c([H])c([H])n2c(-n3nnnc3[H])nnc2c1[H]

$$$$
43:0:2
     RDKit          3D

 19 21  0  0  1  0  0  0  0  0999 V2000
    3.3286   -1.0516   -3.6752 C   0  0  0  0  0  0  0  0  0  0  0  0
    2.6141   -2.2638   -3.5285 C   0  0  0  0  0  0  0  0  0  0  0  0
    2.7949   -3.0517   -2.4136 C   0  0  0  0  0  0  0  0  0  0  0  0
    3.6879   -2.6565   -1.4542 N   0  0  0  0  0  0  0  0  0  0  0  0
    4.1074   -3.2202   -0.2770 C   0  0  0  0  0  0  0  0  0  0  0  0
    3.6880   -4.4630    0.2557 N   0  0  0  0  0  0  0  0  0  0  0  0
    4.3853   -5.3138    1.0157 C   0  0  0  0  0  0  0  0  0  0  0  0
    3.6490   -6.3333    1.4302 N   0  0  0  0  0  0  0  0  0  0  0  0
    2.4143   -6.0706    0.8749 N   0  0  0  0  0  0  0  0  0  0  0  0
    2.4261   -4.9674    0.1695 N   0  0  0  0  0  0  0  0  0  0  0  0
    5.0383   -2.4439    0.2818 N   0  0  0  0  0  0  0  0  0  0  0  0
    5.2365   -1.3339   -0.5192 N   0  0  0  0  0  0  0  0  0  0  0  0
    4.4257   -1.4588   -1.5673 C   0  0  0  0  0  0  0  0  0  0  0  0
    4.2157   -0.6515   -2.7108 C   0  0  0  0  0  0  0  0  0  0  0  0
    3.1551   -0.4111   -4.5384 H   0  0  0  0  0  0  0  0  0  0  0  0
    1.8997   -2.5702   -4.2863 H   0  0  0  0  0  0  0  0  0  0  0  0
    2.2607   -3.9828   -2.2646 H   0  0  0  0  0  0  0  0  0  0  0  0
    5.4129   -5.1609    1.3121 H   0  0  0  0  0  0  0  0  0  0  0  0
    4.7443    0.2915   -2.7775 H   0  0  0  0  0  0  0  0  0  0  0  0
  1 14  2  0
  1  2  1  0
  1 15  1  0
  2  3  2  0
  2 16  1  0
  3  4  1  0
  3 17  1  0
  4 13  1  0
  4  5  1  0
  5  6  1  0
  5 11  2  0
  6 10  1  0
  6  7  1  0
  7  8  2  0
  7 18  1  0
  8  9  1  0
  9 10  2  0
 11 12  1  0
 12 13  2  0
 13 14  1  0
 14 19  1  0
M  END
>  <i_m_ct_stereo_status>  (136) 
1

>  <s_m_source_file>  (136) 
/var/tmp/pbs.5076255.sched01/tmpniar21pp/41tndis9zi.sdf

>  <i_m_source_file_index>  (136) 
21

>  <i_lp_mmshare_version>  (136) 
48012

>  <i_f3d_flags>  (136) 
0

>  <s_epik_input>  (136) 
W2NIXTFbY0hdW2NIXVtjSF1jKG4xMilubmMyLW4zW2NIXW5ubjM=

>  <s_epik_cmdline>  (136) 
J2VwaWtfcHl0aG9uJywgJy1waHQnLCAnMi4wJywgJy1waCcsICc3LjAnLCAnLXRuJywgJzgnLCAnLW1hJywgJzIwMCcsICctaW1hZScsICc8aW5maWxlLm1hZT4nLCAnLW9tYWUnLCAnPG91dGZpbGUubWFlPic=

>  <r_lp_tautomer_probability>  (136) 
1

>  <r_epik_Ionization_Penalty>  (136) 
7.11294e-09

>  <r_epik_Ionization_Penalty_Charging>  (136) 
0

>  <r_epik_Ionization_Penalty_Neutral>  (136) 
7.11294e-09

>  <r_epik_State_Penalty>  (136) 
-0

>  <r_epik_Charging_Adjusted_Penalty>  (136) 
0

>  <i_epik_Tot_Q>  (136) 
0

>  <i_epik_Tot_abs_Q>  (136) 
0

>  <s_lp_Force_Field>  (136) 
OPLS3e

>  <r_lp_Energy>  (136) 
16.3166

>  <b_lp_Chiralities_Consistent>  (136) 
1

>  <s_lp_Variant>  (136) 
43:0-1

>  <s_i_glide_gridfile>  (136) 
pfpi4k_grid

>  <i_i_glide_lignum>  (136) 
21

>  <i_i_glide_rotatable_bonds>  (136) 
1

>  <r_i_docking_score>  (136) 
-4.1171

>  <r_i_glide_ligand_efficiency>  (136) 
-0.294078

>  <r_i_glide_ligand_efficiency_sa>  (136) 
-0.708771

>  <r_i_glide_ligand_efficiency_ln>  (136) 
-1.13136

>  <r_i_glide_gscore>  (136) 
-4.1171

>  <r_i_glide_lipo>  (136) 
-0.562637

>  <r_i_glide_hbond>  (136) 
0

>  <r_i_glide_metal>  (136) 
-0

>  <r_i_glide_rewards>  (136) 
-2.22556

>  <r_i_glide_evdw>  (136) 
-21.9588

>  <r_i_glide_ecoul>  (136) 
-3.27846

>  <r_i_glide_erotb>  (136) 
0.455851

>  <r_i_glide_esite>  (136) 
-0.195043

>  <r_i_glide_emodel>  (136) 
-32.1131

>  <r_i_glide_energy>  (136) 
-25.2373

>  <r_i_glide_einternal>  (136) 
0.520557

>  <r_i_glide_intrahb_reward>  (136) 
-0

>  <i_i_glide_confnum>  (136) 
1

>  <i_i_glide_posenum>  (136) 
19

>  <r_i_glide_eff_state_penalty>  (136) 
0

>  <ligand_id>  (136) 
43

>  <original_smiles>  (136) 
c1ccn2c(-n3cnnn3)nnc2c1

>  <smiles>  (136) 
[H]c1c([H])c([H])n2c(-n3nnnc3[H])nnc2c1[H]

$$$$
44:0:0
     RDKit          3D

 65 72  0  0  1  0  0  0  0  0999 V2000
    5.0201   -0.2498    2.4363 C   0  0  0  0  0  0  0  0  0  0  0  0
    3.7296   -0.7864    2.4356 O   0  0  0  0  0  0  0  0  0  0  0  0
    3.5710   -1.9996    1.7294 C   0  0  2  0  0  0  0  0  0  0  0  0
    2.2402   -2.6957    2.0409 C   0  0  0  0  0  0  0  0  0  0  0  0
    2.9395   -3.6161    3.0703 C   0  0  1  0  0  0  0  0  0  0  0  0
    2.9058   -3.2025    4.4626 O   0  0  0  0  0  0  0  0  0  0  0  0
    2.5365   -1.8596    4.8311 C   0  0  0  0  0  0  0  0  0  0  0  0
    2.5792   -5.1133    2.9755 C   0  0  0  0  0  0  0  0  0  0  0  0
    1.9920   -5.6007    2.0039 O   0  0  0  0  0  0  0  0  0  0  0  0
    3.0235   -6.0372    4.1499 C   0  0  2  0  0  0  0  0  0  0  0  0
    4.4744   -6.0950    4.1831 O   0  0  0  0  0  0  0  0  0  0  0  0
    4.8745   -7.1925    3.4914 C   0  0  0  0  0  0  0  0  0  0  0  0
    6.1219   -7.4824    2.8867 C   0  0  0  0  0  0  0  0  0  0  0  0
    7.2145   -6.7021    3.1494 O   0  0  0  0  0  0  0  0  0  0  0  0
    6.2274   -8.5469    1.9523 C   0  0  0  0  0  0  0  0  0  0  0  0
    5.0879   -9.2885    1.5691 C   0  0  0  0  0  0  0  0  0  0  0  0
    3.8336   -9.0484    2.1725 C   0  0  0  0  0  0  0  0  0  0  0  0
    3.8261   -8.0639    3.2114 C   0  0  0  0  0  0  0  0  0  0  0  0
    2.6265   -7.5472    4.0246 C   0  0  1  0  0  0  0  0  0  0  0  0
    2.1783   -8.1093    5.4913 C   0  0  0  0  0  0  0  0  0  0  0  0
    1.0698   -9.2313    5.2903 C   0  0  2  0  0  0  0  0  0  0  0  0
    0.5815   -9.8899    3.7802 C   0  0  2  0  0  0  0  0  0  0  0  0
    1.1053   -9.2047    2.4188 C   0  0  2  0  0  0  0  0  0  0  0  0
    2.4700   -9.6784    1.7061 C   0  0  0  0  0  0  0  0  0  0  0  0
    1.4606   -8.0625    3.3023 C   0  0  2  0  0  0  0  0  0  0  0  0
    0.3092   -7.2374    3.6107 O   0  0  0  0  0  0  0  0  0  0  0  0
    1.6856   -9.3312    4.1717 C   0  0  1  0  0  0  0  0  0  0  0  0
    4.2644   -3.2531    2.3335 C   0  0  1  0  0  0  0  0  0  0  0  0
    4.7568   -4.2715    1.2824 C   0  0  0  0  0  0  0  0  0  0  0  0
    5.8210   -3.7923    0.3304 C   0  0  0  0  0  0  0  0  0  0  0  0
    5.4422   -3.3947   -0.9684 C   0  0  0  0  0  0  0  0  0  0  0  0
    6.4226   -3.0162   -1.9044 C   0  0  0  0  0  0  0  0  0  0  0  0
    7.7874   -3.0373   -1.5267 C   0  0  0  0  0  0  0  0  0  0  0  0
    8.1661   -3.4255   -0.2335 C   0  0  0  0  0  0  0  0  0  0  0  0
    7.1759   -3.8127    0.7124 C   0  0  0  0  0  0  0  0  0  0  0  0
    5.0482    0.5909    3.1124 H   0  0  0  0  0  0  0  0  0  0  0  0
    5.3734    0.0835    1.4499 H   0  0  0  0  0  0  0  0  0  0  0  0
    5.7642   -0.9493    2.8309 H   0  0  0  0  0  0  0  0  0  0  0  0
    3.7595   -1.8931    0.6419 H   0  0  0  0  0  0  0  0  0  0  0  0
    1.4261   -2.0740    2.4031 H   0  0  0  0  0  0  0  0  0  0  0  0
    1.9006   -3.2363    1.1645 H   0  0  0  0  0  0  0  0  0  0  0  0
    2.5253   -1.7590    5.9223 H   0  0  0  0  0  0  0  0  0  0  0  0
    1.5146   -1.6252    4.5041 H   0  0  0  0  0  0  0  0  0  0  0  0
    3.2280   -1.1508    4.4741 H   0  0  0  0  0  0  0  0  0  0  0  0
    2.6514   -5.6099    5.0822 H   0  0  0  0  0  0  0  0  0  0  0  0
    8.0025   -7.0032    2.7382 H   0  0  0  0  0  0  0  0  0  0  0  0
    7.1700   -8.7565    1.4915 H   0  0  0  0  0  0  0  0  0  0  0  0
    5.1725  -10.0424    0.7869 H   0  0  0  0  0  0  0  0  0  0  0  0
    3.0424   -8.4437    6.0789 H   0  0  0  0  0  0  0  0  0  0  0  0
    1.7012   -7.3076    6.0543 H   0  0  0  0  0  0  0  0  0  0  0  0
    1.1417  -10.0012    6.0622 H   0  0  0  0  0  0  0  0  0  0  0  0
    0.3912  -10.9653    3.7752 H   0  0  0  0  0  0  0  0  0  0  0  0
    0.2991   -9.0002    1.7271 H   0  0  0  0  0  0  0  0  0  0  0  0
    2.3780   -9.4315    0.6419 H   0  0  0  0  0  0  0  0  0  0  0  0
    2.6057  -10.7609    1.7479 H   0  0  0  0  0  0  0  0  0  0  0  0
   -0.1882   -7.7940    4.1717 H   0  0  0  0  0  0  0  0  0  0  0  0
    2.5852  -10.0030    4.1524 H   0  0  0  0  0  0  0  0  0  0  0  0
    5.0574   -3.0265    3.0519 H   0  0  0  0  0  0  0  0  0  0  0  0
    5.0776   -5.2199    1.7156 H   0  0  0  0  0  0  0  0  0  0  0  0
    3.9133   -4.5224    0.6399 H   0  0  0  0  0  0  0  0  0  0  0  0
    4.4044   -3.4060   -1.2617 H   0  0  0  0  0  0  0  0  0  0  0  0
    6.1289   -2.7383   -2.8983 H   0  0  0  0  0  0  0  0  0  0  0  0
    8.5393   -2.7595   -2.2378 H   0  0  0  0  0  0  0  0  0  0  0  0
    9.2020   -3.4486    0.0498 H   0  0  0  0  0  0  0  0  0  0  0  0
    7.4556   -4.1420    1.6887 H   0  0  0  0  0  0  0  0  0  0  0  0
  1  2  1  0
  1 36  1  0
  1 37  1  0
  1 38  1  0
  2  3  1  0
  3 28  1  0
  3  4  1  0
  3 39  1  6
  4  5  1  0
  4 40  1  0
  4 41  1  0
  5  6  1  1
  5  8  1  0
  5 28  1  0
  6  7  1  0
  7 42  1  0
  7 43  1  0
  7 44  1  0
  8  9  2  0
  8 10  1  0
 10 19  1  0
 10 11  1  0
 10 45  1  1
 11 12  1  0
 12 18  2  0
 12 13  1  0
 13 14  1  0
 13 15  2  0
 14 46  1  0
 15 16  1  0
 15 47  1  0
 16 17  2  0
 16 48  1  0
 17 24  1  0
 17 18  1  0
 18 19  1  0
 19 25  1  0
 19 20  1  1
 20 21  1  0
 20 49  1  0
 20 50  1  0
 21 27  1  0
 21 22  1  0
 21 51  1  1
 22 27  1  0
 22 23  1  0
 22 52  1  6
 23 24  1  0
 23 25  1  0
 23 53  1  6
 24 54  1  0
 24 55  1  0
 25 26  1  6
 25 27  1  0
 26 56  1  0
 27 57  1  1
 28 29  1  0
 28 58  1  1
 29 30  1  0
 29 59  1  0
 29 60  1  0
 30 35  1  0
 30 31  2  0
 31 32  1  0
 31 61  1  0
 32 33  2  0
 32 62  1  0
 33 34  1  0
 33 63  1  0
 34 35  2  0
 34 64  1  0
 35 65  1  0
M  END
>  <i_m_ct_stereo_status>  (137) 
1

>  <s_m_source_file>  (137) 
/var/tmp/pbs.5076255.sched01/tmpniar21pp/41tndis9zi.sdf

>  <i_m_source_file_index>  (137) 
22

>  <i_lp_mmshare_version>  (137) 
48012

>  <i_f3d_flags>  (137) 
0

>  <s_epik_input>  (137) 
W2NIXTFbY0hdW2NIXVtjSF1bY0hdYzFbQ0gyXVtDQEhdMltDQEhdKE9bQ0gzXSlbQ0gyXVtDQEBdMihPW0NIM10pQyg9TylbQ0BASF0zT2MoYzRbQ0BdMzU2KWMoW09IXSlbY0hdW2NIXWM0W0NIMl1bQ0BIXTdbQ0BASF04W0NASF0oW0NIMl01KVtDQEBIXThbQ0BAXTY3W09IXQ==

>  <s_epik_cmdline>  (137) 
J2VwaWtfcHl0aG9uJywgJy1waHQnLCAnMi4wJywgJy1waCcsICc3LjAnLCAnLXRuJywgJzgnLCAnLW1hJywgJzIwMCcsICctaW1hZScsICc8aW5maWxlLm1hZT4nLCAnLW9tYWUnLCAnPG91dGZpbGUubWFlPic=

>  <r_lp_tautomer_probability>  (137) 
0.9999

>  <r_epik_Ionization_Penalty>  (137) 
0.00158799

>  <r_epik_Ionization_Penalty_Charging>  (137) 
0

>  <r_epik_Ionization_Penalty_Neutral>  (137) 
0.00158799

>  <r_epik_State_Penalty>  (137) 
0.00106791

>  <r_epik_Charging_Adjusted_Penalty>  (137) 
0.00106791

>  <i_epik_Tot_Q>  (137) 
0

>  <i_epik_Tot_abs_Q>  (137) 
0

>  <s_lp_Force_Field>  (137) 
OPLS3e

>  <r_lp_Energy>  (137) 
210.77

>  <b_lp_Chiralities_Consistent>  (137) 
1

>  <s_lp_Variant>  (137) 
44:0-1

>  <s_i_glide_gridfile>  (137) 
pfpi4k_grid

>  <i_i_glide_lignum>  (137) 
22

>  <i_i_glide_rotatable_bonds>  (137) 
8

>  <r_i_docking_score>  (137) 
-2.53248

>  <r_i_glide_ligand_efficiency>  (137) 
-0.0723565

>  <r_i_glide_ligand_efficiency_sa>  (137) 
-0.236683

>  <r_i_glide_ligand_efficiency_ln>  (137) 
-0.555935

>  <r_i_glide_gscore>  (137) 
-2.53248

>  <r_i_glide_lipo>  (137) 
-0.83462

>  <r_i_glide_hbond>  (137) 
0

>  <r_i_glide_metal>  (137) 
-0

>  <r_i_glide_rewards>  (137) 
-0.173557

>  <r_i_glide_evdw>  (137) 
-27.9254

>  <r_i_glide_ecoul>  (137) 
-3.22817

>  <r_i_glide_erotb>  (137) 
0.359439

>  <r_i_glide_esite>  (137) 
-0.00324389

>  <r_i_glide_emodel>  (137) 
-30.6948

>  <r_i_glide_energy>  (137) 
-31.1535

>  <r_i_glide_einternal>  (137) 
8.49275

>  <r_i_glide_intrahb_reward>  (137) 
-0

>  <i_i_glide_confnum>  (137) 
4

>  <i_i_glide_posenum>  (137) 
2

>  <r_i_glide_eff_state_penalty>  (137) 
0

>  <ligand_id>  (137) 
44

>  <original_smiles>  (137) 
COC1CC(OC)(C(=O)C2Oc3c(O)ccc4c3C23CC2C5C(C4)C3(O)C25)C1Cc1ccccc1

>  <smiles>  (137) 
[H]Oc1c([H])c([H])c2c3c1OC([H])(C(=O)C1(OC([H])([H])[H])C([H])([H])C([H])(OC([H])([H])[H])C1([H])C([H])([H])c1c([H])c([H])c([H])c([H])c1[H])C31C([H])([H])C3([H])C4([H])C([H])(C2([H])[H])C1(O[H])C34[H]

$$$$
44:0:1
     RDKit          3D

 65 72  0  0  1  0  0  0  0  0999 V2000
    3.7983   -0.6971    0.7198 C   0  0  0  0  0  0  0  0  0  0  0  0
    3.4242   -0.8277    2.0793 O   0  0  0  0  0  0  0  0  0  0  0  0
    3.0357   -2.1474    2.4206 C   0  0  2  0  0  0  0  0  0  0  0  0
    2.7258   -2.2774    3.9164 C   0  0  0  0  0  0  0  0  0  0  0  0
    3.5198   -3.6046    3.9213 C   0  0  1  0  0  0  0  0  0  0  0  0
    4.4074   -3.8039    5.0344 O   0  0  0  0  0  0  0  0  0  0  0  0
    5.1210   -2.7039    5.5952 C   0  0  0  0  0  0  0  0  0  0  0  0
    2.6146   -4.8181    3.7402 C   0  0  0  0  0  0  0  0  0  0  0  0
    1.9131   -4.9428    2.7356 O   0  0  0  0  0  0  0  0  0  0  0  0
    2.5540   -5.9135    4.8441 C   0  0  2  0  0  0  0  0  0  0  0  0
    3.8826   -6.3269    5.2533 O   0  0  0  0  0  0  0  0  0  0  0  0
    4.2130   -7.4175    4.4934 C   0  0  0  0  0  0  0  0  0  0  0  0
    5.4846   -7.9081    4.1624 C   0  0  0  0  0  0  0  0  0  0  0  0
    6.6019   -7.3899    4.7726 O   0  0  0  0  0  0  0  0  0  0  0  0
    5.6310   -8.9032    3.1710 C   0  0  0  0  0  0  0  0  0  0  0  0
    4.4899   -9.3726    2.4470 C   0  0  0  0  0  0  0  0  0  0  0  0
    3.1886   -8.9072    2.7475 C   0  0  0  0  0  0  0  0  0  0  0  0
    3.1194   -8.0071    3.8605 C   0  0  0  0  0  0  0  0  0  0  0  0
    1.8860   -7.2779    4.4343 C   0  0  1  0  0  0  0  0  0  0  0  0
    0.9726   -7.8125    5.6747 C   0  0  0  0  0  0  0  0  0  0  0  0
   -0.2398   -8.6463    5.0933 C   0  0  2  0  0  0  0  0  0  0  0  0
   -0.4373   -9.1093    3.4427 C   0  0  2  0  0  0  0  0  0  0  0  0
    0.5251   -8.4615    2.3404 C   0  0  2  0  0  0  0  0  0  0  0  0
    1.8756   -9.1792    1.9094 C   0  0  0  0  0  0  0  0  0  0  0  0
    0.8692   -7.4698    3.3823 C   0  0  2  0  0  0  0  0  0  0  0  0
   -0.1766   -6.4916    3.5232 O   0  0  0  0  0  0  0  0  0  0  0  0
    0.6109   -8.7965    4.1423 C   0  0  1  0  0  0  0  0  0  0  0  0
    4.1985   -3.1526    2.5912 C   0  0  1  0  0  0  0  0  0  0  0  0
    4.4597   -4.2074    1.5007 C   0  0  0  0  0  0  0  0  0  0  0  0
    5.2822   -3.7445    0.3242 C   0  0  0  0  0  0  0  0  0  0  0  0
    6.6425   -3.4423    0.4955 C   0  0  0  0  0  0  0  0  0  0  0  0
    7.4080   -3.0400   -0.6208 C   0  0  0  0  0  0  0  0  0  0  0  0
    6.7990   -2.9407   -1.8815 C   0  0  0  0  0  0  0  0  0  0  0  0
    5.4317   -3.2355   -2.0554 C   0  0  0  0  0  0  0  0  0  0  0  0
    4.6770   -3.6402   -0.9360 C   0  0  0  0  0  0  0  0  0  0  0  0
    4.0196    0.3408    0.4770 H   0  0  0  0  0  0  0  0  0  0  0  0
    3.0151   -1.0606    0.0517 H   0  0  0  0  0  0  0  0  0  0  0  0
    4.7049   -1.2589    0.5298 H   0  0  0  0  0  0  0  0  0  0  0  0
    2.2223   -2.5297    1.7987 H   0  0  0  0  0  0  0  0  0  0  0  0
    3.1493   -1.4463    4.4781 H   0  0  0  0  0  0  0  0  0  0  0  0
    1.6659   -2.3944    4.1504 H   0  0  0  0  0  0  0  0  0  0  0  0
    5.8275   -3.0788    6.3345 H   0  0  0  0  0  0  0  0  0  0  0  0
    4.4628   -2.0180    6.1278 H   0  0  0  0  0  0  0  0  0  0  0  0
    5.6986   -2.1435    4.8630 H   0  0  0  0  0  0  0  0  0  0  0  0
    2.0291   -5.4639    5.6920 H   0  0  0  0  0  0  0  0  0  0  0  0
    6.3810   -6.7374    5.4160 H   0  0  0  0  0  0  0  0  0  0  0  0
    6.6148   -9.2822    2.9270 H   0  0  0  0  0  0  0  0  0  0  0  0
    4.6448  -10.0742    1.6290 H   0  0  0  0  0  0  0  0  0  0  0  0
    1.5646   -8.3619    6.4093 H   0  0  0  0  0  0  0  0  0  0  0  0
    0.5526   -6.9610    6.2117 H   0  0  0  0  0  0  0  0  0  0  0  0
   -0.5138   -9.4573    5.7636 H   0  0  0  0  0  0  0  0  0  0  0  0
   -0.7585  -10.1351    3.2736 H   0  0  0  0  0  0  0  0  0  0  0  0
   -0.0116   -8.0495    1.4997 H   0  0  0  0  0  0  0  0  0  0  0  0
    2.1466   -8.8630    0.9024 H   0  0  0  0  0  0  0  0  0  0  0  0
    1.7576  -10.2515    1.8422 H   0  0  0  0  0  0  0  0  0  0  0  0
   -0.5966   -6.7184    4.3253 H   0  0  0  0  0  0  0  0  0  0  0  0
    1.3161   -9.6409    4.2641 H   0  0  0  0  0  0  0  0  0  0  0  0
    5.1043   -2.5928    2.8196 H   0  0  0  0  0  0  0  0  0  0  0  0
    4.9395   -5.0860    1.9181 H   0  0  0  0  0  0  0  0  0  0  0  0
    3.5247   -4.5439    1.0601 H   0  0  0  0  0  0  0  0  0  0  0  0
    7.1015   -3.5228    1.4621 H   0  0  0  0  0  0  0  0  0  0  0  0
    8.4613   -2.8151   -0.5079 H   0  0  0  0  0  0  0  0  0  0  0  0
    7.3949   -2.6519   -2.7302 H   0  0  0  0  0  0  0  0  0  0  0  0
    4.9573   -3.1678   -3.0275 H   0  0  0  0  0  0  0  0  0  0  0  0
    3.6311   -3.8724   -1.0668 H   0  0  0  0  0  0  0  0  0  0  0  0
  1  2  1  0
  1 36  1  0
  1 37  1  0
  1 38  1  0
  2  3  1  0
  3 28  1  0
  3  4  1  0
  3 39  1  6
  4  5  1  0
  4 40  1  0
  4 41  1  0
  5  6  1  1
  5  8  1  0
  5 28  1  0
  6  7  1  0
  7 42  1  0
  7 43  1  0
  7 44  1  0
  8  9  2  0
  8 10  1  0
 10 19  1  0
 10 11  1  0
 10 45  1  1
 11 12  1  0
 12 18  2  0
 12 13  1  0
 13 14  1  0
 13 15  2  0
 14 46  1  0
 15 16  1  0
 15 47  1  0
 16 17  2  0
 16 48  1  0
 17 24  1  0
 17 18  1  0
 18 19  1  0
 19 25  1  0
 19 20  1  1
 20 21  1  0
 20 49  1  0
 20 50  1  0
 21 27  1  0
 21 22  1  0
 21 51  1  1
 22 27  1  0
 22 23  1  0
 22 52  1  6
 23 24  1  0
 23 25  1  0
 23 53  1  6
 24 54  1  0
 24 55  1  0
 25 26  1  6
 25 27  1  0
 26 56  1  0
 27 57  1  1
 28 29  1  0
 28 58  1  1
 29 30  1  0
 29 59  1  0
 29 60  1  0
 30 35  1  0
 30 31  2  0
 31 32  1  0
 31 61  1  0
 32 33  2  0
 32 62  1  0
 33 34  1  0
 33 63  1  0
 34 35  2  0
 34 64  1  0
 35 65  1  0
M  END
>  <i_m_ct_stereo_status>  (138) 
1

>  <s_m_source_file>  (138) 
/var/tmp/pbs.5076255.sched01/tmpniar21pp/41tndis9zi.sdf

>  <i_m_source_file_index>  (138) 
22

>  <i_lp_mmshare_version>  (138) 
48012

>  <i_f3d_flags>  (138) 
0

>  <s_epik_input>  (138) 
W2NIXTFbY0hdW2NIXVtjSF1bY0hdYzFbQ0gyXVtDQEhdMltDQEhdKE9bQ0gzXSlbQ0gyXVtDQEBdMihPW0NIM10pQyg9TylbQ0BASF0zT2MoYzRbQ0BdMzU2KWMoW09IXSlbY0hdW2NIXWM0W0NIMl1bQ0BIXTdbQ0BASF04W0NASF0oW0NIMl01KVtDQEBIXThbQ0BAXTY3W09IXQ==

>  <s_epik_cmdline>  (138) 
J2VwaWtfcHl0aG9uJywgJy1waHQnLCAnMi4wJywgJy1waCcsICc3LjAnLCAnLXRuJywgJzgnLCAnLW1hJywgJzIwMCcsICctaW1hZScsICc8aW5maWxlLm1hZT4nLCAnLW9tYWUnLCAnPG91dGZpbGUubWFlPic=

>  <r_lp_tautomer_probability>  (138) 
0.9999

>  <r_epik_Ionization_Penalty>  (138) 
0.00158799

>  <r_epik_Ionization_Penalty_Charging>  (138) 
0

>  <r_epik_Ionization_Penalty_Neutral>  (138) 
0.00158799

>  <r_epik_State_Penalty>  (138) 
0.00106791

>  <r_epik_Charging_Adjusted_Penalty>  (138) 
0.00106791

>  <i_epik_Tot_Q>  (138) 
0

>  <i_epik_Tot_abs_Q>  (138) 
0

>  <s_lp_Force_Field>  (138) 
OPLS3e

>  <r_lp_Energy>  (138) 
210.77

>  <b_lp_Chiralities_Consistent>  (138) 
1

>  <s_lp_Variant>  (138) 
44:0-1

>  <s_i_glide_gridfile>  (138) 
pfpi4k_grid

>  <i_i_glide_lignum>  (138) 
22

>  <i_i_glide_rotatable_bonds>  (138) 
8

>  <r_i_docking_score>  (138) 
-2.06427

>  <r_i_glide_ligand_efficiency>  (138) 
-0.058979

>  <r_i_glide_ligand_efficiency_sa>  (138) 
-0.192924

>  <r_i_glide_ligand_efficiency_ln>  (138) 
-0.453152

>  <r_i_glide_gscore>  (138) 
-2.06427

>  <r_i_glide_lipo>  (138) 
-0.49834

>  <r_i_glide_hbond>  (138) 
0

>  <r_i_glide_metal>  (138) 
-0

>  <r_i_glide_rewards>  (138) 
-0.173557

>  <r_i_glide_evdw>  (138) 
-26.3241

>  <r_i_glide_ecoul>  (138) 
-2.904

>  <r_i_glide_erotb>  (138) 
0.359439

>  <r_i_glide_esite>  (138) 
0

>  <r_i_glide_emodel>  (138) 
-29.5708

>  <r_i_glide_energy>  (138) 
-29.2281

>  <r_i_glide_einternal>  (138) 
5.84704

>  <r_i_glide_intrahb_reward>  (138) 
-0

>  <i_i_glide_confnum>  (138) 
1

>  <i_i_glide_posenum>  (138) 
18

>  <r_i_glide_eff_state_penalty>  (138) 
0

>  <ligand_id>  (138) 
44

>  <original_smiles>  (138) 
COC1CC(OC)(C(=O)C2Oc3c(O)ccc4c3C23CC2C5C(C4)C3(O)C25)C1Cc1ccccc1

>  <smiles>  (138) 
[H]Oc1c([H])c([H])c2c3c1OC([H])(C(=O)C1(OC([H])([H])[H])C([H])([H])C([H])(OC([H])([H])[H])C1([H])C([H])([H])c1c([H])c([H])c([H])c([H])c1[H])C31C([H])([H])C3([H])C4([H])C([H])(C2([H])[H])C1(O[H])C34[H]

$$$$
44:0:2
     RDKit          3D

 65 72  0  0  1  0  0  0  0  0999 V2000
    0.2063   -8.5586    8.1880 C   0  0  0  0  0  0  0  0  0  0  0  0
    0.3969   -7.1659    8.3874 O   0  0  0  0  0  0  0  0  0  0  0  0
    1.1388   -6.5504    7.3410 C   0  0  2  0  0  0  0  0  0  0  0  0
    1.4977   -5.0971    7.6615 C   0  0  0  0  0  0  0  0  0  0  0  0
    0.2499   -4.6392    6.8960 C   0  0  1  0  0  0  0  0  0  0  0  0
   -0.8330   -4.4648    7.7973 O   0  0  0  0  0  0  0  0  0  0  0  0
   -2.1462   -4.3130    7.2666 C   0  0  0  0  0  0  0  0  0  0  0  0
    0.3994   -3.4282    5.9757 C   0  0  0  0  0  0  0  0  0  0  0  0
   -0.0537   -3.3958    4.8391 O   0  0  0  0  0  0  0  0  0  0  0  0
    1.1346   -2.1838    6.5950 C   0  0  2  0  0  0  0  0  0  0  0  0
    0.1398   -1.2094    6.9793 O   0  0  0  0  0  0  0  0  0  0  0  0
   -0.0572   -0.3920    5.8929 C   0  0  0  0  0  0  0  0  0  0  0  0
   -1.1982    0.3683    5.5414 C   0  0  0  0  0  0  0  0  0  0  0  0
   -2.2459    0.4999    6.4008 O   0  0  0  0  0  0  0  0  0  0  0  0
   -1.2697    0.9518    4.2592 C   0  0  0  0  0  0  0  0  0  0  0  0
   -0.2924    0.6999    3.2666 C   0  0  0  0  0  0  0  0  0  0  0  0
    0.8531   -0.0636    3.5705 C   0  0  0  0  0  0  0  0  0  0  0  0
    0.9442   -0.4806    4.9556 C   0  0  0  0  0  0  0  0  0  0  0  0
    2.0151   -1.3890    5.5787 C   0  0  1  0  0  0  0  0  0  0  0  0
    3.3535   -0.8724    6.3497 C   0  0  0  0  0  0  0  0  0  0  0  0
    4.5576   -0.8290    5.2987 C   0  0  2  0  0  0  0  0  0  0  0  0
    4.4228   -1.0553    3.6221 C   0  0  2  0  0  0  0  0  0  0  0  0
    3.0393   -1.6098    2.9968 C   0  0  2  0  0  0  0  0  0  0  0  0
    1.8829   -0.5949    2.4925 C   0  0  0  0  0  0  0  0  0  0  0  0
    2.7165   -1.9758    4.4148 C   0  0  2  0  0  0  0  0  0  0  0  0
    3.3493   -3.1740    4.8440 O   0  0  0  0  0  0  0  0  0  0  0  0
    3.5272   -0.6924    4.4966 C   0  0  1  0  0  0  0  0  0  0  0  0
    0.2849   -6.0021    6.1835 C   0  0  1  0  0  0  0  0  0  0  0  0
    0.9116   -6.0029    4.7716 C   0  0  0  0  0  0  0  0  0  0  0  0
    1.0978   -7.3586    4.1008 C   0  0  0  0  0  0  0  0  0  0  0  0
    2.1005   -7.4314    3.1137 C   0  0  0  0  0  0  0  0  0  0  0  0
    2.2745   -8.5950    2.3638 C   0  0  0  0  0  0  0  0  0  0  0  0
    1.4483   -9.7082    2.6270 C   0  0  0  0  0  0  0  0  0  0  0  0
    0.4371   -9.6488    3.6108 C   0  0  0  0  0  0  0  0  0  0  0  0
    0.2603   -8.4742    4.3543 C   0  0  0  0  0  0  0  0  0  0  0  0
   -0.3083   -8.9963    9.0435 H   0  0  0  0  0  0  0  0  0  0  0  0
    1.1484   -9.0942    8.0550 H   0  0  0  0  0  0  0  0  0  0  0  0
   -0.4092   -8.7325    7.3082 H   0  0  0  0  0  0  0  0  0  0  0  0
    2.0011   -7.1475    7.0265 H   0  0  0  0  0  0  0  0  0  0  0  0
    1.5344   -4.8479    8.7275 H   0  0  0  0  0  0  0  0  0  0  0  0
    2.4202   -4.8304    7.1704 H   0  0  0  0  0  0  0  0  0  0  0  0
   -2.8454   -4.0484    8.0617 H   0  0  0  0  0  0  0  0  0  0  0  0
   -2.5001   -5.2385    6.8223 H   0  0  0  0  0  0  0  0  0  0  0  0
   -2.2221   -3.5309    6.5139 H   0  0  0  0  0  0  0  0  0  0  0  0
    1.7173   -2.5150    7.4747 H   0  0  0  0  0  0  0  0  0  0  0  0
   -2.7914    1.2441    6.1773 H   0  0  0  0  0  0  0  0  0  0  0  0
   -2.1268    1.5550    4.0148 H   0  0  0  0  0  0  0  0  0  0  0  0
   -0.4567    1.0766    2.2479 H   0  0  0  0  0  0  0  0  0  0  0  0
    3.1841    0.0823    6.8679 H   0  0  0  0  0  0  0  0  0  0  0  0
    3.6605   -1.6075    7.1119 H   0  0  0  0  0  0  0  0  0  0  0  0
    5.2177    0.0171    5.5332 H   0  0  0  0  0  0  0  0  0  0  0  0
    4.9476   -0.3288    2.9972 H   0  0  0  0  0  0  0  0  0  0  0  0
    3.2263   -2.4663    2.3357 H   0  0  0  0  0  0  0  0  0  0  0  0
    1.3101   -1.1488    1.7665 H   0  0  0  0  0  0  0  0  0  0  0  0
    2.3326    0.2528    1.9684 H   0  0  0  0  0  0  0  0  0  0  0  0
    2.7762   -3.8644    4.5745 H   0  0  0  0  0  0  0  0  0  0  0  0
    3.1871    0.3285    4.3520 H   0  0  0  0  0  0  0  0  0  0  0  0
   -0.6934   -6.4527    6.1805 H   0  0  0  0  0  0  0  0  0  0  0  0
    0.3410   -5.3594    4.1125 H   0  0  0  0  0  0  0  0  0  0  0  0
    1.9273   -5.6066    4.8522 H   0  0  0  0  0  0  0  0  0  0  0  0
    2.6987   -6.5503    2.9161 H   0  0  0  0  0  0  0  0  0  0  0  0
    3.0464   -8.6257    1.6020 H   0  0  0  0  0  0  0  0  0  0  0  0
    1.6033  -10.6267    2.0779 H   0  0  0  0  0  0  0  0  0  0  0  0
   -0.1978  -10.5038    3.8059 H   0  0  0  0  0  0  0  0  0  0  0  0
   -0.5408   -8.4175    5.0792 H   0  0  0  0  0  0  0  0  0  0  0  0
  1  2  1  0
  1 36  1  0
  1 37  1  0
  1 38  1  0
  2  3  1  0
  3 28  1  0
  3  4  1  0
  3 39  1  6
  4  5  1  0
  4 40  1  0
  4 41  1  0
  5  6  1  1
  5  8  1  0
  5 28  1  0
  6  7  1  0
  7 42  1  0
  7 43  1  0
  7 44  1  0
  8  9  2  0
  8 10  1  0
 10 19  1  0
 10 11  1  0
 10 45  1  1
 11 12  1  0
 12 18  2  0
 12 13  1  0
 13 14  1  0
 13 15  2  0
 14 46  1  0
 15 16  1  0
 15 47  1  0
 16 17  2  0
 16 48  1  0
 17 24  1  0
 17 18  1  0
 18 19  1  0
 19 25  1  0
 19 20  1  1
 20 21  1  0
 20 49  1  0
 20 50  1  0
 21 27  1  0
 21 22  1  0
 21 51  1  1
 22 27  1  0
 22 23  1  0
 22 52  1  6
 23 24  1  0
 23 25  1  0
 23 53  1  6
 24 54  1  0
 24 55  1  0
 25 26  1  6
 25 27  1  0
 26 56  1  0
 27 57  1  6
 28 29  1  0
 28 58  1  6
 29 30  1  0
 29 59  1  0
 29 60  1  0
 30 35  1  0
 30 31  2  0
 31 32  1  0
 31 61  1  0
 32 33  2  0
 32 62  1  0
 33 34  1  0
 33 63  1  0
 34 35  2  0
 34 64  1  0
 35 65  1  0
M  END
>  <i_m_ct_stereo_status>  (139) 
1

>  <s_m_source_file>  (139) 
/var/tmp/pbs.5076255.sched01/tmpniar21pp/41tndis9zi.sdf

>  <i_m_source_file_index>  (139) 
22

>  <i_lp_mmshare_version>  (139) 
48012

>  <i_f3d_flags>  (139) 
0

>  <s_epik_input>  (139) 
W2NIXTFbY0hdW2NIXVtjSF1bY0hdYzFbQ0gyXVtDQEhdMltDQEhdKE9bQ0gzXSlbQ0gyXVtDQEBdMihPW0NIM10pQyg9TylbQ0BASF0zT2MoYzRbQ0BdMzU2KWMoW09IXSlbY0hdW2NIXWM0W0NIMl1bQ0BIXTdbQ0BASF04W0NASF0oW0NIMl01KVtDQEBIXThbQ0BAXTY3W09IXQ==

>  <s_epik_cmdline>  (139) 
J2VwaWtfcHl0aG9uJywgJy1waHQnLCAnMi4wJywgJy1waCcsICc3LjAnLCAnLXRuJywgJzgnLCAnLW1hJywgJzIwMCcsICctaW1hZScsICc8aW5maWxlLm1hZT4nLCAnLW9tYWUnLCAnPG91dGZpbGUubWFlPic=

>  <r_lp_tautomer_probability>  (139) 
0.9999

>  <r_epik_Ionization_Penalty>  (139) 
0.00158799

>  <r_epik_Ionization_Penalty_Charging>  (139) 
0

>  <r_epik_Ionization_Penalty_Neutral>  (139) 
0.00158799

>  <r_epik_State_Penalty>  (139) 
0.00106791

>  <r_epik_Charging_Adjusted_Penalty>  (139) 
0.00106791

>  <i_epik_Tot_Q>  (139) 
0

>  <i_epik_Tot_abs_Q>  (139) 
0

>  <s_lp_Force_Field>  (139) 
OPLS3e

>  <r_lp_Energy>  (139) 
210.77

>  <b_lp_Chiralities_Consistent>  (139) 
1

>  <s_lp_Variant>  (139) 
44:0-1

>  <s_i_glide_gridfile>  (139) 
pfpi4k_grid

>  <i_i_glide_lignum>  (139) 
22

>  <i_i_glide_rotatable_bonds>  (139) 
8

>  <r_i_docking_score>  (139) 
-1.94937

>  <r_i_glide_ligand_efficiency>  (139) 
-0.0556963

>  <r_i_glide_ligand_efficiency_sa>  (139) 
-0.182186

>  <r_i_glide_ligand_efficiency_ln>  (139) 
-0.42793

>  <r_i_glide_gscore>  (139) 
-1.94937

>  <r_i_glide_lipo>  (139) 
-0.176188

>  <r_i_glide_hbond>  (139) 
0

>  <r_i_glide_metal>  (139) 
-0

>  <r_i_glide_rewards>  (139) 
-0.173557

>  <r_i_glide_evdw>  (139) 
-25.2253

>  <r_i_glide_ecoul>  (139) 
-4.6049

>  <r_i_glide_erotb>  (139) 
0.359439

>  <r_i_glide_esite>  (139) 
-0.00706531

>  <r_i_glide_emodel>  (139) 
-28.6771

>  <r_i_glide_energy>  (139) 
-29.8302

>  <r_i_glide_einternal>  (139) 
5.75053

>  <r_i_glide_intrahb_reward>  (139) 
-0

>  <i_i_glide_confnum>  (139) 
3

>  <i_i_glide_posenum>  (139) 
15

>  <r_i_glide_eff_state_penalty>  (139) 
0

>  <ligand_id>  (139) 
44

>  <original_smiles>  (139) 
COC1CC(OC)(C(=O)C2Oc3c(O)ccc4c3C23CC2C5C(C4)C3(O)C25)C1Cc1ccccc1

>  <smiles>  (139) 
[H]Oc1c([H])c([H])c2c3c1OC([H])(C(=O)C1(OC([H])([H])[H])C([H])([H])C([H])(OC([H])([H])[H])C1([H])C([H])([H])c1c([H])c([H])c([H])c([H])c1[H])C31C([H])([H])C3([H])C4([H])C([H])(C2([H])[H])C1(O[H])C34[H]

$$$$
45:0:0
     RDKit          3D

 24 25  0  0  1  0  0  0  0  0999 V2000
    7.0349   -3.9635    0.1354 C   0  0  0  0  0  0  0  0  0  0  0  0
    5.8604   -3.7362   -0.8282 C   0  0  2  0  0  0  0  0  0  0  0  0
    6.1286   -2.5796   -1.8187 C   0  0  0  0  0  0  0  0  0  0  0  0
    4.9499   -2.2250   -2.5959 N   0  0  0  0  0  0  0  0  0  0  0  0
    4.0668   -3.0565   -3.2500 C   0  0  0  0  0  0  0  0  0  0  0  0
    3.0806   -2.2745   -3.7783 C   0  0  0  0  0  0  0  0  0  0  0  0
    3.4676   -0.9525   -3.4116 C   0  0  0  0  0  0  0  0  0  0  0  0
    4.5990   -0.9281   -2.7244 N   0  0  0  0  0  0  0  0  0  0  0  0
    4.6233   -3.5488   -0.0856 N   0  0  0  0  0  0  0  0  0  0  0  0
    3.6024   -4.3830    0.0969 C   0  0  0  0  0  0  0  0  0  0  0  0
    2.6162   -3.8689    0.8136 N   0  0  0  0  0  0  0  0  0  0  0  0
    3.1183   -2.6172    1.0383 C   0  0  0  0  0  0  0  0  0  0  0  0
    4.3432   -2.3929    0.5627 N   0  0  0  0  0  0  0  0  0  0  0  0
    7.9536   -4.1973   -0.4025 H   0  0  0  0  0  0  0  0  0  0  0  0
    6.8245   -4.7947    0.8098 H   0  0  0  0  0  0  0  0  0  0  0  0
    7.2172   -3.0806    0.7495 H   0  0  0  0  0  0  0  0  0  0  0  0
    5.7311   -4.6453   -1.4142 H   0  0  0  0  0  0  0  0  0  0  0  0
    6.4623   -1.7026   -1.2630 H   0  0  0  0  0  0  0  0  0  0  0  0
    6.9280   -2.8471   -2.5124 H   0  0  0  0  0  0  0  0  0  0  0  0
    4.1869   -4.1289   -3.2480 H   0  0  0  0  0  0  0  0  0  0  0  0
    2.2066   -2.6113   -4.3211 H   0  0  0  0  0  0  0  0  0  0  0  0
    2.9640   -0.0176   -3.6123 H   0  0  0  0  0  0  0  0  0  0  0  0
    3.5729   -5.3799   -0.3145 H   0  0  0  0  0  0  0  0  0  0  0  0
    2.5804   -1.8586    1.5854 H   0  0  0  0  0  0  0  0  0  0  0  0
  1  2  1  0
  1 14  1  0
  1 15  1  0
  1 16  1  0
  2  3  1  0
  2  9  1  0
  2 17  1  6
  3  4  1  0
  3 18  1  0
  3 19  1  0
  4  8  1  0
  4  5  1  0
  5  6  2  0
  5 20  1  0
  6  7  1  0
  6 21  1  0
  7  8  2  0
  7 22  1  0
  9 13  1  0
  9 10  1  0
 10 11  2  0
 10 23  1  0
 11 12  1  0
 12 13  2  0
 12 24  1  0
M  END
>  <i_m_ct_stereo_status>  (140) 
1

>  <s_m_source_file>  (140) 
/var/tmp/pbs.5076255.sched01/tmpniar21pp/41tndis9zi.sdf

>  <i_m_source_file_index>  (140) 
23

>  <i_lp_mmshare_version>  (140) 
48012

>  <i_f3d_flags>  (140) 
0

>  <s_epik_input>  (140) 
bjFbY0hdbltjSF1uMVtDQEhdKFtDSDNdKVtDSDJdbjJbY0hdW2NIXVtjSF1uMg==

>  <s_epik_cmdline>  (140) 
J2VwaWtfcHl0aG9uJywgJy1waHQnLCAnMi4wJywgJy1waCcsICc3LjAnLCAnLXRuJywgJzgnLCAnLW1hJywgJzIwMCcsICctaW1hZScsICc8aW5maWxlLm1hZT4nLCAnLW9tYWUnLCAnPG91dGZpbGUubWFlPic=

>  <r_lp_tautomer_probability>  (140) 
1

>  <r_epik_Ionization_Penalty>  (140) 
2.21304e-05

>  <r_epik_Ionization_Penalty_Charging>  (140) 
0

>  <r_epik_Ionization_Penalty_Neutral>  (140) 
2.21304e-05

>  <r_epik_State_Penalty>  (140) 
-0

>  <r_epik_Charging_Adjusted_Penalty>  (140) 
0

>  <i_epik_Tot_Q>  (140) 
0

>  <i_epik_Tot_abs_Q>  (140) 
0

>  <s_lp_Force_Field>  (140) 
OPLS3e

>  <r_lp_Energy>  (140) 
5.60778

>  <b_lp_Chiralities_Consistent>  (140) 
1

>  <s_lp_Variant>  (140) 
45:0-1

>  <s_i_glide_gridfile>  (140) 
pfpi4k_grid

>  <i_i_glide_lignum>  (140) 
23

>  <i_i_glide_rotatable_bonds>  (140) 
3

>  <r_i_docking_score>  (140) 
-2.99135

>  <r_i_glide_ligand_efficiency>  (140) 
-0.230104

>  <r_i_glide_ligand_efficiency_sa>  (140) 
-0.541052

>  <r_i_glide_ligand_efficiency_ln>  (140) 
-0.839101

>  <r_i_glide_gscore>  (140) 
-2.99135

>  <r_i_glide_lipo>  (140) 
-0.639365

>  <r_i_glide_hbond>  (140) 
0

>  <r_i_glide_metal>  (140) 
-0

>  <r_i_glide_rewards>  (140) 
-2.4196

>  <r_i_glide_evdw>  (140) 
-20.6112

>  <r_i_glide_ecoul>  (140) 
-2.42423

>  <r_i_glide_erotb>  (140) 
1.49625

>  <r_i_glide_esite>  (140) 
-0.0344432

>  <r_i_glide_emodel>  (140) 
-26.0417

>  <r_i_glide_energy>  (140) 
-23.0354

>  <r_i_glide_einternal>  (140) 
2.84193

>  <r_i_glide_intrahb_reward>  (140) 
-0

>  <i_i_glide_confnum>  (140) 
2

>  <i_i_glide_posenum>  (140) 
1

>  <r_i_glide_eff_state_penalty>  (140) 
0

>  <ligand_id>  (140) 
45

>  <original_smiles>  (140) 
CC(Cn1cccn1)n1cncn1

>  <smiles>  (140) 
[H]c1nc([H])n(C([H])(C([H])([H])[H])C([H])([H])n2nc([H])c([H])c2[H])n1

$$$$
45:0:1
     RDKit          3D

 24 25  0  0  1  0  0  0  0  0999 V2000
    6.2257   -3.0589   -1.4443 C   0  0  0  0  0  0  0  0  0  0  0  0
    4.9652   -3.9459   -1.2998 C   0  0  2  0  0  0  0  0  0  0  0  0
    3.6331   -3.1561   -1.2888 C   0  0  0  0  0  0  0  0  0  0  0  0
    3.5200   -2.1682   -2.3500 N   0  0  0  0  0  0  0  0  0  0  0  0
    2.7925   -2.2276   -3.5199 C   0  0  0  0  0  0  0  0  0  0  0  0
    3.0097   -1.0530   -4.1872 C   0  0  0  0  0  0  0  0  0  0  0  0
    3.8725   -0.3223   -3.3355 C   0  0  0  0  0  0  0  0  0  0  0  0
    4.1646   -0.9865   -2.2322 N   0  0  0  0  0  0  0  0  0  0  0  0
    5.0523   -4.8052   -0.1226 N   0  0  0  0  0  0  0  0  0  0  0  0
    4.6603   -6.0656    0.0779 C   0  0  0  0  0  0  0  0  0  0  0  0
    4.9164   -6.5245    1.2948 N   0  0  0  0  0  0  0  0  0  0  0  0
    5.4856   -5.4089    1.8434 C   0  0  0  0  0  0  0  0  0  0  0  0
    5.5694   -4.3428    1.0448 N   0  0  0  0  0  0  0  0  0  0  0  0
    6.2490   -2.5223   -2.3912 H   0  0  0  0  0  0  0  0  0  0  0  0
    7.1449   -3.6411   -1.3920 H   0  0  0  0  0  0  0  0  0  0  0  0
    6.2569   -2.3216   -0.6439 H   0  0  0  0  0  0  0  0  0  0  0  0
    4.9499   -4.6001   -2.1719 H   0  0  0  0  0  0  0  0  0  0  0  0
    2.7926   -3.8471   -1.3816 H   0  0  0  0  0  0  0  0  0  0  0  0
    3.5015   -2.6434   -0.3333 H   0  0  0  0  0  0  0  0  0  0  0  0
    2.1869   -3.0887   -3.7823 H   0  0  0  0  0  0  0  0  0  0  0  0
    2.5902   -0.7494   -5.1353 H   0  0  0  0  0  0  0  0  0  0  0  0
    4.2960    0.6587   -3.4861 H   0  0  0  0  0  0  0  0  0  0  0  0
    4.2113   -6.6622   -0.7029 H   0  0  0  0  0  0  0  0  0  0  0  0
    5.8420   -5.3916    2.8602 H   0  0  0  0  0  0  0  0  0  0  0  0
  1  2  1  0
  1 14  1  0
  1 15  1  0
  1 16  1  0
  2  3  1  0
  2  9  1  0
  2 17  1  6
  3  4  1  0
  3 18  1  0
  3 19  1  0
  4  8  1  0
  4  5  1  0
  5  6  2  0
  5 20  1  0
  6  7  1  0
  6 21  1  0
  7  8  2  0
  7 22  1  0
  9 13  1  0
  9 10  1  0
 10 11  2  0
 10 23  1  0
 11 12  1  0
 12 13  2  0
 12 24  1  0
M  END
>  <i_m_ct_stereo_status>  (141) 
1

>  <s_m_source_file>  (141) 
/var/tmp/pbs.5076255.sched01/tmpniar21pp/41tndis9zi.sdf

>  <i_m_source_file_index>  (141) 
23

>  <i_lp_mmshare_version>  (141) 
48012

>  <i_f3d_flags>  (141) 
0

>  <s_epik_input>  (141) 
bjFbY0hdbltjSF1uMVtDQEhdKFtDSDNdKVtDSDJdbjJbY0hdW2NIXVtjSF1uMg==

>  <s_epik_cmdline>  (141) 
J2VwaWtfcHl0aG9uJywgJy1waHQnLCAnMi4wJywgJy1waCcsICc3LjAnLCAnLXRuJywgJzgnLCAnLW1hJywgJzIwMCcsICctaW1hZScsICc8aW5maWxlLm1hZT4nLCAnLW9tYWUnLCAnPG91dGZpbGUubWFlPic=

>  <r_lp_tautomer_probability>  (141) 
1

>  <r_epik_Ionization_Penalty>  (141) 
2.21304e-05

>  <r_epik_Ionization_Penalty_Charging>  (141) 
0

>  <r_epik_Ionization_Penalty_Neutral>  (141) 
2.21304e-05

>  <r_epik_State_Penalty>  (141) 
-0

>  <r_epik_Charging_Adjusted_Penalty>  (141) 
0

>  <i_epik_Tot_Q>  (141) 
0

>  <i_epik_Tot_abs_Q>  (141) 
0

>  <s_lp_Force_Field>  (141) 
OPLS3e

>  <r_lp_Energy>  (141) 
5.60778

>  <b_lp_Chiralities_Consistent>  (141) 
1

>  <s_lp_Variant>  (141) 
45:0-1

>  <s_i_glide_gridfile>  (141) 
pfpi4k_grid

>  <i_i_glide_lignum>  (141) 
23

>  <i_i_glide_rotatable_bonds>  (141) 
3

>  <r_i_docking_score>  (141) 
-2.93926

>  <r_i_glide_ligand_efficiency>  (141) 
-0.226097

>  <r_i_glide_ligand_efficiency_sa>  (141) 
-0.531629

>  <r_i_glide_ligand_efficiency_ln>  (141) 
-0.824488

>  <r_i_glide_gscore>  (141) 
-2.93926

>  <r_i_glide_lipo>  (141) 
-0.577381

>  <r_i_glide_hbond>  (141) 
0

>  <r_i_glide_metal>  (141) 
-0

>  <r_i_glide_rewards>  (141) 
-2.37899

>  <r_i_glide_evdw>  (141) 
-20.1527

>  <r_i_glide_ecoul>  (141) 
-2.94411

>  <r_i_glide_erotb>  (141) 
1.49625

>  <r_i_glide_esite>  (141) 
-0.0298805

>  <r_i_glide_emodel>  (141) 
-27.0026

>  <r_i_glide_energy>  (141) 
-23.0968

>  <r_i_glide_einternal>  (141) 
0.640697

>  <r_i_glide_intrahb_reward>  (141) 
-0

>  <i_i_glide_confnum>  (141) 
4

>  <i_i_glide_posenum>  (141) 
22

>  <r_i_glide_eff_state_penalty>  (141) 
0

>  <ligand_id>  (141) 
45

>  <original_smiles>  (141) 
CC(Cn1cccn1)n1cncn1

>  <smiles>  (141) 
[H]c1nc([H])n(C([H])(C([H])([H])[H])C([H])([H])n2nc([H])c([H])c2[H])n1

$$$$
45:0:2
     RDKit          3D

 24 25  0  0  1  0  0  0  0  0999 V2000
    5.8088   -3.4755   -0.4187 C   0  0  0  0  0  0  0  0  0  0  0  0
    4.5546   -4.3233   -0.7111 C   0  0  2  0  0  0  0  0  0  0  0  0
    3.2686   -3.4917   -0.9736 C   0  0  0  0  0  0  0  0  0  0  0  0
    3.3944   -2.5191   -2.0495 N   0  0  0  0  0  0  0  0  0  0  0  0
    2.8286   -2.5381   -3.3073 C   0  0  0  0  0  0  0  0  0  0  0  0
    3.2388   -1.4047   -3.9578 C   0  0  0  0  0  0  0  0  0  0  0  0
    4.0432   -0.7350   -2.9950 C   0  0  0  0  0  0  0  0  0  0  0  0
    4.1134   -1.3932   -1.8537 N   0  0  0  0  0  0  0  0  0  0  0  0
    4.3392   -5.2628    0.3826 N   0  0  0  0  0  0  0  0  0  0  0  0
    3.9504   -5.0602    1.6450 C   0  0  0  0  0  0  0  0  0  0  0  0
    3.9208   -6.1616    2.3805 N   0  0  0  0  0  0  0  0  0  0  0  0
    4.3422   -7.0703    1.4493 C   0  0  0  0  0  0  0  0  0  0  0  0
    4.6072   -6.5847    0.2345 N   0  0  0  0  0  0  0  0  0  0  0  0
    6.0896   -2.8500   -1.2640 H   0  0  0  0  0  0  0  0  0  0  0  0
    6.6691   -4.1028   -0.1825 H   0  0  0  0  0  0  0  0  0  0  0  0
    5.6307   -2.8224    0.4358 H   0  0  0  0  0  0  0  0  0  0  0  0
    4.7605   -4.9015   -1.6141 H   0  0  0  0  0  0  0  0  0  0  0  0
    2.4426   -4.1613   -1.2228 H   0  0  0  0  0  0  0  0  0  0  0  0
    2.9614   -2.9525   -0.0729 H   0  0  0  0  0  0  0  0  0  0  0  0
    2.1865   -3.3482   -3.6343 H   0  0  0  0  0  0  0  0  0  0  0  0
    2.9897   -1.1004   -4.9652 H   0  0  0  0  0  0  0  0  0  0  0  0
    4.5797    0.1958   -3.0911 H   0  0  0  0  0  0  0  0  0  0  0  0
    3.7055   -4.0784    2.0275 H   0  0  0  0  0  0  0  0  0  0  0  0
    4.4562   -8.1151    1.6828 H   0  0  0  0  0  0  0  0  0  0  0  0
  1  2  1  0
  1 14  1  0
  1 15  1  0
  1 16  1  0
  2  3  1  0
  2  9  1  0
  2 17  1  6
  3  4  1  0
  3 18  1  0
  3 19  1  0
  4  8  1  0
  4  5  1  0
  5  6  2  0
  5 20  1  0
  6  7  1  0
  6 21  1  0
  7  8  2  0
  7 22  1  0
  9 13  1  0
  9 10  1  0
 10 11  2  0
 10 23  1  0
 11 12  1  0
 12 13  2  0
 12 24  1  0
M  END
>  <i_m_ct_stereo_status>  (142) 
1

>  <s_m_source_file>  (142) 
/var/tmp/pbs.5076255.sched01/tmpniar21pp/41tndis9zi.sdf

>  <i_m_source_file_index>  (142) 
23

>  <i_lp_mmshare_version>  (142) 
48012

>  <i_f3d_flags>  (142) 
0

>  <s_epik_input>  (142) 
bjFbY0hdbltjSF1uMVtDQEhdKFtDSDNdKVtDSDJdbjJbY0hdW2NIXVtjSF1uMg==

>  <s_epik_cmdline>  (142) 
J2VwaWtfcHl0aG9uJywgJy1waHQnLCAnMi4wJywgJy1waCcsICc3LjAnLCAnLXRuJywgJzgnLCAnLW1hJywgJzIwMCcsICctaW1hZScsICc8aW5maWxlLm1hZT4nLCAnLW9tYWUnLCAnPG91dGZpbGUubWFlPic=

>  <r_lp_tautomer_probability>  (142) 
1

>  <r_epik_Ionization_Penalty>  (142) 
2.21304e-05

>  <r_epik_Ionization_Penalty_Charging>  (142) 
0

>  <r_epik_Ionization_Penalty_Neutral>  (142) 
2.21304e-05

>  <r_epik_State_Penalty>  (142) 
-0

>  <r_epik_Charging_Adjusted_Penalty>  (142) 
0

>  <i_epik_Tot_Q>  (142) 
0

>  <i_epik_Tot_abs_Q>  (142) 
0

>  <s_lp_Force_Field>  (142) 
OPLS3e

>  <r_lp_Energy>  (142) 
5.60778

>  <b_lp_Chiralities_Consistent>  (142) 
1

>  <s_lp_Variant>  (142) 
45:0-1

>  <s_i_glide_gridfile>  (142) 
pfpi4k_grid

>  <i_i_glide_lignum>  (142) 
23

>  <i_i_glide_rotatable_bonds>  (142) 
3

>  <r_i_docking_score>  (142) 
-2.69173

>  <r_i_glide_ligand_efficiency>  (142) 
-0.207056

>  <r_i_glide_ligand_efficiency_sa>  (142) 
-0.486859

>  <r_i_glide_ligand_efficiency_ln>  (142) 
-0.755055

>  <r_i_glide_gscore>  (142) 
-2.69173

>  <r_i_glide_lipo>  (142) 
-0.493073

>  <r_i_glide_hbond>  (142) 
0

>  <r_i_glide_metal>  (142) 
-0

>  <r_i_glide_rewards>  (142) 
-2.40103

>  <r_i_glide_evdw>  (142) 
-19.8991

>  <r_i_glide_ecoul>  (142) 
-1.76461

>  <r_i_glide_erotb>  (142) 
1.49625

>  <r_i_glide_esite>  (142) 
-0.0342337

>  <r_i_glide_emodel>  (142) 
-25.3343

>  <r_i_glide_energy>  (142) 
-21.6637

>  <r_i_glide_einternal>  (142) 
0.515974

>  <r_i_glide_intrahb_reward>  (142) 
-0

>  <i_i_glide_confnum>  (142) 
4

>  <i_i_glide_posenum>  (142) 
33

>  <r_i_glide_eff_state_penalty>  (142) 
0

>  <ligand_id>  (142) 
45

>  <original_smiles>  (142) 
CC(Cn1cccn1)n1cncn1

>  <smiles>  (142) 
[H]c1nc([H])n(C([H])(C([H])([H])[H])C([H])([H])n2nc([H])c([H])c2[H])n1

$$$$
46:0:0
     RDKit          3D

 26 28  0  0  1  0  0  0  0  0999 V2000
   -2.2772    2.5433    2.7166 C   0  0  0  0  0  0  0  0  0  0  0  0
   -1.1916    1.6151    2.9623 N   0  0  0  0  0  0  0  0  0  0  0  0
   -0.9549    0.9134    4.0781 C   0  0  0  0  0  0  0  0  0  0  0  0
    0.1101    0.1234    4.0080 N   0  0  0  0  0  0  0  0  0  0  0  0
    0.6222    0.3414    2.7270 C   0  0  0  0  0  0  0  0  0  0  0  0
    1.7872   -0.3229    2.2360 C   0  0  0  0  0  0  0  0  0  0  0  0
    2.7937   -0.8907    1.8330 C   0  0  0  0  0  0  0  0  0  0  0  0
    3.9943   -1.5566    1.3469 C   0  0  0  0  0  0  0  0  0  0  0  0
    4.7121   -2.4783    2.1531 C   0  0  0  0  0  0  0  0  0  0  0  0
    5.8137   -3.1250    1.7736 N   0  0  0  0  0  0  0  0  0  0  0  0
    6.2626   -2.8724    0.5340 C   0  0  0  0  0  0  0  0  0  0  0  0
    7.3335   -3.3210   -0.1901 C   0  0  0  0  0  0  0  0  0  0  0  0
    7.2344   -2.6746   -1.4420 C   0  0  0  0  0  0  0  0  0  0  0  0
    6.2135   -1.8557   -1.5304 N   0  0  0  0  0  0  0  0  0  0  0  0
    5.5925   -1.9689   -0.3186 N   0  0  0  0  0  0  0  0  0  0  0  0
    4.4644   -1.3117    0.0746 C   0  0  0  0  0  0  0  0  0  0  0  0
   -0.1809    1.2561    2.0803 C   0  0  0  0  0  0  0  0  0  0  0  0
   -2.9191    2.6171    3.5946 H   0  0  0  0  0  0  0  0  0  0  0  0
   -2.8796    2.1871    1.8802 H   0  0  0  0  0  0  0  0  0  0  0  0
   -1.8711    3.5256    2.4766 H   0  0  0  0  0  0  0  0  0  0  0  0
   -1.5812    0.9798    4.9582 H   0  0  0  0  0  0  0  0  0  0  0  0
    4.3632   -2.6960    3.1594 H   0  0  0  0  0  0  0  0  0  0  0  0
    8.0840   -4.0272    0.1251 H   0  0  0  0  0  0  0  0  0  0  0  0
    7.9049   -2.7746   -2.2838 H   0  0  0  0  0  0  0  0  0  0  0  0
    3.9971   -0.6370   -0.6328 H   0  0  0  0  0  0  0  0  0  0  0  0
   -0.1224    1.6599    1.0770 H   0  0  0  0  0  0  0  0  0  0  0  0
  1  2  1  0
  1 18  1  0
  1 19  1  0
  1 20  1  0
  2 17  1  0
  2  3  1  0
  3  4  2  0
  3 21  1  0
  4  5  1  0
  5  6  1  0
  5 17  2  0
  6  7  3  0
  7  8  1  0
  8 16  2  0
  8  9  1  0
  9 10  2  0
  9 22  1  0
 10 11  1  0
 11 15  1  0
 11 12  2  0
 12 13  1  0
 12 23  1  0
 13 14  2  0
 13 24  1  0
 14 15  1  0
 15 16  1  0
 16 25  1  0
 17 26  1  0
M  END
>  <i_m_ct_stereo_status>  (143) 
1

>  <s_m_source_file>  (143) 
/var/tmp/pbs.5076255.sched01/tmpniar21pp/41tndis9zi.sdf

>  <i_m_source_file_index>  (143) 
24

>  <i_lp_mmshare_version>  (143) 
48012

>  <i_f3d_flags>  (143) 
0

>  <s_epik_input>  (143) 
W0NIM11uMVtjSF1uYyhbY0hdMSlDI0NjKFtjSF1uMilbY0hdbihjMjMpbltjSF1bY0hdMw==

>  <s_epik_cmdline>  (143) 
J2VwaWtfcHl0aG9uJywgJy1waHQnLCAnMi4wJywgJy1waCcsICc3LjAnLCAnLXRuJywgJzgnLCAnLW1hJywgJzIwMCcsICctaW1hZScsICc8aW5maWxlLm1hZT4nLCAnLW9tYWUnLCAnPG91dGZpbGUubWFlPic=

>  <r_epik_Ionization_Penalty>  (143) 
0.0127573

>  <r_epik_Ionization_Penalty_Charging>  (143) 
0.0127572

>  <r_epik_Ionization_Penalty_Neutral>  (143) 
6.3733e-09

>  <r_epik_State_Penalty>  (143) 
0.00989252

>  <r_epik_Charging_Adjusted_Penalty>  (143) 
0.0226498

>  <i_epik_Tot_Q>  (143) 
0

>  <i_epik_Tot_abs_Q>  (143) 
0

>  <s_lp_Force_Field>  (143) 
OPLS3e

>  <r_lp_Energy>  (143) 
13.5099

>  <b_lp_Chiralities_Consistent>  (143) 
1

>  <s_lp_Variant>  (143) 
46:0-1

>  <s_i_glide_gridfile>  (143) 
pfpi4k_grid

>  <i_i_glide_lignum>  (143) 
24

>  <i_i_glide_rotatable_bonds>  (143) 
2

>  <r_i_docking_score>  (143) 
-3.26922

>  <r_i_glide_ligand_efficiency>  (143) 
-0.192307

>  <r_i_glide_ligand_efficiency_sa>  (143) 
-0.494475

>  <r_i_glide_ligand_efficiency_ln>  (143) 
-0.852866

>  <r_i_glide_gscore>  (143) 
-3.26922

>  <r_i_glide_lipo>  (143) 
-0.203051

>  <r_i_glide_hbond>  (143) 
-0.14334

>  <r_i_glide_metal>  (143) 
-0

>  <r_i_glide_rewards>  (143) 
-1.99427

>  <r_i_glide_evdw>  (143) 
-22.2954

>  <r_i_glide_ecoul>  (143) 
-2.80041

>  <r_i_glide_erotb>  (143) 
0.67908

>  <r_i_glide_esite>  (143) 
-0.0727997

>  <r_i_glide_emodel>  (143) 
-31.5091

>  <r_i_glide_energy>  (143) 
-25.0958

>  <r_i_glide_einternal>  (143) 
-0.540543

>  <r_i_glide_intrahb_reward>  (143) 
-0

>  <i_i_glide_confnum>  (143) 
1

>  <i_i_glide_posenum>  (143) 
1

>  <r_i_glide_eff_state_penalty>  (143) 
0

>  <ligand_id>  (143) 
46

>  <original_smiles>  (143) 
Cn1cnc(C#Cc2cnc3ccnn3c2)c1

>  <smiles>  (143) 
[H]c1nc2c([H])c([H])nn2c([H])c1C#Cc1nc([H])n(C([H])([H])[H])c1[H]

$$$$
46:0:1
     RDKit          3D

 26 28  0  0  1  0  0  0  0  0999 V2000
   -2.4074    2.8346    3.3083 C   0  0  0  0  0  0  0  0  0  0  0  0
   -1.3847    1.8090    3.3050 N   0  0  0  0  0  0  0  0  0  0  0  0
   -1.2868    0.7461    4.1134 C   0  0  0  0  0  0  0  0  0  0  0  0
   -0.2414   -0.0328    3.8678 N   0  0  0  0  0  0  0  0  0  0  0  0
    0.4060    0.5840    2.7948 C   0  0  0  0  0  0  0  0  0  0  0  0
    1.5981    0.0619    2.2056 C   0  0  0  0  0  0  0  0  0  0  0  0
    2.6263   -0.3869    1.7170 C   0  0  0  0  0  0  0  0  0  0  0  0
    3.8499   -0.9166    1.1290 C   0  0  0  0  0  0  0  0  0  0  0  0
    5.0572   -0.9841    1.8721 C   0  0  0  0  0  0  0  0  0  0  0  0
    6.2128   -1.4509    1.4001 N   0  0  0  0  0  0  0  0  0  0  0  0
    6.2185   -1.8755    0.1266 C   0  0  0  0  0  0  0  0  0  0  0  0
    7.1915   -2.3874   -0.6894 C   0  0  0  0  0  0  0  0  0  0  0  0
    6.5381   -2.6578   -1.9162 C   0  0  0  0  0  0  0  0  0  0  0  0
    5.2728   -2.3040   -1.9327 N   0  0  0  0  0  0  0  0  0  0  0  0
    5.0482   -1.8328   -0.6656 N   0  0  0  0  0  0  0  0  0  0  0  0
    3.8688   -1.3653   -0.1727 C   0  0  0  0  0  0  0  0  0  0  0  0
   -0.2918    1.7210    2.4512 C   0  0  0  0  0  0  0  0  0  0  0  0
   -3.1395    2.6360    4.0921 H   0  0  0  0  0  0  0  0  0  0  0  0
   -2.9186    2.8480    2.3455 H   0  0  0  0  0  0  0  0  0  0  0  0
   -1.9494    3.8086    3.4813 H   0  0  0  0  0  0  0  0  0  0  0  0
   -2.0086    0.5382    4.8920 H   0  0  0  0  0  0  0  0  0  0  0  0
    5.0745   -0.6346    2.9016 H   0  0  0  0  0  0  0  0  0  0  0  0
    8.2232   -2.5864   -0.4414 H   0  0  0  0  0  0  0  0  0  0  0  0
    6.9793   -3.0861   -2.8027 H   0  0  0  0  0  0  0  0  0  0  0  0
    3.0108   -1.3618   -0.8362 H   0  0  0  0  0  0  0  0  0  0  0  0
   -0.1077    2.4550    1.6799 H   0  0  0  0  0  0  0  0  0  0  0  0
  1  2  1  0
  1 18  1  0
  1 19  1  0
  1 20  1  0
  2 17  1  0
  2  3  1  0
  3  4  2  0
  3 21  1  0
  4  5  1  0
  5  6  1  0
  5 17  2  0
  6  7  3  0
  7  8  1  0
  8 16  2  0
  8  9  1  0
  9 10  2  0
  9 22  1  0
 10 11  1  0
 11 15  1  0
 11 12  2  0
 12 13  1  0
 12 23  1  0
 13 14  2  0
 13 24  1  0
 14 15  1  0
 15 16  1  0
 16 25  1  0
 17 26  1  0
M  END
>  <i_m_ct_stereo_status>  (144) 
1

>  <s_m_source_file>  (144) 
/var/tmp/pbs.5076255.sched01/tmpniar21pp/41tndis9zi.sdf

>  <i_m_source_file_index>  (144) 
24

>  <i_lp_mmshare_version>  (144) 
48012

>  <i_f3d_flags>  (144) 
0

>  <s_epik_input>  (144) 
W0NIM11uMVtjSF1uYyhbY0hdMSlDI0NjKFtjSF1uMilbY0hdbihjMjMpbltjSF1bY0hdMw==

>  <s_epik_cmdline>  (144) 
J2VwaWtfcHl0aG9uJywgJy1waHQnLCAnMi4wJywgJy1waCcsICc3LjAnLCAnLXRuJywgJzgnLCAnLW1hJywgJzIwMCcsICctaW1hZScsICc8aW5maWxlLm1hZT4nLCAnLW9tYWUnLCAnPG91dGZpbGUubWFlPic=

>  <r_epik_Ionization_Penalty>  (144) 
0.0127573

>  <r_epik_Ionization_Penalty_Charging>  (144) 
0.0127572

>  <r_epik_Ionization_Penalty_Neutral>  (144) 
6.3733e-09

>  <r_epik_State_Penalty>  (144) 
0.00989252

>  <r_epik_Charging_Adjusted_Penalty>  (144) 
0.0226498

>  <i_epik_Tot_Q>  (144) 
0

>  <i_epik_Tot_abs_Q>  (144) 
0

>  <s_lp_Force_Field>  (144) 
OPLS3e

>  <r_lp_Energy>  (144) 
13.5099

>  <b_lp_Chiralities_Consistent>  (144) 
1

>  <s_lp_Variant>  (144) 
46:0-1

>  <s_i_glide_gridfile>  (144) 
pfpi4k_grid

>  <i_i_glide_lignum>  (144) 
24

>  <i_i_glide_rotatable_bonds>  (144) 
2

>  <r_i_docking_score>  (144) 
-3.01546

>  <r_i_glide_ligand_efficiency>  (144) 
-0.17738

>  <r_i_glide_ligand_efficiency_sa>  (144) 
-0.456094

>  <r_i_glide_ligand_efficiency_ln>  (144) 
-0.786667

>  <r_i_glide_gscore>  (144) 
-3.01546

>  <r_i_glide_lipo>  (144) 
-0.116084

>  <r_i_glide_hbond>  (144) 
0

>  <r_i_glide_metal>  (144) 
-0

>  <r_i_glide_rewards>  (144) 
-1.90018

>  <r_i_glide_evdw>  (144) 
-24.8295

>  <r_i_glide_ecoul>  (144) 
-2.33692

>  <r_i_glide_erotb>  (144) 
0.67908

>  <r_i_glide_esite>  (144) 
-0.0862599

>  <r_i_glide_emodel>  (144) 
-33.1023

>  <r_i_glide_energy>  (144) 
-27.1664

>  <r_i_glide_einternal>  (144) 
-0.540963

>  <r_i_glide_intrahb_reward>  (144) 
-0

>  <i_i_glide_confnum>  (144) 
1

>  <i_i_glide_posenum>  (144) 
34

>  <r_i_glide_eff_state_penalty>  (144) 
0

>  <ligand_id>  (144) 
46

>  <original_smiles>  (144) 
Cn1cnc(C#Cc2cnc3ccnn3c2)c1

>  <smiles>  (144) 
[H]c1nc2c([H])c([H])nn2c([H])c1C#Cc1nc([H])n(C([H])([H])[H])c1[H]

$$$$
46:0:2
     RDKit          3D

 26 28  0  0  1  0  0  0  0  0999 V2000
    5.2597   -3.4170   -3.0229 C   0  0  0  0  0  0  0  0  0  0  0  0
    5.1511   -2.5724   -1.8503 N   0  0  0  0  0  0  0  0  0  0  0  0
    6.1177   -2.2760   -0.9725 C   0  0  0  0  0  0  0  0  0  0  0  0
    5.7367   -1.4554   -0.0028 N   0  0  0  0  0  0  0  0  0  0  0  0
    4.3825   -1.2236   -0.2531 C   0  0  0  0  0  0  0  0  0  0  0  0
    3.5778   -0.4043    0.5936 C   0  0  0  0  0  0  0  0  0  0  0  0
    2.8786    0.3011    1.3089 C   0  0  0  0  0  0  0  0  0  0  0  0
    2.0363    1.1352    2.1600 C   0  0  0  0  0  0  0  0  0  0  0  0
    2.5947    1.9683    3.1640 C   0  0  0  0  0  0  0  0  0  0  0  0
    1.8908    2.7504    3.9826 N   0  0  0  0  0  0  0  0  0  0  0  0
    0.5571    2.7462    3.8248 C   0  0  0  0  0  0  0  0  0  0  0  0
   -0.4706    3.3908    4.4653 C   0  0  0  0  0  0  0  0  0  0  0  0
   -1.6451    2.9319    3.8198 C   0  0  0  0  0  0  0  0  0  0  0  0
   -1.4231    2.0508    2.8729 N   0  0  0  0  0  0  0  0  0  0  0  0
   -0.0605    1.9341    2.8461 N   0  0  0  0  0  0  0  0  0  0  0  0
    0.6670    1.1391    2.0116 C   0  0  0  0  0  0  0  0  0  0  0  0
    4.0188   -1.9038   -1.3977 C   0  0  0  0  0  0  0  0  0  0  0  0
    6.2765   -3.8004   -3.1190 H   0  0  0  0  0  0  0  0  0  0  0  0
    5.0085   -2.8420   -3.9137 H   0  0  0  0  0  0  0  0  0  0  0  0
    4.5708   -4.2565   -2.9358 H   0  0  0  0  0  0  0  0  0  0  0  0
    7.1282   -2.6569   -1.0543 H   0  0  0  0  0  0  0  0  0  0  0  0
    3.6709    1.9866    3.3056 H   0  0  0  0  0  0  0  0  0  0  0  0
   -0.3932    4.0914    5.2789 H   0  0  0  0  0  0  0  0  0  0  0  0
   -2.6652    3.2159    4.0387 H   0  0  0  0  0  0  0  0  0  0  0  0
    0.1294    0.5520    1.2738 H   0  0  0  0  0  0  0  0  0  0  0  0
    3.0635   -1.9639   -1.9051 H   0  0  0  0  0  0  0  0  0  0  0  0
  1  2  1  0
  1 18  1  0
  1 19  1  0
  1 20  1  0
  2 17  1  0
  2  3  1  0
  3  4  2  0
  3 21  1  0
  4  5  1  0
  5  6  1  0
  5 17  2  0
  6  7  3  0
  7  8  1  0
  8 16  2  0
  8  9  1  0
  9 10  2  0
  9 22  1  0
 10 11  1  0
 11 15  1  0
 11 12  2  0
 12 13  1  0
 12 23  1  0
 13 14  2  0
 13 24  1  0
 14 15  1  0
 15 16  1  0
 16 25  1  0
 17 26  1  0
M  END
>  <i_m_ct_stereo_status>  (145) 
1

>  <s_m_source_file>  (145) 
/var/tmp/pbs.5076255.sched01/tmpniar21pp/41tndis9zi.sdf

>  <i_m_source_file_index>  (145) 
24

>  <i_lp_mmshare_version>  (145) 
48012

>  <i_f3d_flags>  (145) 
0

>  <s_epik_input>  (145) 
W0NIM11uMVtjSF1uYyhbY0hdMSlDI0NjKFtjSF1uMilbY0hdbihjMjMpbltjSF1bY0hdMw==

>  <s_epik_cmdline>  (145) 
J2VwaWtfcHl0aG9uJywgJy1waHQnLCAnMi4wJywgJy1waCcsICc3LjAnLCAnLXRuJywgJzgnLCAnLW1hJywgJzIwMCcsICctaW1hZScsICc8aW5maWxlLm1hZT4nLCAnLW9tYWUnLCAnPG91dGZpbGUubWFlPic=

>  <r_epik_Ionization_Penalty>  (145) 
0.0127573

>  <r_epik_Ionization_Penalty_Charging>  (145) 
0.0127572

>  <r_epik_Ionization_Penalty_Neutral>  (145) 
6.3733e-09

>  <r_epik_State_Penalty>  (145) 
0.00989252

>  <r_epik_Charging_Adjusted_Penalty>  (145) 
0.0226498

>  <i_epik_Tot_Q>  (145) 
0

>  <i_epik_Tot_abs_Q>  (145) 
0

>  <s_lp_Force_Field>  (145) 
OPLS3e

>  <r_lp_Energy>  (145) 
13.5099

>  <b_lp_Chiralities_Consistent>  (145) 
1

>  <s_lp_Variant>  (145) 
46:0-1

>  <s_i_glide_gridfile>  (145) 
pfpi4k_grid

>  <i_i_glide_lignum>  (145) 
24

>  <i_i_glide_rotatable_bonds>  (145) 
2

>  <r_i_docking_score>  (145) 
-2.99532

>  <r_i_glide_ligand_efficiency>  (145) 
-0.176195

>  <r_i_glide_ligand_efficiency_sa>  (145) 
-0.453047

>  <r_i_glide_ligand_efficiency_ln>  (145) 
-0.781412

>  <r_i_glide_gscore>  (145) 
-2.99532

>  <r_i_glide_lipo>  (145) 
-0.227499

>  <r_i_glide_hbond>  (145) 
0

>  <r_i_glide_metal>  (145) 
-0

>  <r_i_glide_rewards>  (145) 
-1.90297

>  <r_i_glide_evdw>  (145) 
-25.345

>  <r_i_glide_ecoul>  (145) 
-0.839347

>  <r_i_glide_erotb>  (145) 
0.67908

>  <r_i_glide_esite>  (145) 
-0.150776

>  <r_i_glide_emodel>  (145) 
-32.0767

>  <r_i_glide_energy>  (145) 
-26.1843

>  <r_i_glide_einternal>  (145) 
-0.540971

>  <r_i_glide_intrahb_reward>  (145) 
-0

>  <i_i_glide_confnum>  (145) 
1

>  <i_i_glide_posenum>  (145) 
3

>  <r_i_glide_eff_state_penalty>  (145) 
0

>  <ligand_id>  (145) 
46

>  <original_smiles>  (145) 
Cn1cnc(C#Cc2cnc3ccnn3c2)c1

>  <smiles>  (145) 
[H]c1nc2c([H])c([H])nn2c([H])c1C#Cc1nc([H])n(C([H])([H])[H])c1[H]

$$$$
46:1:0
     RDKit          3D

 27 29  0  0  1  0  0  0  0  0999 V2000
   -0.1308    3.0332    4.1514 C   0  0  0  0  0  0  0  0  0  0  0  0
    0.4846    2.1071    3.1992 N   0  0  0  0  0  0  0  0  0  0  0  0
   -0.1496    1.6626    2.1015 C   0  0  0  0  0  0  0  0  0  0  0  0
    0.6956    0.8495    1.4628 N   0  0  0  0  0  0  0  0  0  0  0  0
    1.8677    0.7793    2.1570 C   0  0  0  0  0  0  0  0  0  0  0  0
    3.0206   -0.0237    1.7565 C   0  0  0  0  0  0  0  0  0  0  0  0
    3.9568   -0.7207    1.3855 C   0  0  0  0  0  0  0  0  0  0  0  0
    5.0583   -1.5524    0.9093 C   0  0  0  0  0  0  0  0  0  0  0  0
    5.8067   -1.1857   -0.2380 C   0  0  0  0  0  0  0  0  0  0  0  0
    6.8489   -1.8647   -0.7168 N   0  0  0  0  0  0  0  0  0  0  0  0
    7.2004   -2.9844   -0.0616 C   0  0  0  0  0  0  0  0  0  0  0  0
    8.1942   -3.9081   -0.2484 C   0  0  0  0  0  0  0  0  0  0  0  0
    8.0000   -4.8663    0.7834 C   0  0  0  0  0  0  0  0  0  0  0  0
    6.9750   -4.5980    1.5636 N   0  0  0  0  0  0  0  0  0  0  0  0
    6.4779   -3.4231    1.0676 N   0  0  0  0  0  0  0  0  0  0  0  0
    5.4187   -2.7128    1.5583 C   0  0  0  0  0  0  0  0  0  0  0  0
    1.7480    1.5728    3.2668 C   0  0  0  0  0  0  0  0  0  0  0  0
   -1.1467    3.2992    3.8430 H   0  0  0  0  0  0  0  0  0  0  0  0
    0.4773    3.9367    4.2091 H   0  0  0  0  0  0  0  0  0  0  0  0
   -0.1563    2.5622    5.1352 H   0  0  0  0  0  0  0  0  0  0  0  0
   -1.1373    1.9209    1.7777 H   0  0  0  0  0  0  0  0  0  0  0  0
    5.5548   -0.2805   -0.7799 H   0  0  0  0  0  0  0  0  0  0  0  0
    8.9307   -3.9034   -1.0397 H   0  0  0  0  0  0  0  0  0  0  0  0
    8.5716   -5.7712    0.9668 H   0  0  0  0  0  0  0  0  0  0  0  0
    4.9245   -3.1040    2.4369 H   0  0  0  0  0  0  0  0  0  0  0  0
    2.4470    1.7923    4.0652 H   0  0  0  0  0  0  0  0  0  0  0  0
    0.4897    0.3682    0.5822 H   0  0  0  0  0  0  0  0  0  0  0  0
  1  2  1  0
  1 18  1  0
  1 19  1  0
  1 20  1  0
  2 17  1  0
  2  3  1  0
  3  4  2  0
  3 21  1  0
  4  5  1  0
  4 27  1  0
  5  6  1  0
  5 17  2  0
  6  7  3  0
  7  8  1  0
  8 16  2  0
  8  9  1  0
  9 10  2  0
  9 22  1  0
 10 11  1  0
 11 15  1  0
 11 12  2  0
 12 13  1  0
 12 23  1  0
 13 14  2  0
 13 24  1  0
 14 15  1  0
 15 16  1  0
 16 25  1  0
 17 26  1  0
M  CHG  1   4   1
M  END
>  <i_m_ct_stereo_status>  (146) 
1

>  <s_m_source_file>  (146) 
/var/tmp/pbs.5076255.sched01/tmpniar21pp/41tndis9zi.sdf

>  <i_m_source_file_index>  (146) 
25

>  <i_lp_mmshare_version>  (146) 
48012

>  <i_f3d_flags>  (146) 
0

>  <s_epik_input>  (146) 
W0NIM11uMVtjSF1uYyhbY0hdMSlDI0NjKFtjSF1uMilbY0hdbihjMjMpbltjSF1bY0hdMw==

>  <s_epik_cmdline>  (146) 
J2VwaWtfcHl0aG9uJywgJy1waHQnLCAnMi4wJywgJy1waCcsICc3LjAnLCAnLXRuJywgJzgnLCAnLW1hJywgJzIwMCcsICctaW1hZScsICc8aW5maWxlLm1hZT4nLCAnLW9tYWUnLCAnPG91dGZpbGUubWFlPic=

>  <r_epik_Ionization_Penalty>  (146) 
2.28046

>  <r_epik_Ionization_Penalty_Charging>  (146) 
0

>  <r_epik_Ionization_Penalty_Neutral>  (146) 
2.28046

>  <r_epik_State_Penalty>  (146) 
2.42972

>  <r_epik_Charging_Adjusted_Penalty>  (146) 
2.42972

>  <i_epik_Tot_Q>  (146) 
1

>  <i_epik_Tot_abs_Q>  (146) 
1

>  <s_lp_Force_Field>  (146) 
OPLS3e

>  <r_lp_Energy>  (146) 
15.3907

>  <b_lp_Chiralities_Consistent>  (146) 
1

>  <s_lp_Variant>  (146) 
46:0-2

>  <s_i_glide_gridfile>  (146) 
pfpi4k_grid

>  <i_i_glide_lignum>  (146) 
25

>  <i_i_glide_rotatable_bonds>  (146) 
2

>  <r_i_docking_score>  (146) 
-4.65686

>  <r_i_glide_ligand_efficiency>  (146) 
-0.273933

>  <r_i_glide_ligand_efficiency_sa>  (146) 
-0.704359

>  <r_i_glide_ligand_efficiency_ln>  (146) 
-1.21487

>  <r_i_glide_gscore>  (146) 
-4.65686

>  <r_i_glide_lipo>  (146) 
-0.418264

>  <r_i_glide_hbond>  (146) 
-0.484398

>  <r_i_glide_metal>  (146) 
-0

>  <r_i_glide_rewards>  (146) 
-2.12754

>  <r_i_glide_evdw>  (146) 
-17.7007

>  <r_i_glide_ecoul>  (146) 
-7.95844

>  <r_i_glide_erotb>  (146) 
0.673926

>  <r_i_glide_esite>  (146) 
-0.221785

>  <r_i_glide_emodel>  (146) 
-36.2776

>  <r_i_glide_energy>  (146) 
-25.6591

>  <r_i_glide_einternal>  (146) 
-0.629954

>  <r_i_glide_intrahb_reward>  (146) 
-0

>  <i_i_glide_confnum>  (146) 
2

>  <i_i_glide_posenum>  (146) 
9

>  <r_i_glide_eff_state_penalty>  (146) 
0

>  <ligand_id>  (146) 
46

>  <original_smiles>  (146) 
Cn1cnc(C#Cc2cnc3ccnn3c2)c1

>  <smiles>  (146) 
[H]c1nc2c([H])c([H])nn2c([H])c1C#Cc1c([H])n(C([H])([H])[H])c([H])[n+]1[H]

$$$$
46:1:1
     RDKit          3D

 27 29  0  0  1  0  0  0  0  0999 V2000
    6.5331   -1.6823    0.5022 C   0  0  0  0  0  0  0  0  0  0  0  0
    5.1392   -1.2882    0.7229 N   0  0  0  0  0  0  0  0  0  0  0  0
    4.1492   -1.5322   -0.1564 C   0  0  0  0  0  0  0  0  0  0  0  0
    3.0164   -1.0527    0.3670 N   0  0  0  0  0  0  0  0  0  0  0  0
    3.2941   -0.4880    1.5840 C   0  0  0  0  0  0  0  0  0  0  0  0
    2.3035    0.1587    2.4399 C   0  0  0  0  0  0  0  0  0  0  0  0
    1.4271    0.6793    3.1156 C   0  0  0  0  0  0  0  0  0  0  0  0
    0.3603    1.2947    3.8947 C   0  0  0  0  0  0  0  0  0  0  0  0
   -0.3255    2.4557    3.4402 C   0  0  0  0  0  0  0  0  0  0  0  0
   -1.2890    3.0772    4.1210 N   0  0  0  0  0  0  0  0  0  0  0  0
   -1.6332    2.5570    5.3082 C   0  0  0  0  0  0  0  0  0  0  0  0
   -2.5484    2.9158    6.2614 C   0  0  0  0  0  0  0  0  0  0  0  0
   -2.4045    1.9548    7.2902 C   0  0  0  0  0  0  0  0  0  0  0  0
   -1.5186    1.0178    7.0224 N   0  0  0  0  0  0  0  0  0  0  0  0
   -1.0048    1.3980    5.8081 N   0  0  0  0  0  0  0  0  0  0  0  0
   -0.0089    0.7726    5.1139 C   0  0  0  0  0  0  0  0  0  0  0  0
    4.6361   -0.6391    1.8290 C   0  0  0  0  0  0  0  0  0  0  0  0
    6.6602   -2.1914   -0.4574 H   0  0  0  0  0  0  0  0  0  0  0  0
    6.8491   -2.3534    1.2984 H   0  0  0  0  0  0  0  0  0  0  0  0
    7.1727   -0.8021    0.5358 H   0  0  0  0  0  0  0  0  0  0  0  0
    4.2551   -2.0161   -1.1068 H   0  0  0  0  0  0  0  0  0  0  0  0
   -0.0681    2.9032    2.4829 H   0  0  0  0  0  0  0  0  0  0  0  0
   -3.2271    3.7478    6.2242 H   0  0  0  0  0  0  0  0  0  0  0  0
   -2.9617    1.9146    8.2185 H   0  0  0  0  0  0  0  0  0  0  0  0
    0.4411   -0.1038    5.5726 H   0  0  0  0  0  0  0  0  0  0  0  0
    5.2448   -0.3456    2.6684 H   0  0  0  0  0  0  0  0  0  0  0  0
    2.0857   -1.0536   -0.1082 H   0  0  0  0  0  0  0  0  0  0  0  0
  1  2  1  0
  1 18  1  0
  1 19  1  0
  1 20  1  0
  2 17  1  0
  2  3  1  0
  3  4  2  0
  3 21  1  0
  4  5  1  0
  4 27  1  0
  5  6  1  0
  5 17  2  0
  6  7  3  0
  7  8  1  0
  8 16  2  0
  8  9  1  0
  9 10  2  0
  9 22  1  0
 10 11  1  0
 11 15  1  0
 11 12  2  0
 12 13  1  0
 12 23  1  0
 13 14  2  0
 13 24  1  0
 14 15  1  0
 15 16  1  0
 16 25  1  0
 17 26  1  0
M  CHG  1   4   1
M  END
>  <i_m_ct_stereo_status>  (147) 
1

>  <s_m_source_file>  (147) 
/var/tmp/pbs.5076255.sched01/tmpniar21pp/41tndis9zi.sdf

>  <i_m_source_file_index>  (147) 
25

>  <i_lp_mmshare_version>  (147) 
48012

>  <i_f3d_flags>  (147) 
0

>  <s_epik_input>  (147) 
W0NIM11uMVtjSF1uYyhbY0hdMSlDI0NjKFtjSF1uMilbY0hdbihjMjMpbltjSF1bY0hdMw==

>  <s_epik_cmdline>  (147) 
J2VwaWtfcHl0aG9uJywgJy1waHQnLCAnMi4wJywgJy1waCcsICc3LjAnLCAnLXRuJywgJzgnLCAnLW1hJywgJzIwMCcsICctaW1hZScsICc8aW5maWxlLm1hZT4nLCAnLW9tYWUnLCAnPG91dGZpbGUubWFlPic=

>  <r_epik_Ionization_Penalty>  (147) 
2.28046

>  <r_epik_Ionization_Penalty_Charging>  (147) 
0

>  <r_epik_Ionization_Penalty_Neutral>  (147) 
2.28046

>  <r_epik_State_Penalty>  (147) 
2.42972

>  <r_epik_Charging_Adjusted_Penalty>  (147) 
2.42972

>  <i_epik_Tot_Q>  (147) 
1

>  <i_epik_Tot_abs_Q>  (147) 
1

>  <s_lp_Force_Field>  (147) 
OPLS3e

>  <r_lp_Energy>  (147) 
15.3907

>  <b_lp_Chiralities_Consistent>  (147) 
1

>  <s_lp_Variant>  (147) 
46:0-2

>  <s_i_glide_gridfile>  (147) 
pfpi4k_grid

>  <i_i_glide_lignum>  (147) 
25

>  <i_i_glide_rotatable_bonds>  (147) 
2

>  <r_i_docking_score>  (147) 
-4.40855

>  <r_i_glide_ligand_efficiency>  (147) 
-0.259326

>  <r_i_glide_ligand_efficiency_sa>  (147) 
-0.666801

>  <r_i_glide_ligand_efficiency_ln>  (147) 
-1.15009

>  <r_i_glide_gscore>  (147) 
-4.40855

>  <r_i_glide_lipo>  (147) 
-0.267252

>  <r_i_glide_hbond>  (147) 
-0.327839

>  <r_i_glide_metal>  (147) 
-0

>  <r_i_glide_rewards>  (147) 
-2.02474

>  <r_i_glide_evdw>  (147) 
-18.1834

>  <r_i_glide_ecoul>  (147) 
-9.43699

>  <r_i_glide_erotb>  (147) 
0.673926

>  <r_i_glide_esite>  (147) 
-0.137928

>  <r_i_glide_emodel>  (147) 
-37.6785

>  <r_i_glide_energy>  (147) 
-27.6204

>  <r_i_glide_einternal>  (147) 
-0.624274

>  <r_i_glide_intrahb_reward>  (147) 
-0

>  <i_i_glide_confnum>  (147) 
1

>  <i_i_glide_posenum>  (147) 
3

>  <r_i_glide_eff_state_penalty>  (147) 
0

>  <ligand_id>  (147) 
46

>  <original_smiles>  (147) 
Cn1cnc(C#Cc2cnc3ccnn3c2)c1

>  <smiles>  (147) 
[H]c1nc2c([H])c([H])nn2c([H])c1C#Cc1c([H])n(C([H])([H])[H])c([H])[n+]1[H]

$$$$
46:1:2
     RDKit          3D

 27 29  0  0  1  0  0  0  0  0999 V2000
   -0.9574    1.8426    2.7830 C   0  0  0  0  0  0  0  0  0  0  0  0
    0.4689    1.5879    2.5635 N   0  0  0  0  0  0  0  0  0  0  0  0
    1.4223    2.5001    2.8125 C   0  0  0  0  0  0  0  0  0  0  0  0
    2.5993    1.9440    2.4930 N   0  0  0  0  0  0  0  0  0  0  0  0
    2.3798    0.6745    2.0357 C   0  0  0  0  0  0  0  0  0  0  0  0
    3.4243   -0.2308    1.5681 C   0  0  0  0  0  0  0  0  0  0  0  0
    4.3436   -0.9562    1.2111 C   0  0  0  0  0  0  0  0  0  0  0  0
    5.4514   -1.8021    0.7853 C   0  0  0  0  0  0  0  0  0  0  0  0
    6.1404   -1.5443   -0.4234 C   0  0  0  0  0  0  0  0  0  0  0  0
    7.1707   -2.2550   -0.8829 N   0  0  0  0  0  0  0  0  0  0  0  0
    7.5675   -3.3051   -0.1420 C   0  0  0  0  0  0  0  0  0  0  0  0
    8.5571   -4.2390   -0.2835 C   0  0  0  0  0  0  0  0  0  0  0  0
    8.4140   -5.0976    0.8427 C   0  0  0  0  0  0  0  0  0  0  0  0
    7.4209   -4.7563    1.6367 N   0  0  0  0  0  0  0  0  0  0  0  0
    6.9002   -3.6345    1.0546 N   0  0  0  0  0  0  0  0  0  0  0  0
    5.8578   -2.8894    1.5286 C   0  0  0  0  0  0  0  0  0  0  0  0
    1.0323    0.4354    2.0742 C   0  0  0  0  0  0  0  0  0  0  0  0
   -1.1201    2.8527    3.1753 H   0  0  0  0  0  0  0  0  0  0  0  0
   -1.3444    1.1070    3.4896 H   0  0  0  0  0  0  0  0  0  0  0  0
   -1.4938    1.7272    1.8398 H   0  0  0  0  0  0  0  0  0  0  0  0
    1.2600    3.5005    3.1661 H   0  0  0  0  0  0  0  0  0  0  0  0
    5.8469   -0.7000   -1.0324 H   0  0  0  0  0  0  0  0  0  0  0  0
    9.2433   -4.3006   -1.1178 H   0  0  0  0  0  0  0  0  0  0  0  0
    8.9901   -5.9863    1.0841 H   0  0  0  0  0  0  0  0  0  0  0  0
    5.4102   -3.1920    2.4655 H   0  0  0  0  0  0  0  0  0  0  0  0
    0.4623   -0.4325    1.7650 H   0  0  0  0  0  0  0  0  0  0  0  0
    3.5062    2.4061    2.5355 H   0  0  0  0  0  0  0  0  0  0  0  0
  1  2  1  0
  1 18  1  0
  1 19  1  0
  1 20  1  0
  2 17  1  0
  2  3  1  0
  3  4  2  0
  3 21  1  0
  4  5  1  0
  4 27  1  0
  5  6  1  0
  5 17  2  0
  6  7  3  0
  7  8  1  0
  8 16  2  0
  8  9  1  0
  9 10  2  0
  9 22  1  0
 10 11  1  0
 11 15  1  0
 11 12  2  0
 12 13  1  0
 12 23  1  0
 13 14  2  0
 13 24  1  0
 14 15  1  0
 15 16  1  0
 16 25  1  0
 17 26  1  0
M  CHG  1   4   1
M  END
>  <i_m_ct_stereo_status>  (148) 
1

>  <s_m_source_file>  (148) 
/var/tmp/pbs.5076255.sched01/tmpniar21pp/41tndis9zi.sdf

>  <i_m_source_file_index>  (148) 
25

>  <i_lp_mmshare_version>  (148) 
48012

>  <i_f3d_flags>  (148) 
0

>  <s_epik_input>  (148) 
W0NIM11uMVtjSF1uYyhbY0hdMSlDI0NjKFtjSF1uMilbY0hdbihjMjMpbltjSF1bY0hdMw==

>  <s_epik_cmdline>  (148) 
J2VwaWtfcHl0aG9uJywgJy1waHQnLCAnMi4wJywgJy1waCcsICc3LjAnLCAnLXRuJywgJzgnLCAnLW1hJywgJzIwMCcsICctaW1hZScsICc8aW5maWxlLm1hZT4nLCAnLW9tYWUnLCAnPG91dGZpbGUubWFlPic=

>  <r_epik_Ionization_Penalty>  (148) 
2.28046

>  <r_epik_Ionization_Penalty_Charging>  (148) 
0

>  <r_epik_Ionization_Penalty_Neutral>  (148) 
2.28046

>  <r_epik_State_Penalty>  (148) 
2.42972

>  <r_epik_Charging_Adjusted_Penalty>  (148) 
2.42972

>  <i_epik_Tot_Q>  (148) 
1

>  <i_epik_Tot_abs_Q>  (148) 
1

>  <s_lp_Force_Field>  (148) 
OPLS3e

>  <r_lp_Energy>  (148) 
15.3907

>  <b_lp_Chiralities_Consistent>  (148) 
1

>  <s_lp_Variant>  (148) 
46:0-2

>  <s_i_glide_gridfile>  (148) 
pfpi4k_grid

>  <i_i_glide_lignum>  (148) 
25

>  <i_i_glide_rotatable_bonds>  (148) 
2

>  <r_i_docking_score>  (148) 
-4.37061

>  <r_i_glide_ligand_efficiency>  (148) 
-0.257095

>  <r_i_glide_ligand_efficiency_sa>  (148) 
-0.661062

>  <r_i_glide_ligand_efficiency_ln>  (148) 
-1.14019

>  <r_i_glide_gscore>  (148) 
-4.37061

>  <r_i_glide_lipo>  (148) 
-0.242059

>  <r_i_glide_hbond>  (148) 
-0.16

>  <r_i_glide_metal>  (148) 
-0

>  <r_i_glide_rewards>  (148) 
-2.24174

>  <r_i_glide_evdw>  (148) 
-20.4277

>  <r_i_glide_ecoul>  (148) 
-8.29865

>  <r_i_glide_erotb>  (148) 
0.673926

>  <r_i_glide_esite>  (148) 
-0.13455

>  <r_i_glide_emodel>  (148) 
-38.7253

>  <r_i_glide_energy>  (148) 
-28.7263

>  <r_i_glide_einternal>  (148) 
-0.624269

>  <r_i_glide_intrahb_reward>  (148) 
-0

>  <i_i_glide_confnum>  (148) 
1

>  <i_i_glide_posenum>  (148) 
16

>  <r_i_glide_eff_state_penalty>  (148) 
0

>  <ligand_id>  (148) 
46

>  <original_smiles>  (148) 
Cn1cnc(C#Cc2cnc3ccnn3c2)c1

>  <smiles>  (148) 
[H]c1nc2c([H])c([H])nn2c([H])c1C#Cc1c([H])n(C([H])([H])[H])c([H])[n+]1[H]

$$$$
47:0:0
     RDKit          3D

 32 34  0  0  1  0  0  0  0  0999 V2000
    2.9428   -4.0121    0.2324 C   0  0  0  0  0  0  0  0  0  0  0  0
    4.2769   -4.7520    0.0857 C   0  0  2  0  0  0  0  0  0  0  0  0
    4.4893   -5.5601    1.2491 O   0  0  0  0  0  0  0  0  0  0  0  0
    5.7789   -5.6394    1.6093 C   0  0  0  0  0  0  0  0  0  0  0  0
    6.2597   -6.2092    2.5846 O   0  0  0  0  0  0  0  0  0  0  0  0
    6.5670   -4.9083    0.5514 C   0  0  2  0  0  0  0  0  0  0  0  0
    7.9033   -4.2478    0.8843 C   0  0  0  0  0  0  0  0  0  0  0  0
    8.4600   -3.6251   -0.4207 C   0  0  0  0  0  0  0  0  0  0  0  0
    7.3793   -3.0509   -1.3406 C   0  0  0  0  0  0  0  0  0  0  0  0
    6.0466   -3.1496   -1.1305 C   0  0  0  0  0  0  0  0  0  0  0  0
    5.1256   -2.5427   -2.0937 C   0  0  0  0  0  0  0  0  0  0  0  0
    4.6976   -1.2104   -1.9265 C   0  0  0  0  0  0  0  0  0  0  0  0
    3.8392   -0.6587   -2.8946 C   0  0  0  0  0  0  0  0  0  0  0  0
    3.4139   -1.4728   -3.9562 C   0  0  0  0  0  0  0  0  0  0  0  0
    3.8157   -2.7501   -4.1206 N   0  0  0  0  0  0  0  0  0  0  0  0
    4.6444   -3.2777   -3.1938 C   0  0  0  0  0  0  0  0  0  0  0  0
    5.5504   -3.8777    0.1131 C   0  0  1  0  0  0  0  0  0  0  0  0
    2.6486   -3.5087   -0.6901 H   0  0  0  0  0  0  0  0  0  0  0  0
    2.9687   -3.2736    1.0350 H   0  0  0  0  0  0  0  0  0  0  0  0
    2.1569   -4.7281    0.4799 H   0  0  0  0  0  0  0  0  0  0  0  0
    4.2645   -5.3999   -0.7932 H   0  0  0  0  0  0  0  0  0  0  0  0
    6.7163   -5.6343   -0.2430 H   0  0  0  0  0  0  0  0  0  0  0  0
    7.7383   -3.4646    1.6252 H   0  0  0  0  0  0  0  0  0  0  0  0
    8.6138   -4.9523    1.3241 H   0  0  0  0  0  0  0  0  0  0  0  0
    9.1985   -2.8531   -0.1953 H   0  0  0  0  0  0  0  0  0  0  0  0
    8.9810   -4.3943   -0.9919 H   0  0  0  0  0  0  0  0  0  0  0  0
    7.7518   -2.5616   -2.2301 H   0  0  0  0  0  0  0  0  0  0  0  0
    5.0395   -0.6128   -1.0938 H   0  0  0  0  0  0  0  0  0  0  0  0
    3.4998    0.3627   -2.8295 H   0  0  0  0  0  0  0  0  0  0  0  0
    2.7526   -1.0750   -4.7124 H   0  0  0  0  0  0  0  0  0  0  0  0
    4.9502   -4.2994   -3.3589 H   0  0  0  0  0  0  0  0  0  0  0  0
    5.4242   -3.1115    0.8820 H   0  0  0  0  0  0  0  0  0  0  0  0
  1  2  1  0
  1 18  1  0
  1 19  1  0
  1 20  1  0
  2 17  1  0
  2  3  1  0
  2 21  1  6
  3  4  1  0
  4  5  2  0
  4  6  1  0
  6 17  1  0
  6  7  1  0
  6 22  1  6
  7  8  1  0
  7 23  1  0
  7 24  1  0
  8  9  1  0
  8 25  1  0
  8 26  1  0
  9 10  2  0
  9 27  1  0
 10 11  1  0
 10 17  1  0
 11 16  1  0
 11 12  2  0
 12 13  1  0
 12 28  1  0
 13 14  2  0
 13 29  1  0
 14 15  1  0
 14 30  1  0
 15 16  2  0
 16 31  1  0
 17 32  1  1
M  END
>  <i_m_ct_stereo_status>  (149) 
1

>  <s_m_source_file>  (149) 
/var/tmp/pbs.5076255.sched01/tmpniar21pp/41tndis9zi.sdf

>  <i_m_source_file_index>  (149) 
26

>  <i_lp_mmshare_version>  (149) 
48012

>  <i_f3d_flags>  (149) 
0

>  <s_epik_input>  (149) 
Tz1DMU9bQ0BASF0oW0NIM10pW0NAQEhdKFtDQEhdMTIpQyg9W0NIXVtDSDJdW0NIMl0yKWMzW2NIXVtjSF1bY0hdbltjSF0z

>  <s_epik_cmdline>  (149) 
J2VwaWtfcHl0aG9uJywgJy1waHQnLCAnMi4wJywgJy1waCcsICc3LjAnLCAnLXRuJywgJzgnLCAnLW1hJywgJzIwMCcsICctaW1hZScsICc8aW5maWxlLm1hZT4nLCAnLW9tYWUnLCAnPG91dGZpbGUubWFlPic=

>  <r_epik_Ionization_Penalty>  (149) 
0.0186253

>  <r_epik_Ionization_Penalty_Charging>  (149) 
0

>  <r_epik_Ionization_Penalty_Neutral>  (149) 
0.0186253

>  <r_epik_State_Penalty>  (149) 
0.0148308

>  <r_epik_Charging_Adjusted_Penalty>  (149) 
0.0148308

>  <i_epik_Tot_Q>  (149) 
0

>  <i_epik_Tot_abs_Q>  (149) 
0

>  <s_epik_Chemistry_Notes>  (149) 
This compound has an ester and may undergo hydrolysis at high or low pH.

>  <s_lp_Force_Field>  (149) 
OPLS3e

>  <r_lp_Energy>  (149) 
17.7928

>  <b_lp_Chiralities_Consistent>  (149) 
1

>  <s_lp_Variant>  (149) 
47:0-1

>  <s_i_glide_gridfile>  (149) 
pfpi4k_grid

>  <i_i_glide_lignum>  (149) 
26

>  <i_i_glide_rotatable_bonds>  (149) 
1

>  <r_i_docking_score>  (149) 
-4.55019

>  <r_i_glide_ligand_efficiency>  (149) 
-0.267658

>  <r_i_glide_ligand_efficiency_sa>  (149) 
-0.688225

>  <r_i_glide_ligand_efficiency_ln>  (149) 
-1.18704

>  <r_i_glide_gscore>  (149) 
-4.55019

>  <r_i_glide_lipo>  (149) 
-0.860525

>  <r_i_glide_hbond>  (149) 
-0.269984

>  <r_i_glide_metal>  (149) 
-0

>  <r_i_glide_rewards>  (149) 
-1.93147

>  <r_i_glide_evdw>  (149) 
-26.0339

>  <r_i_glide_ecoul>  (149) 
-3.40698

>  <r_i_glide_erotb>  (149) 
0.324528

>  <r_i_glide_esite>  (149) 
0

>  <r_i_glide_emodel>  (149) 
-36.0927

>  <r_i_glide_energy>  (149) 
-29.4409

>  <r_i_glide_einternal>  (149) 
2.25123

>  <r_i_glide_intrahb_reward>  (149) 
-0

>  <i_i_glide_confnum>  (149) 
4

>  <i_i_glide_posenum>  (149) 
8

>  <r_i_glide_eff_state_penalty>  (149) 
0

>  <ligand_id>  (149) 
47

>  <original_smiles>  (149) 
CC1OC(=O)C2CCC=C(c3cccnc3)C12

>  <smiles>  (149) 
[H]C1=C(c2c([H])nc([H])c([H])c2[H])C2([H])C([H])(C([H])([H])[H])OC(=O)C2([H])C([H])([H])C1([H])[H]

$$$$
47:0:1
     RDKit          3D

 32 34  0  0  1  0  0  0  0  0999 V2000
    2.7126   -3.8357    0.1308 C   0  0  0  0  0  0  0  0  0  0  0  0
    4.0684   -4.5445    0.0182 C   0  0  2  0  0  0  0  0  0  0  0  0
    4.2901   -5.3296    1.1948 O   0  0  0  0  0  0  0  0  0  0  0  0
    5.5781   -5.3770    1.5602 C   0  0  0  0  0  0  0  0  0  0  0  0
    6.0646   -5.9185    2.5462 O   0  0  0  0  0  0  0  0  0  0  0  0
    6.3559   -4.6410    0.4956 C   0  0  2  0  0  0  0  0  0  0  0  0
    7.6623   -3.9336    0.8370 C   0  0  0  0  0  0  0  0  0  0  0  0
    8.2180   -3.3174   -0.4711 C   0  0  0  0  0  0  0  0  0  0  0  0
    7.1369   -2.7772   -1.4096 C   0  0  0  0  0  0  0  0  0  0  0  0
    5.8052   -2.9239   -1.2205 C   0  0  0  0  0  0  0  0  0  0  0  0
    4.8661   -2.3582   -2.1933 C   0  0  0  0  0  0  0  0  0  0  0  0
    4.1146   -3.2081   -3.0180 C   0  0  0  0  0  0  0  0  0  0  0  0
    3.2014   -2.6405   -3.9193 C   0  0  0  0  0  0  0  0  0  0  0  0
    3.0933   -1.2369   -3.9683 C   0  0  0  0  0  0  0  0  0  0  0  0
    3.8275   -0.4122   -3.2001 N   0  0  0  0  0  0  0  0  0  0  0  0
    4.6722   -0.9675   -2.3082 C   0  0  0  0  0  0  0  0  0  0  0  0
    5.3190   -3.6398    0.0352 C   0  0  1  0  0  0  0  0  0  0  0  0
    2.4145   -3.3468   -0.7981 H   0  0  0  0  0  0  0  0  0  0  0  0
    2.7076   -3.0856    0.9230 H   0  0  0  0  0  0  0  0  0  0  0  0
    1.9427   -4.5705    0.3709 H   0  0  0  0  0  0  0  0  0  0  0  0
    4.0900   -5.2070   -0.8486 H   0  0  0  0  0  0  0  0  0  0  0  0
    6.5378   -5.3699   -0.2914 H   0  0  0  0  0  0  0  0  0  0  0  0
    7.4510   -3.1408    1.5561 H   0  0  0  0  0  0  0  0  0  0  0  0
    8.3871   -4.6082    1.3013 H   0  0  0  0  0  0  0  0  0  0  0  0
    8.9432   -2.5321   -0.2481 H   0  0  0  0  0  0  0  0  0  0  0  0
    8.7566   -4.0862   -1.0276 H   0  0  0  0  0  0  0  0  0  0  0  0
    7.5096   -2.2928   -2.3004 H   0  0  0  0  0  0  0  0  0  0  0  0
    4.2368   -4.2743   -2.9576 H   0  0  0  0  0  0  0  0  0  0  0  0
    2.5887   -3.2635   -4.5557 H   0  0  0  0  0  0  0  0  0  0  0  0
    2.4110   -0.7628   -4.6600 H   0  0  0  0  0  0  0  0  0  0  0  0
    5.2311   -0.2747   -1.7004 H   0  0  0  0  0  0  0  0  0  0  0  0
    5.1700   -2.8618    0.7885 H   0  0  0  0  0  0  0  0  0  0  0  0
  1  2  1  0
  1 18  1  0
  1 19  1  0
  1 20  1  0
  2 17  1  0
  2  3  1  0
  2 21  1  6
  3  4  1  0
  4  5  2  0
  4  6  1  0
  6 17  1  0
  6  7  1  0
  6 22  1  6
  7  8  1  0
  7 23  1  0
  7 24  1  0
  8  9  1  0
  8 25  1  0
  8 26  1  0
  9 10  2  0
  9 27  1  0
 10 11  1  0
 10 17  1  0
 11 16  1  0
 11 12  2  0
 12 13  1  0
 12 28  1  0
 13 14  2  0
 13 29  1  0
 14 15  1  0
 14 30  1  0
 15 16  2  0
 16 31  1  0
 17 32  1  1
M  END
>  <i_m_ct_stereo_status>  (150) 
1

>  <s_m_source_file>  (150) 
/var/tmp/pbs.5076255.sched01/tmpniar21pp/41tndis9zi.sdf

>  <i_m_source_file_index>  (150) 
26

>  <i_lp_mmshare_version>  (150) 
48012

>  <i_f3d_flags>  (150) 
0

>  <s_epik_input>  (150) 
Tz1DMU9bQ0BASF0oW0NIM10pW0NAQEhdKFtDQEhdMTIpQyg9W0NIXVtDSDJdW0NIMl0yKWMzW2NIXVtjSF1bY0hdbltjSF0z

>  <s_epik_cmdline>  (150) 
J2VwaWtfcHl0aG9uJywgJy1waHQnLCAnMi4wJywgJy1waCcsICc3LjAnLCAnLXRuJywgJzgnLCAnLW1hJywgJzIwMCcsICctaW1hZScsICc8aW5maWxlLm1hZT4nLCAnLW9tYWUnLCAnPG91dGZpbGUubWFlPic=

>  <r_epik_Ionization_Penalty>  (150) 
0.0186253

>  <r_epik_Ionization_Penalty_Charging>  (150) 
0

>  <r_epik_Ionization_Penalty_Neutral>  (150) 
0.0186253

>  <r_epik_State_Penalty>  (150) 
0.0148308

>  <r_epik_Charging_Adjusted_Penalty>  (150) 
0.0148308

>  <i_epik_Tot_Q>  (150) 
0

>  <i_epik_Tot_abs_Q>  (150) 
0

>  <s_epik_Chemistry_Notes>  (150) 
This compound has an ester and may undergo hydrolysis at high or low pH.

>  <s_lp_Force_Field>  (150) 
OPLS3e

>  <r_lp_Energy>  (150) 
17.7928

>  <b_lp_Chiralities_Consistent>  (150) 
1

>  <s_lp_Variant>  (150) 
47:0-1

>  <s_i_glide_gridfile>  (150) 
pfpi4k_grid

>  <i_i_glide_lignum>  (150) 
26

>  <i_i_glide_rotatable_bonds>  (150) 
1

>  <r_i_docking_score>  (150) 
-3.9086

>  <r_i_glide_ligand_efficiency>  (150) 
-0.229918

>  <r_i_glide_ligand_efficiency_sa>  (150) 
-0.591183

>  <r_i_glide_ligand_efficiency_ln>  (150) 
-1.01967

>  <r_i_glide_gscore>  (150) 
-3.9086

>  <r_i_glide_lipo>  (150) 
-0.797084

>  <r_i_glide_hbond>  (150) 
0

>  <r_i_glide_metal>  (150) 
-0

>  <r_i_glide_rewards>  (150) 
-1.91948

>  <r_i_glide_evdw>  (150) 
-26.3457

>  <r_i_glide_ecoul>  (150) 
-1.32856

>  <r_i_glide_erotb>  (150) 
0.324528

>  <r_i_glide_esite>  (150) 
0

>  <r_i_glide_emodel>  (150) 
-33.3632

>  <r_i_glide_energy>  (150) 
-27.6742

>  <r_i_glide_einternal>  (150) 
1.86226

>  <r_i_glide_intrahb_reward>  (150) 
-0

>  <i_i_glide_confnum>  (150) 
3

>  <i_i_glide_posenum>  (150) 
30

>  <r_i_glide_eff_state_penalty>  (150) 
0

>  <ligand_id>  (150) 
47

>  <original_smiles>  (150) 
CC1OC(=O)C2CCC=C(c3cccnc3)C12

>  <smiles>  (150) 
[H]C1=C(c2c([H])nc([H])c([H])c2[H])C2([H])C([H])(C([H])([H])[H])OC(=O)C2([H])C([H])([H])C1([H])[H]

$$$$
47:0:2
     RDKit          3D

 32 34  0  0  1  0  0  0  0  0999 V2000
    2.7179   -5.3542    0.5143 C   0  0  0  0  0  0  0  0  0  0  0  0
    3.9811   -4.8278    1.2076 C   0  0  2  0  0  0  0  0  0  0  0  0
    3.9449   -5.2434    2.5773 O   0  0  0  0  0  0  0  0  0  0  0  0
    4.4762   -4.3448    3.4176 C   0  0  0  0  0  0  0  0  0  0  0  0
    4.5347   -4.4001    4.6437 O   0  0  0  0  0  0  0  0  0  0  0  0
    5.0320   -3.2297    2.5654 C   0  0  2  0  0  0  0  0  0  0  0  0
    5.1228   -1.8034    3.1026 C   0  0  0  0  0  0  0  0  0  0  0  0
    5.7877   -0.9447    2.0020 C   0  0  0  0  0  0  0  0  0  0  0  0
    5.3748   -1.3296    0.5815 C   0  0  0  0  0  0  0  0  0  0  0  0
    4.5891   -2.3834    0.2610 C   0  0  0  0  0  0  0  0  0  0  0  0
    4.2825   -2.6598   -1.1480 C   0  0  0  0  0  0  0  0  0  0  0  0
    2.9448   -2.8258   -1.5436 C   0  0  0  0  0  0  0  0  0  0  0  0
    2.6528   -3.0540   -2.8977 C   0  0  0  0  0  0  0  0  0  0  0  0
    3.7238   -3.0968   -3.8034 C   0  0  0  0  0  0  0  0  0  0  0  0
    5.0122   -2.9234   -3.4439 N   0  0  0  0  0  0  0  0  0  0  0  0
    5.2821   -2.7078   -2.1400 C   0  0  0  0  0  0  0  0  0  0  0  0
    4.0898   -3.2936    1.3834 C   0  0  1  0  0  0  0  0  0  0  0  0
    2.7700   -5.2207   -0.5632 H   0  0  0  0  0  0  0  0  0  0  0  0
    1.8176   -4.8619    0.8796 H   0  0  0  0  0  0  0  0  0  0  0  0
    2.6057   -6.4252    0.6909 H   0  0  0  0  0  0  0  0  0  0  0  0
    4.8782   -5.2334    0.7356 H   0  0  0  0  0  0  0  0  0  0  0  0
    6.0275   -3.5552    2.2633 H   0  0  0  0  0  0  0  0  0  0  0  0
    4.1253   -1.4178    3.3237 H   0  0  0  0  0  0  0  0  0  0  0  0
    5.6942   -1.7535    4.0307 H   0  0  0  0  0  0  0  0  0  0  0  0
    5.5691    0.1095    2.1698 H   0  0  0  0  0  0  0  0  0  0  0  0
    6.8721   -1.0508    2.0601 H   0  0  0  0  0  0  0  0  0  0  0  0
    5.7552   -0.6816   -0.1950 H   0  0  0  0  0  0  0  0  0  0  0  0
    2.1494   -2.7768   -0.8163 H   0  0  0  0  0  0  0  0  0  0  0  0
    1.6342   -3.1937   -3.2342 H   0  0  0  0  0  0  0  0  0  0  0  0
    3.5345   -3.2706   -4.8496 H   0  0  0  0  0  0  0  0  0  0  0  0
    6.3208   -2.5593   -1.8855 H   0  0  0  0  0  0  0  0  0  0  0  0
    3.1063   -2.9108    1.6663 H   0  0  0  0  0  0  0  0  0  0  0  0
  1  2  1  0
  1 18  1  0
  1 19  1  0
  1 20  1  0
  2 17  1  0
  2  3  1  0
  2 21  1  6
  3  4  1  0
  4  5  2  0
  4  6  1  0
  6 17  1  0
  6  7  1  0
  6 22  1  6
  7  8  1  0
  7 23  1  0
  7 24  1  0
  8  9  1  0
  8 25  1  0
  8 26  1  0
  9 10  2  0
  9 27  1  0
 10 11  1  0
 10 17  1  0
 11 16  1  0
 11 12  2  0
 12 13  1  0
 12 28  1  0
 13 14  2  0
 13 29  1  0
 14 15  1  0
 14 30  1  0
 15 16  2  0
 16 31  1  0
 17 32  1  1
M  END
>  <i_m_ct_stereo_status>  (151) 
1

>  <s_m_source_file>  (151) 
/var/tmp/pbs.5076255.sched01/tmpniar21pp/41tndis9zi.sdf

>  <i_m_source_file_index>  (151) 
26

>  <i_lp_mmshare_version>  (151) 
48012

>  <i_f3d_flags>  (151) 
0

>  <s_epik_input>  (151) 
Tz1DMU9bQ0BASF0oW0NIM10pW0NAQEhdKFtDQEhdMTIpQyg9W0NIXVtDSDJdW0NIMl0yKWMzW2NIXVtjSF1bY0hdbltjSF0z

>  <s_epik_cmdline>  (151) 
J2VwaWtfcHl0aG9uJywgJy1waHQnLCAnMi4wJywgJy1waCcsICc3LjAnLCAnLXRuJywgJzgnLCAnLW1hJywgJzIwMCcsICctaW1hZScsICc8aW5maWxlLm1hZT4nLCAnLW9tYWUnLCAnPG91dGZpbGUubWFlPic=

>  <r_epik_Ionization_Penalty>  (151) 
0.0186253

>  <r_epik_Ionization_Penalty_Charging>  (151) 
0

>  <r_epik_Ionization_Penalty_Neutral>  (151) 
0.0186253

>  <r_epik_State_Penalty>  (151) 
0.0148308

>  <r_epik_Charging_Adjusted_Penalty>  (151) 
0.0148308

>  <i_epik_Tot_Q>  (151) 
0

>  <i_epik_Tot_abs_Q>  (151) 
0

>  <s_epik_Chemistry_Notes>  (151) 
This compound has an ester and may undergo hydrolysis at high or low pH.

>  <s_lp_Force_Field>  (151) 
OPLS3e

>  <r_lp_Energy>  (151) 
17.7928

>  <b_lp_Chiralities_Consistent>  (151) 
1

>  <s_lp_Variant>  (151) 
47:0-1

>  <s_i_glide_gridfile>  (151) 
pfpi4k_grid

>  <i_i_glide_lignum>  (151) 
26

>  <i_i_glide_rotatable_bonds>  (151) 
1

>  <r_i_docking_score>  (151) 
-3.3433

>  <r_i_glide_ligand_efficiency>  (151) 
-0.196665

>  <r_i_glide_ligand_efficiency_sa>  (151) 
-0.50568

>  <r_i_glide_ligand_efficiency_ln>  (151) 
-0.872193

>  <r_i_glide_gscore>  (151) 
-3.3433

>  <r_i_glide_lipo>  (151) 
-0.618959

>  <r_i_glide_hbond>  (151) 
0

>  <r_i_glide_metal>  (151) 
-0

>  <r_i_glide_rewards>  (151) 
-1.85193

>  <r_i_glide_evdw>  (151) 
-20.2884

>  <r_i_glide_ecoul>  (151) 
-1.21678

>  <r_i_glide_erotb>  (151) 
0.324528

>  <r_i_glide_esite>  (151) 
0

>  <r_i_glide_emodel>  (151) 
-27.0927

>  <r_i_glide_energy>  (151) 
-21.5052

>  <r_i_glide_einternal>  (151) 
0.405697

>  <r_i_glide_intrahb_reward>  (151) 
-0

>  <i_i_glide_confnum>  (151) 
5

>  <i_i_glide_posenum>  (151) 
14

>  <r_i_glide_eff_state_penalty>  (151) 
0

>  <ligand_id>  (151) 
47

>  <original_smiles>  (151) 
CC1OC(=O)C2CCC=C(c3cccnc3)C12

>  <smiles>  (151) 
[H]C1=C(c2c([H])nc([H])c([H])c2[H])C2([H])C([H])(C([H])([H])[H])OC(=O)C2([H])C([H])([H])C1([H])[H]

$$$$
47:1:0
     RDKit          3D

 33 35  0  0  1  0  0  0  0  0999 V2000
   -8.9117   -6.9210   -8.1604 C   0  0  0  0  0  0  0  0  0  0  0  0
   -7.6887   -7.8334   -8.3382 C   0  0  2  0  0  0  0  0  0  0  0  0
   -8.0609   -8.8801   -9.2445 O   0  0  0  0  0  0  0  0  0  0  0  0
   -7.4535  -10.0555   -8.9678 C   0  0  0  0  0  0  0  0  0  0  0  0
   -7.6414  -11.1351   -9.5271 O   0  0  0  0  0  0  0  0  0  0  0  0
   -6.4785   -9.7888   -7.8460 C   0  0  2  0  0  0  0  0  0  0  0  0
   -6.0823  -10.9194   -6.9121 C   0  0  0  0  0  0  0  0  0  0  0  0
   -5.0222  -10.3483   -5.9465 C   0  0  0  0  0  0  0  0  0  0  0  0
   -5.2939   -8.9055   -5.5239 C   0  0  0  0  0  0  0  0  0  0  0  0
   -6.2736   -8.1048   -6.0215 C   0  0  0  0  0  0  0  0  0  0  0  0
   -6.3943   -6.7099   -5.5507 C   0  0  0  0  0  0  0  0  0  0  0  0
   -7.6578   -6.0816   -5.4947 C   0  0  0  0  0  0  0  0  0  0  0  0
   -7.7517   -4.7455   -5.0898 C   0  0  0  0  0  0  0  0  0  0  0  0
   -6.5782   -4.0722   -4.6912 C   0  0  0  0  0  0  0  0  0  0  0  0
   -5.3838   -4.6934   -4.7428 N   0  0  0  0  0  0  0  0  0  0  0  0
   -5.2454   -5.9617   -5.1528 C   0  0  0  0  0  0  0  0  0  0  0  0
   -7.1957   -8.6693   -7.1178 C   0  0  1  0  0  0  0  0  0  0  0  0
   -8.6651   -6.0075   -7.6144 H   0  0  0  0  0  0  0  0  0  0  0  0
   -9.6977   -7.4130   -7.5850 H   0  0  0  0  0  0  0  0  0  0  0  0
   -9.3635   -6.6871   -9.1409 H   0  0  0  0  0  0  0  0  0  0  0  0
   -6.8607   -7.2699   -8.7746 H   0  0  0  0  0  0  0  0  0  0  0  0
   -5.5853   -9.4070   -8.3367 H   0  0  0  0  0  0  0  0  0  0  0  0
   -6.9519  -11.2603   -6.3425 H   0  0  0  0  0  0  0  0  0  0  0  0
   -5.6883  -11.7940   -7.4432 H   0  0  0  0  0  0  0  0  0  0  0  0
   -4.9480  -10.9651   -5.0530 H   0  0  0  0  0  0  0  0  0  0  0  0
   -4.0368  -10.3650   -6.4149 H   0  0  0  0  0  0  0  0  0  0  0  0
   -4.6055   -8.5575   -4.7646 H   0  0  0  0  0  0  0  0  0  0  0  0
   -8.5602   -6.6066   -5.7956 H   0  0  0  0  0  0  0  0  0  0  0  0
   -8.6998   -4.2327   -5.1051 H   0  0  0  0  0  0  0  0  0  0  0  0
   -6.5592   -3.0569   -4.3421 H   0  0  0  0  0  0  0  0  0  0  0  0
   -4.2462   -6.3764   -5.1458 H   0  0  0  0  0  0  0  0  0  0  0  0
   -8.0653   -9.0739   -6.5966 H   0  0  0  0  0  0  0  0  0  0  0  0
   -4.5681   -4.1501   -4.4201 H   0  0  0  0  0  0  0  0  0  0  0  0
  1  2  1  0
  1 18  1  0
  1 19  1  0
  1 20  1  0
  2 17  1  0
  2  3  1  0
  2 21  1  6
  3  4  1  0
  4  5  2  0
  4  6  1  0
  6 17  1  0
  6  7  1  0
  6 22  1  6
  7  8  1  0
  7 23  1  0
  7 24  1  0
  8  9  1  0
  8 25  1  0
  8 26  1  0
  9 10  2  0
  9 27  1  0
 10 11  1  0
 10 17  1  0
 11 16  1  0
 11 12  2  0
 12 13  1  0
 12 28  1  0
 13 14  2  0
 13 29  1  0
 14 15  1  0
 14 30  1  0
 15 16  2  0
 15 33  1  0
 16 31  1  0
 17 32  1  1
M  CHG  1  15   1
M  END
>  <i_m_ct_stereo_status>  (152) 
1

>  <s_m_source_file>  (152) 
/var/tmp/pbs.5076255.sched01/tmpniar21pp/41tndis9zi.sdf

>  <i_m_source_file_index>  (152) 
27

>  <i_lp_mmshare_version>  (152) 
48012

>  <i_f3d_flags>  (152) 
0

>  <s_epik_input>  (152) 
Tz1DMU9bQ0BASF0oW0NIM10pW0NAQEhdKFtDQEhdMTIpQyg9W0NIXVtDSDJdW0NIMl0yKWMzW2NIXVtjSF1bY0hdbltjSF0z

>  <s_epik_cmdline>  (152) 
J2VwaWtfcHl0aG9uJywgJy1waHQnLCAnMi4wJywgJy1waCcsICc3LjAnLCAnLXRuJywgJzgnLCAnLW1hJywgJzIwMCcsICctaW1hZScsICc8aW5maWxlLm1hZT4nLCAnLW9tYWUnLCAnPG91dGZpbGUubWFlPic=

>  <r_epik_Ionization_Penalty>  (152) 
2.05918

>  <r_epik_Ionization_Penalty_Charging>  (152) 
2.05918

>  <r_epik_Ionization_Penalty_Neutral>  (152) 
0

>  <r_epik_State_Penalty>  (152) 
2.19226

>  <r_epik_Charging_Adjusted_Penalty>  (152) 
4.25144

>  <i_epik_Tot_Q>  (152) 
1

>  <i_epik_Tot_abs_Q>  (152) 
1

>  <s_epik_Chemistry_Notes>  (152) 
This compound has an ester and may undergo hydrolysis at high or low pH.

>  <s_lp_Force_Field>  (152) 
OPLS3e

>  <r_lp_Energy>  (152) 
23.8834

>  <b_lp_Chiralities_Consistent>  (152) 
1

>  <s_lp_Variant>  (152) 
47:0-2

>  <s_i_glide_gridfile>  (152) 
pfpi4k_grid

>  <i_i_glide_lignum>  (152) 
27

>  <i_i_glide_rotatable_bonds>  (152) 
1

>  <r_i_docking_score>  (152) 
-6.19434

>  <r_i_glide_ligand_efficiency>  (152) 
-0.364373

>  <r_i_glide_ligand_efficiency_sa>  (152) 
-0.936905

>  <r_i_glide_ligand_efficiency_ln>  (152) 
-1.61596

>  <r_i_glide_gscore>  (152) 
-6.19434

>  <r_i_glide_lipo>  (152) 
-2.56543

>  <r_i_glide_hbond>  (152) 
0

>  <r_i_glide_metal>  (152) 
-0

>  <r_i_glide_rewards>  (152) 
-2.57672

>  <r_i_glide_evdw>  (152) 
-23.4188

>  <r_i_glide_ecoul>  (152) 
-1.35579

>  <r_i_glide_erotb>  (152) 
0.322122

>  <r_i_glide_esite>  (152) 
0

>  <r_i_glide_emodel>  (152) 
-35.4584

>  <r_i_glide_energy>  (152) 
-24.7746

>  <r_i_glide_einternal>  (152) 
0.483577

>  <r_i_glide_intrahb_reward>  (152) 
-0

>  <i_i_glide_confnum>  (152) 
2

>  <i_i_glide_posenum>  (152) 
6

>  <r_i_glide_eff_state_penalty>  (152) 
0

>  <ligand_id>  (152) 
47

>  <original_smiles>  (152) 
CC1OC(=O)C2CCC=C(c3cccnc3)C12

>  <smiles>  (152) 
[H]C1=C(c2c([H])c([H])c([H])[n+]([H])c2[H])C2([H])C([H])(C([H])([H])[H])OC(=O)C2([H])C([H])([H])C1([H])[H]

$$$$
47:1:1
     RDKit          3D

 33 35  0  0  1  0  0  0  0  0999 V2000
    2.8301   -4.0863    0.2291 C   0  0  0  0  0  0  0  0  0  0  0  0
    4.1996   -4.7604    0.0821 C   0  0  2  0  0  0  0  0  0  0  0  0
    4.4671   -5.5454    1.2516 O   0  0  0  0  0  0  0  0  0  0  0  0
    5.7624   -5.5571    1.5934 C   0  0  0  0  0  0  0  0  0  0  0  0
    6.2839   -6.0881    2.5672 O   0  0  0  0  0  0  0  0  0  0  0  0
    6.4973   -4.7992    0.5152 C   0  0  2  0  0  0  0  0  0  0  0  0
    7.8025   -4.0697    0.8219 C   0  0  0  0  0  0  0  0  0  0  0  0
    8.3104   -3.4384   -0.4974 C   0  0  0  0  0  0  0  0  0  0  0  0
    7.1930   -2.9131   -1.4028 C   0  0  0  0  0  0  0  0  0  0  0  0
    5.8690   -3.0826   -1.1805 C   0  0  0  0  0  0  0  0  0  0  0  0
    4.9040   -2.5256   -2.1283 C   0  0  0  0  0  0  0  0  0  0  0  0
    4.6277   -1.1402   -2.1530 C   0  0  0  0  0  0  0  0  0  0  0  0
    3.6882   -0.6523   -3.0775 C   0  0  0  0  0  0  0  0  0  0  0  0
    3.0135   -1.5582   -3.9179 C   0  0  0  0  0  0  0  0  0  0  0  0
    3.2901   -2.8805   -3.8513 N   0  0  0  0  0  0  0  0  0  0  0  0
    4.2110   -3.3852   -3.0028 C   0  0  0  0  0  0  0  0  0  0  0  0
    5.4260   -3.8215    0.0790 C   0  0  1  0  0  0  0  0  0  0  0  0
    2.5091   -3.5889   -0.6871 H   0  0  0  0  0  0  0  0  0  0  0  0
    2.8195   -3.3541    1.0375 H   0  0  0  0  0  0  0  0  0  0  0  0
    2.0813   -4.8433    0.4680 H   0  0  0  0  0  0  0  0  0  0  0  0
    4.2135   -5.4200   -0.7883 H   0  0  0  0  0  0  0  0  0  0  0  0
    6.6701   -5.5253   -0.2757 H   0  0  0  0  0  0  0  0  0  0  0  0
    7.6008   -3.2827    1.5479 H   0  0  0  0  0  0  0  0  0  0  0  0
    8.5532   -4.7312    1.2651 H   0  0  0  0  0  0  0  0  0  0  0  0
    9.0253   -2.6397   -0.2920 H   0  0  0  0  0  0  0  0  0  0  0  0
    8.8476   -4.1935   -1.0729 H   0  0  0  0  0  0  0  0  0  0  0  0
    7.5338   -2.4130   -2.2965 H   0  0  0  0  0  0  0  0  0  0  0  0
    5.1291   -0.4593   -1.4782 H   0  0  0  0  0  0  0  0  0  0  0  0
    3.4544    0.4038   -3.1201 H   0  0  0  0  0  0  0  0  0  0  0  0
    2.2598   -1.2598   -4.6336 H   0  0  0  0  0  0  0  0  0  0  0  0
    4.3574   -4.4547   -3.0307 H   0  0  0  0  0  0  0  0  0  0  0  0
    5.2761   -3.0561    0.8446 H   0  0  0  0  0  0  0  0  0  0  0  0
    2.7607   -3.5209   -4.4442 H   0  0  0  0  0  0  0  0  0  0  0  0
  1  2  1  0
  1 18  1  0
  1 19  1  0
  1 20  1  0
  2 17  1  0
  2  3  1  0
  2 21  1  6
  3  4  1  0
  4  5  2  0
  4  6  1  0
  6 17  1  0
  6  7  1  0
  6 22  1  6
  7  8  1  0
  7 23  1  0
  7 24  1  0
  8  9  1  0
  8 25  1  0
  8 26  1  0
  9 10  2  0
  9 27  1  0
 10 11  1  0
 10 17  1  0
 11 16  1  0
 11 12  2  0
 12 13  1  0
 12 28  1  0
 13 14  2  0
 13 29  1  0
 14 15  1  0
 14 30  1  0
 15 16  2  0
 15 33  1  0
 16 31  1  0
 17 32  1  1
M  CHG  1  15   1
M  END
>  <i_m_ct_stereo_status>  (153) 
1

>  <s_m_source_file>  (153) 
/var/tmp/pbs.5076255.sched01/tmpniar21pp/41tndis9zi.sdf

>  <i_m_source_file_index>  (153) 
27

>  <i_lp_mmshare_version>  (153) 
48012

>  <i_f3d_flags>  (153) 
0

>  <s_epik_input>  (153) 
Tz1DMU9bQ0BASF0oW0NIM10pW0NAQEhdKFtDQEhdMTIpQyg9W0NIXVtDSDJdW0NIMl0yKWMzW2NIXVtjSF1bY0hdbltjSF0z

>  <s_epik_cmdline>  (153) 
J2VwaWtfcHl0aG9uJywgJy1waHQnLCAnMi4wJywgJy1waCcsICc3LjAnLCAnLXRuJywgJzgnLCAnLW1hJywgJzIwMCcsICctaW1hZScsICc8aW5maWxlLm1hZT4nLCAnLW9tYWUnLCAnPG91dGZpbGUubWFlPic=

>  <r_epik_Ionization_Penalty>  (153) 
2.05918

>  <r_epik_Ionization_Penalty_Charging>  (153) 
2.05918

>  <r_epik_Ionization_Penalty_Neutral>  (153) 
0

>  <r_epik_State_Penalty>  (153) 
2.19226

>  <r_epik_Charging_Adjusted_Penalty>  (153) 
4.25144

>  <i_epik_Tot_Q>  (153) 
1

>  <i_epik_Tot_abs_Q>  (153) 
1

>  <s_epik_Chemistry_Notes>  (153) 
This compound has an ester and may undergo hydrolysis at high or low pH.

>  <s_lp_Force_Field>  (153) 
OPLS3e

>  <r_lp_Energy>  (153) 
23.8834

>  <b_lp_Chiralities_Consistent>  (153) 
1

>  <s_lp_Variant>  (153) 
47:0-2

>  <s_i_glide_gridfile>  (153) 
pfpi4k_grid

>  <i_i_glide_lignum>  (153) 
27

>  <i_i_glide_rotatable_bonds>  (153) 
1

>  <r_i_docking_score>  (153) 
-4.40449

>  <r_i_glide_ligand_efficiency>  (153) 
-0.259087

>  <r_i_glide_ligand_efficiency_sa>  (153) 
-0.666187

>  <r_i_glide_ligand_efficiency_ln>  (153) 
-1.14903

>  <r_i_glide_gscore>  (153) 
-4.40449

>  <r_i_glide_lipo>  (153) 
-0.790072

>  <r_i_glide_hbond>  (153) 
0

>  <r_i_glide_metal>  (153) 
-0

>  <r_i_glide_rewards>  (153) 
-1.92309

>  <r_i_glide_evdw>  (153) 
-23.5954

>  <r_i_glide_ecoul>  (153) 
-5.55787

>  <r_i_glide_erotb>  (153) 
0.322122

>  <r_i_glide_esite>  (153) 
0

>  <r_i_glide_emodel>  (153) 
-36.5039

>  <r_i_glide_energy>  (153) 
-29.1533

>  <r_i_glide_einternal>  (153) 
1.91694

>  <r_i_glide_intrahb_reward>  (153) 
-0

>  <i_i_glide_confnum>  (153) 
4

>  <i_i_glide_posenum>  (153) 
13

>  <r_i_glide_eff_state_penalty>  (153) 
0

>  <ligand_id>  (153) 
47

>  <original_smiles>  (153) 
CC1OC(=O)C2CCC=C(c3cccnc3)C12

>  <smiles>  (153) 
[H]C1=C(c2c([H])c([H])c([H])[n+]([H])c2[H])C2([H])C([H])(C([H])([H])[H])OC(=O)C2([H])C([H])([H])C1([H])[H]

$$$$
47:1:2
     RDKit          3D

 33 35  0  0  1  0  0  0  0  0999 V2000
    2.7969   -4.0229    0.2346 C   0  0  0  0  0  0  0  0  0  0  0  0
    4.1777   -4.6739    0.0803 C   0  0  2  0  0  0  0  0  0  0  0  0
    4.4594   -5.4563    1.2488 O   0  0  0  0  0  0  0  0  0  0  0  0
    5.7562   -5.4489    1.5842 C   0  0  0  0  0  0  0  0  0  0  0  0
    6.2885   -5.9740    2.5572 O   0  0  0  0  0  0  0  0  0  0  0  0
    6.4758   -4.6801    0.5036 C   0  0  2  0  0  0  0  0  0  0  0  0
    7.7681   -3.9255    0.8084 C   0  0  0  0  0  0  0  0  0  0  0  0
    8.2637   -3.2863   -0.5117 C   0  0  0  0  0  0  0  0  0  0  0  0
    7.1366   -2.7787   -1.4123 C   0  0  0  0  0  0  0  0  0  0  0  0
    5.8155   -2.9713   -1.1890 C   0  0  0  0  0  0  0  0  0  0  0  0
    4.8503   -2.4193   -2.1386 C   0  0  0  0  0  0  0  0  0  0  0  0
    4.1679   -3.2779   -3.0211 C   0  0  0  0  0  0  0  0  0  0  0  0
    3.2328   -2.7279   -3.9195 C   0  0  0  0  0  0  0  0  0  0  0  0
    3.0161   -1.3345   -3.9218 C   0  0  0  0  0  0  0  0  0  0  0  0
    3.6927   -0.5417   -3.0641 N   0  0  0  0  0  0  0  0  0  0  0  0
    4.5834   -1.0325   -2.1722 C   0  0  0  0  0  0  0  0  0  0  0  0
    5.3870   -3.7176    0.0733 C   0  0  1  0  0  0  0  0  0  0  0  0
    2.4640   -3.5278   -0.6789 H   0  0  0  0  0  0  0  0  0  0  0  0
    2.7781   -3.2929    1.0450 H   0  0  0  0  0  0  0  0  0  0  0  0
    2.0607   -4.7913    0.4768 H   0  0  0  0  0  0  0  0  0  0  0  0
    4.2037   -5.3306   -0.7926 H   0  0  0  0  0  0  0  0  0  0  0  0
    6.6584   -5.3954   -0.2955 H   0  0  0  0  0  0  0  0  0  0  0  0
    7.5524   -3.1396    1.5307 H   0  0  0  0  0  0  0  0  0  0  0  0
    8.5315   -4.5736    1.2484 H   0  0  0  0  0  0  0  0  0  0  0  0
    8.9686   -2.4781   -0.3085 H   0  0  0  0  0  0  0  0  0  0  0  0
    8.8091   -4.0329   -1.0910 H   0  0  0  0  0  0  0  0  0  0  0  0
    7.4656   -2.2709   -2.3062 H   0  0  0  0  0  0  0  0  0  0  0  0
    4.3544   -4.3407   -3.0035 H   0  0  0  0  0  0  0  0  0  0  0  0
    2.6782   -3.3631   -4.5941 H   0  0  0  0  0  0  0  0  0  0  0  0
    2.3176   -0.8342   -4.5826 H   0  0  0  0  0  0  0  0  0  0  0  0
    5.0386   -0.3065   -1.5129 H   0  0  0  0  0  0  0  0  0  0  0  0
    5.2260   -2.9546    0.8377 H   0  0  0  0  0  0  0  0  0  0  0  0
    3.4928    0.4610   -3.0701 H   0  0  0  0  0  0  0  0  0  0  0  0
  1  2  1  0
  1 18  1  0
  1 19  1  0
  1 20  1  0
  2 17  1  0
  2  3  1  0
  2 21  1  6
  3  4  1  0
  4  5  2  0
  4  6  1  0
  6 17  1  0
  6  7  1  0
  6 22  1  6
  7  8  1  0
  7 23  1  0
  7 24  1  0
  8  9  1  0
  8 25  1  0
  8 26  1  0
  9 10  2  0
  9 27  1  0
 10 11  1  0
 10 17  1  0
 11 16  1  0
 11 12  2  0
 12 13  1  0
 12 28  1  0
 13 14  2  0
 13 29  1  0
 14 15  1  0
 14 30  1  0
 15 16  2  0
 15 33  1  0
 16 31  1  0
 17 32  1  1
M  CHG  1  15   1
M  END
>  <i_m_ct_stereo_status>  (154) 
1

>  <s_m_source_file>  (154) 
/var/tmp/pbs.5076255.sched01/tmpniar21pp/41tndis9zi.sdf

>  <i_m_source_file_index>  (154) 
27

>  <i_lp_mmshare_version>  (154) 
48012

>  <i_f3d_flags>  (154) 
0

>  <s_epik_input>  (154) 
Tz1DMU9bQ0BASF0oW0NIM10pW0NAQEhdKFtDQEhdMTIpQyg9W0NIXVtDSDJdW0NIMl0yKWMzW2NIXVtjSF1bY0hdbltjSF0z

>  <s_epik_cmdline>  (154) 
J2VwaWtfcHl0aG9uJywgJy1waHQnLCAnMi4wJywgJy1waCcsICc3LjAnLCAnLXRuJywgJzgnLCAnLW1hJywgJzIwMCcsICctaW1hZScsICc8aW5maWxlLm1hZT4nLCAnLW9tYWUnLCAnPG91dGZpbGUubWFlPic=

>  <r_epik_Ionization_Penalty>  (154) 
2.05918

>  <r_epik_Ionization_Penalty_Charging>  (154) 
2.05918

>  <r_epik_Ionization_Penalty_Neutral>  (154) 
0

>  <r_epik_State_Penalty>  (154) 
2.19226

>  <r_epik_Charging_Adjusted_Penalty>  (154) 
4.25144

>  <i_epik_Tot_Q>  (154) 
1

>  <i_epik_Tot_abs_Q>  (154) 
1

>  <s_epik_Chemistry_Notes>  (154) 
This compound has an ester and may undergo hydrolysis at high or low pH.

>  <s_lp_Force_Field>  (154) 
OPLS3e

>  <r_lp_Energy>  (154) 
23.8834

>  <b_lp_Chiralities_Consistent>  (154) 
1

>  <s_lp_Variant>  (154) 
47:0-2

>  <s_i_glide_gridfile>  (154) 
pfpi4k_grid

>  <i_i_glide_lignum>  (154) 
27

>  <i_i_glide_rotatable_bonds>  (154) 
1

>  <r_i_docking_score>  (154) 
-4.37369

>  <r_i_glide_ligand_efficiency>  (154) 
-0.257276

>  <r_i_glide_ligand_efficiency_sa>  (154) 
-0.661529

>  <r_i_glide_ligand_efficiency_ln>  (154) 
-1.141

>  <r_i_glide_gscore>  (154) 
-4.37369

>  <r_i_glide_lipo>  (154) 
-0.761054

>  <r_i_glide_hbond>  (154) 
0

>  <r_i_glide_metal>  (154) 
-0

>  <r_i_glide_rewards>  (154) 
-1.92068

>  <r_i_glide_evdw>  (154) 
-24.3641

>  <r_i_glide_ecoul>  (154) 
-5.30585

>  <r_i_glide_erotb>  (154) 
0.322122

>  <r_i_glide_esite>  (154) 
0

>  <r_i_glide_emodel>  (154) 
-36.9246

>  <r_i_glide_energy>  (154) 
-29.6699

>  <r_i_glide_einternal>  (154) 
1.9981

>  <r_i_glide_intrahb_reward>  (154) 
-0

>  <i_i_glide_confnum>  (154) 
1

>  <i_i_glide_posenum>  (154) 
24

>  <r_i_glide_eff_state_penalty>  (154) 
0

>  <ligand_id>  (154) 
47

>  <original_smiles>  (154) 
CC1OC(=O)C2CCC=C(c3cccnc3)C12

>  <smiles>  (154) 
[H]C1=C(c2c([H])c([H])c([H])[n+]([H])c2[H])C2([H])C([H])(C([H])([H])[H])OC(=O)C2([H])C([H])([H])C1([H])[H]

$$$$
49:0:0
     RDKit          3D

 83 87  0  0  1  0  0  0  0  0999 V2000
    0.6289  -10.8907    3.4552 C   0  0  0  0  0  0  0  0  0  0  0  0
    1.9357  -10.1155    3.7094 C   0  0  0  0  0  0  0  0  0  0  0  0
    2.5937  -10.7052    4.9815 C   0  0  0  0  0  0  0  0  0  0  0  0
    2.8593  -10.2846    2.4846 C   0  0  0  0  0  0  0  0  0  0  0  0
    4.1120   -9.3890    2.5216 C   0  0  1  0  0  0  0  0  0  0  0  0
    4.8795   -9.6572    1.3630 O   0  0  0  0  0  0  0  0  0  0  0  0
    3.7701   -7.8697    2.6654 C   0  0  2  0  0  0  0  0  0  0  0  0
    3.1171   -7.3665    1.3531 C   0  0  0  0  0  0  0  0  0  0  0  0
    5.0637   -7.0584    2.9035 C   0  0  0  0  0  0  0  0  0  0  0  0
    4.8247   -5.6109    3.4056 C   0  0  0  0  0  0  0  0  0  0  0  0
    3.9813   -5.4888    4.7237 C   0  0  2  0  0  0  0  0  0  0  0  0
    4.7259   -6.2426    5.8791 C   0  0  0  0  0  0  0  0  0  0  0  0
    2.6323   -6.2528    4.4571 C   0  0  1  0  0  0  0  0  0  0  0  0
    1.6304   -5.4110    3.6519 C   0  0  0  0  0  0  0  0  0  0  0  0
    0.9314   -5.8516    2.7397 O   0  0  0  0  0  0  0  0  0  0  0  0
    1.4263   -3.9938    4.1352 C   0  0  0  0  0  0  0  0  0  0  0  0
    2.7275   -3.1740    4.2652 C   0  0  1  0  0  0  0  0  0  0  0  0
    2.4031   -1.6616    4.6649 C   0  0  1  0  0  0  0  0  0  0  0  0
    3.6272   -0.7612    4.3088 C   0  0  0  0  0  0  0  0  0  0  0  0
    1.2746   -1.0526    3.7583 C   0  0  0  0  0  0  0  0  0  0  0  0
   -0.1581   -1.0895    4.2949 C   0  0  0  0  0  0  0  0  0  0  0  0
   -0.2206   -0.4864    5.6930 C   0  0  1  0  0  0  0  0  0  0  0  0
   -1.5831   -0.3532    6.0715 O   0  0  0  0  0  0  0  0  0  0  0  0
    0.6089   -1.3022    6.7225 C   0  0  0  0  0  0  0  0  0  0  0  0
    0.6334   -0.4564    8.0286 C   0  0  0  0  0  0  0  0  0  0  0  0
   -0.0964   -2.6448    7.0457 C   0  0  0  0  0  0  0  0  0  0  0  0
    2.0984   -1.4697    6.2062 C   0  0  1  0  0  0  0  0  0  0  0  0
    3.0048   -2.3582    7.1030 C   0  0  0  0  0  0  0  0  0  0  0  0
    3.2573   -3.8064    6.6246 C   0  0  0  0  0  0  0  0  0  0  0  0
    3.7858   -3.9428    5.1634 C   0  0  1  0  0  0  0  0  0  0  0  0
    5.1959   -3.2696    5.0883 C   0  0  0  0  0  0  0  0  0  0  0  0
    2.8616   -7.7162    3.9324 C   0  0  1  0  0  0  0  0  0  0  0  0
    1.6009   -8.6135    3.8788 C   0  0  0  0  0  0  0  0  0  0  0  0
    0.8141  -11.9598    3.3192 H   0  0  0  0  0  0  0  0  0  0  0  0
    0.1133  -10.5346    2.5610 H   0  0  0  0  0  0  0  0  0  0  0  0
   -0.0585  -10.7833    4.2950 H   0  0  0  0  0  0  0  0  0  0  0  0
    3.5795  -10.2908    5.1833 H   0  0  0  0  0  0  0  0  0  0  0  0
    2.7209  -11.7871    4.9001 H   0  0  0  0  0  0  0  0  0  0  0  0
    1.9798  -10.5194    5.8660 H   0  0  0  0  0  0  0  0  0  0  0  0
    3.1576  -11.3328    2.4162 H   0  0  0  0  0  0  0  0  0  0  0  0
    2.3002  -10.0760    1.5713 H   0  0  0  0  0  0  0  0  0  0  0  0
    4.7291   -9.7033    3.3638 H   0  0  0  0  0  0  0  0  0  0  0  0
    4.6623  -10.5376    1.0530 H   0  0  0  0  0  0  0  0  0  0  0  0
    2.9921   -6.2885    1.3352 H   0  0  0  0  0  0  0  0  0  0  0  0
    2.1388   -7.8120    1.1827 H   0  0  0  0  0  0  0  0  0  0  0  0
    3.7349   -7.5999    0.4869 H   0  0  0  0  0  0  0  0  0  0  0  0
    5.7095   -7.5890    3.6011 H   0  0  0  0  0  0  0  0  0  0  0  0
    5.6398   -7.0189    1.9806 H   0  0  0  0  0  0  0  0  0  0  0  0
    5.8137   -5.1674    3.5136 H   0  0  0  0  0  0  0  0  0  0  0  0
    4.3457   -5.0373    2.6122 H   0  0  0  0  0  0  0  0  0  0  0  0
    4.0640   -6.4195    6.7254 H   0  0  0  0  0  0  0  0  0  0  0  0
    5.5934   -5.7167    6.2675 H   0  0  0  0  0  0  0  0  0  0  0  0
    5.1049   -7.2209    5.6032 H   0  0  0  0  0  0  0  0  0  0  0  0
    2.1451   -6.3614    5.4253 H   0  0  0  0  0  0  0  0  0  0  0  0
    0.7340   -3.5263    3.4400 H   0  0  0  0  0  0  0  0  0  0  0  0
    0.9370   -4.0767    5.0959 H   0  0  0  0  0  0  0  0  0  0  0  0
    3.1426   -3.1393    3.2562 H   0  0  0  0  0  0  0  0  0  0  0  0
    3.3798    0.3005    4.2774 H   0  0  0  0  0  0  0  0  0  0  0  0
    4.0451   -1.0156    3.3339 H   0  0  0  0  0  0  0  0  0  0  0  0
    4.4194   -0.7969    5.0454 H   0  0  0  0  0  0  0  0  0  0  0  0
    1.4481    0.0065    3.5706 H   0  0  0  0  0  0  0  0  0  0  0  0
    1.3063   -1.4982    2.7644 H   0  0  0  0  0  0  0  0  0  0  0  0
   -0.7870   -0.5044    3.6245 H   0  0  0  0  0  0  0  0  0  0  0  0
   -0.5779   -2.0907    4.2711 H   0  0  0  0  0  0  0  0  0  0  0  0
    0.1872    0.5245    5.6295 H   0  0  0  0  0  0  0  0  0  0  0  0
   -1.9987    0.2101    5.4335 H   0  0  0  0  0  0  0  0  0  0  0  0
    1.1834   -0.9384    8.8357 H   0  0  0  0  0  0  0  0  0  0  0  0
   -0.3702   -0.2631    8.4080 H   0  0  0  0  0  0  0  0  0  0  0  0
    1.0899    0.5211    7.8641 H   0  0  0  0  0  0  0  0  0  0  0  0
    0.5417   -3.3293    7.6014 H   0  0  0  0  0  0  0  0  0  0  0  0
   -0.4636   -3.1557    6.1606 H   0  0  0  0  0  0  0  0  0  0  0  0
   -0.9778   -2.4931    7.6618 H   0  0  0  0  0  0  0  0  0  0  0  0
    2.4809   -0.4662    6.3975 H   0  0  0  0  0  0  0  0  0  0  0  0
    3.9562   -1.8487    7.2343 H   0  0  0  0  0  0  0  0  0  0  0  0
    2.6128   -2.4115    8.1154 H   0  0  0  0  0  0  0  0  0  0  0  0
    3.9635   -4.2442    7.3312 H   0  0  0  0  0  0  0  0  0  0  0  0
    2.3456   -4.3915    6.7465 H   0  0  0  0  0  0  0  0  0  0  0  0
    5.3465   -2.4637    5.7967 H   0  0  0  0  0  0  0  0  0  0  0  0
    5.3967   -2.8845    4.0880 H   0  0  0  0  0  0  0  0  0  0  0  0
    6.0212   -3.9386    5.3186 H   0  0  0  0  0  0  0  0  0  0  0  0
    3.4295   -8.1714    4.7383 H   0  0  0  0  0  0  0  0  0  0  0  0
    0.9567   -8.3188    3.0506 H   0  0  0  0  0  0  0  0  0  0  0  0
    1.0032   -8.4721    4.7796 H   0  0  0  0  0  0  0  0  0  0  0  0
  1  2  1  0
  1 34  1  0
  1 35  1  0
  1 36  1  0
  2 33  1  0
  2  3  1  0
  2  4  1  0
  3 37  1  0
  3 38  1  0
  3 39  1  0
  4  5  1  0
  4 40  1  0
  4 41  1  0
  5  6  1  0
  5  7  1  0
  5 42  1  1
  6 43  1  0
  7 32  1  0
  7  8  1  6
  7  9  1  0
  8 44  1  0
  8 45  1  0
  8 46  1  0
  9 10  1  0
  9 47  1  0
  9 48  1  0
 10 11  1  0
 10 49  1  0
 10 50  1  0
 11 30  1  0
 11 12  1  1
 11 13  1  0
 12 51  1  0
 12 52  1  0
 12 53  1  0
 13 14  1  0
 13 32  1  0
 13 54  1  1
 14 15  2  0
 14 16  1  0
 16 17  1  0
 16 55  1  0
 16 56  1  0
 17 30  1  0
 17 18  1  0
 17 57  1  6
 18 27  1  0
 18 19  1  6
 18 20  1  0
 19 58  1  0
 19 59  1  0
 19 60  1  0
 20 21  1  0
 20 61  1  0
 20 62  1  0
 21 22  1  0
 21 63  1  0
 21 64  1  0
 22 23  1  0
 22 24  1  0
 22 65  1  6
 23 66  1  0
 24 25  1  0
 24 26  1  0
 24 27  1  0
 25 67  1  0
 25 68  1  0
 25 69  1  0
 26 70  1  0
 26 71  1  0
 26 72  1  0
 27 28  1  0
 27 73  1  1
 28 29  1  0
 28 74  1  0
 28 75  1  0
 29 30  1  0
 29 76  1  0
 29 77  1  0
 30 31  1  1
 31 78  1  0
 31 79  1  0
 31 80  1  0
 32 33  1  0
 32 81  1  1
 33 82  1  0
 33 83  1  0
M  END
>  <i_m_ct_stereo_status>  (155) 
1

>  <s_m_source_file>  (155) 
/var/tmp/pbs.5076255.sched01/tmpniar21pp/41tndis9zi.sdf

>  <i_m_source_file_index>  (155) 
29

>  <i_lp_mmshare_version>  (155) 
48012

>  <i_f3d_flags>  (155) 
0

>  <s_epik_input>  (155) 
W09IXVtDQEBIXTFbQ0gyXUMoW0NIM10pKFtDSDNdKVtDSDJdW0NAQEhdKFtDQF0xMltDSDNdKVtDQEhdM1tDQEBdKFtDSDNdKShbQ0gyXVtDSDJdMilbQ0BAXTQoW0NIM10pW0NAQEhdKFtDSDJdQzM9TylbQ0BdNShbQ0gzXSlbQ0BIXShbQ0gyXVtDSDJdNClDKFtDSDNdKShbQ0gzXSlbQ0BIXShbT0hdKVtDSDJdW0NIMl01

>  <s_epik_cmdline>  (155) 
J2VwaWtfcHl0aG9uJywgJy1waHQnLCAnMi4wJywgJy1waCcsICc3LjAnLCAnLXRuJywgJzgnLCAnLW1hJywgJzIwMCcsICctaW1hZScsICc8aW5maWxlLm1hZT4nLCAnLW9tYWUnLCAnPG91dGZpbGUubWFlPic=

>  <r_lp_tautomer_probability>  (155) 
1

>  <r_epik_Ionization_Penalty>  (155) 
3.81694e-06

>  <r_epik_Ionization_Penalty_Charging>  (155) 
0

>  <r_epik_Ionization_Penalty_Neutral>  (155) 
3.81694e-06

>  <r_epik_State_Penalty>  (155) 
-0

>  <r_epik_Charging_Adjusted_Penalty>  (155) 
0

>  <i_epik_Tot_Q>  (155) 
0

>  <i_epik_Tot_abs_Q>  (155) 
0

>  <s_lp_Force_Field>  (155) 
OPLS3e

>  <r_lp_Energy>  (155) 
102.29

>  <b_lp_Chiralities_Consistent>  (155) 
1

>  <s_lp_Variant>  (155) 
49:0-1

>  <s_i_glide_gridfile>  (155) 
pfpi4k_grid

>  <i_i_glide_lignum>  (155) 
29

>  <i_i_glide_rotatable_bonds>  (155) 
2

>  <r_i_docking_score>  (155) 
-3.20576

>  <r_i_glide_ligand_efficiency>  (155) 
-0.0971442

>  <r_i_glide_ligand_efficiency_sa>  (155) 
-0.311593

>  <r_i_glide_ligand_efficiency_ln>  (155) 
-0.712944

>  <r_i_glide_gscore>  (155) 
-3.20576

>  <r_i_glide_lipo>  (155) 
-0.155636

>  <r_i_glide_hbond>  (155) 
-0.289538

>  <r_i_glide_metal>  (155) 
-0

>  <r_i_glide_rewards>  (155) 
-0.28148

>  <r_i_glide_evdw>  (155) 
-23.7617

>  <r_i_glide_ecoul>  (155) 
-8.54377

>  <r_i_glide_erotb>  (155) 
0

>  <r_i_glide_esite>  (155) 
-0.00945507

>  <r_i_glide_emodel>  (155) 
-38.9216

>  <r_i_glide_energy>  (155) 
-32.3054

>  <r_i_glide_einternal>  (155) 
1.49419

>  <r_i_glide_intrahb_reward>  (155) 
-0

>  <i_i_glide_confnum>  (155) 
2

>  <i_i_glide_posenum>  (155) 
13

>  <r_i_glide_eff_state_penalty>  (155) 
0

>  <ligand_id>  (155) 
49

>  <original_smiles>  (155) 
CC1(C)CC(O)C2(C)CCC3(C)C(C(=O)CC4C5(C)CCC(O)C(C)(C)C5CCC43C)C2C1

>  <smiles>  (155) 
[H]OC1([H])C([H])([H])C([H])([H])C2(C([H])([H])[H])C([H])(C([H])([H])C([H])([H])C3(C([H])([H])[H])C2([H])C([H])([H])C(=O)C2([H])C4([H])C([H])([H])C(C([H])([H])[H])(C([H])([H])[H])C([H])([H])C([H])(O[H])C4(C([H])([H])[H])C([H])([H])C([H])([H])C23C([H])([H])[H])C1(C([H])([H])[H])C([H])([H])[H]

$$$$
49:0:1
     RDKit          3D

 83 87  0  0  1  0  0  0  0  0999 V2000
    0.9363    0.3394    4.5148 C   0  0  0  0  0  0  0  0  0  0  0  0
    1.8830   -0.3729    3.5293 C   0  0  0  0  0  0  0  0  0  0  0  0
    1.3299   -0.1561    2.0970 C   0  0  0  0  0  0  0  0  0  0  0  0
    3.3012    0.2290    3.6613 C   0  0  0  0  0  0  0  0  0  0  0  0
    4.3757   -0.5572    2.8869 C   0  0  1  0  0  0  0  0  0  0  0  0
    5.6248    0.0802    3.0738 O   0  0  0  0  0  0  0  0  0  0  0  0
    4.4453   -2.0635    3.2844 C   0  0  2  0  0  0  0  0  0  0  0  0
    4.9803   -2.1792    4.7384 C   0  0  0  0  0  0  0  0  0  0  0  0
    5.3988   -2.8045    2.3108 C   0  0  0  0  0  0  0  0  0  0  0  0
    5.3024   -4.3506    2.3885 C   0  0  0  0  0  0  0  0  0  0  0  0
    3.8710   -4.9406    2.1268 C   0  0  2  0  0  0  0  0  0  0  0  0
    3.4036   -4.5241    0.6877 C   0  0  0  0  0  0  0  0  0  0  0  0
    2.9061   -4.2288    3.1482 C   0  0  1  0  0  0  0  0  0  0  0  0
    2.9805   -4.8541    4.5494 C   0  0  0  0  0  0  0  0  0  0  0  0
    3.0015   -4.1992    5.5928 O   0  0  0  0  0  0  0  0  0  0  0  0
    2.9104   -6.3610    4.6083 C   0  0  0  0  0  0  0  0  0  0  0  0
    3.9488   -7.0821    3.7200 C   0  0  1  0  0  0  0  0  0  0  0  0
    3.8641   -8.6608    3.9344 C   0  0  1  0  0  0  0  0  0  0  0  0
    5.1906   -9.3139    3.4396 C   0  0  0  0  0  0  0  0  0  0  0  0
    3.8612   -9.0365    5.4574 C   0  0  0  0  0  0  0  0  0  0  0  0
    2.5071   -9.2703    6.1214 C   0  0  0  0  0  0  0  0  0  0  0  0
    1.7005  -10.2700    5.3102 C   0  0  1  0  0  0  0  0  0  0  0  0
    0.5666  -10.5954    6.0749 O   0  0  0  0  0  0  0  0  0  0  0  0
    1.3460   -9.7612    3.8929 C   0  0  0  0  0  0  0  0  0  0  0  0
    0.7141  -10.9685    3.1536 C   0  0  0  0  0  0  0  0  0  0  0  0
    0.2634   -8.6553    3.9647 C   0  0  0  0  0  0  0  0  0  0  0  0
    2.6711   -9.3376    3.1404 C   0  0  1  0  0  0  0  0  0  0  0  0
    2.4543   -8.7005    1.7402 C   0  0  0  0  0  0  0  0  0  0  0  0
    2.5525   -7.1616    1.6545 C   0  0  0  0  0  0  0  0  0  0  0  0
    3.8651   -6.5516    2.2278 C   0  0  1  0  0  0  0  0  0  0  0  0
    5.0697   -7.0616    1.3707 C   0  0  0  0  0  0  0  0  0  0  0  0
    3.0135   -2.6611    3.0961 C   0  0  1  0  0  0  0  0  0  0  0  0
    1.9440   -1.8782    3.9012 C   0  0  0  0  0  0  0  0  0  0  0  0
    0.8689    1.4067    4.2983 H   0  0  0  0  0  0  0  0  0  0  0  0
    1.2760    0.2352    5.5457 H   0  0  0  0  0  0  0  0  0  0  0  0
   -0.0689   -0.0728    4.4550 H   0  0  0  0  0  0  0  0  0  0  0  0
    1.9921   -0.5493    1.3207 H   0  0  0  0  0  0  0  0  0  0  0  0
    1.1852    0.9118    1.8853 H   0  0  0  0  0  0  0  0  0  0  0  0
    0.3637   -0.6506    1.9828 H   0  0  0  0  0  0  0  0  0  0  0  0
    3.2980    1.2655    3.3247 H   0  0  0  0  0  0  0  0  0  0  0  0
    3.5925    0.2736    4.7098 H   0  0  0  0  0  0  0  0  0  0  0  0
    4.1582   -0.4742    1.8232 H   0  0  0  0  0  0  0  0  0  0  0  0
    6.2618   -0.3169    2.5030 H   0  0  0  0  0  0  0  0  0  0  0  0
    5.2425   -3.1972    5.0084 H   0  0  0  0  0  0  0  0  0  0  0  0
    4.2823   -1.7973    5.4799 H   0  0  0  0  0  0  0  0  0  0  0  0
    5.8772   -1.5849    4.8835 H   0  0  0  0  0  0  0  0  0  0  0  0
    5.2144   -2.4772    1.2864 H   0  0  0  0  0  0  0  0  0  0  0  0
    6.4299   -2.5124    2.4834 H   0  0  0  0  0  0  0  0  0  0  0  0
    6.0337   -4.7345    1.6792 H   0  0  0  0  0  0  0  0  0  0  0  0
    5.6566   -4.6783    3.3634 H   0  0  0  0  0  0  0  0  0  0  0  0
    2.3286   -4.6644    0.5666 H   0  0  0  0  0  0  0  0  0  0  0  0
    3.8865   -5.0802   -0.1125 H   0  0  0  0  0  0  0  0  0  0  0  0
    3.5831   -3.4791    0.4400 H   0  0  0  0  0  0  0  0  0  0  0  0
    1.8908   -4.4609    2.8316 H   0  0  0  0  0  0  0  0  0  0  0  0
    3.0255   -6.6326    5.6543 H   0  0  0  0  0  0  0  0  0  0  0  0
    1.9008   -6.6154    4.3043 H   0  0  0  0  0  0  0  0  0  0  0  0
    4.9169   -6.7671    4.1116 H   0  0  0  0  0  0  0  0  0  0  0  0
    5.3213  -10.3316    3.8152 H   0  0  0  0  0  0  0  0  0  0  0  0
    6.0634   -8.7404    3.7560 H   0  0  0  0  0  0  0  0  0  0  0  0
    5.2274   -9.4532    2.3644 H   0  0  0  0  0  0  0  0  0  0  0  0
    4.3921   -9.9799    5.6318 H   0  0  0  0  0  0  0  0  0  0  0  0
    4.4240   -8.3069    6.0291 H   0  0  0  0  0  0  0  0  0  0  0  0
    2.6715   -9.6654    7.1254 H   0  0  0  0  0  0  0  0  0  0  0  0
    1.9551   -8.3492    6.2772 H   0  0  0  0  0  0  0  0  0  0  0  0
    2.2849  -11.1878    5.2317 H   0  0  0  0  0  0  0  0  0  0  0  0
    0.8223  -11.2694    6.7095 H   0  0  0  0  0  0  0  0  0  0  0  0
    0.4033  -10.7199    2.1412 H   0  0  0  0  0  0  0  0  0  0  0  0
   -0.1683  -11.3195    3.6846 H   0  0  0  0  0  0  0  0  0  0  0  0
    1.4127  -11.8056    3.0791 H   0  0  0  0  0  0  0  0  0  0  0  0
    0.1361   -8.1357    3.0215 H   0  0  0  0  0  0  0  0  0  0  0  0
    0.4581   -7.9266    4.7452 H   0  0  0  0  0  0  0  0  0  0  0  0
   -0.7089   -9.0896    4.2146 H   0  0  0  0  0  0  0  0  0  0  0  0
    3.0802  -10.3176    2.9025 H   0  0  0  0  0  0  0  0  0  0  0  0
    3.1599   -9.1671    1.0477 H   0  0  0  0  0  0  0  0  0  0  0  0
    1.4916   -8.9930    1.3396 H   0  0  0  0  0  0  0  0  0  0  0  0
    2.4438   -6.9031    0.6048 H   0  0  0  0  0  0  0  0  0  0  0  0
    1.6836   -6.7242    2.1383 H   0  0  0  0  0  0  0  0  0  0  0  0
    4.9108   -8.0367    0.9211 H   0  0  0  0  0  0  0  0  0  0  0  0
    5.9802   -7.1040    1.9670 H   0  0  0  0  0  0  0  0  0  0  0  0
    5.2980   -6.4371    0.5118 H   0  0  0  0  0  0  0  0  0  0  0  0
    2.7474   -2.4349    2.0711 H   0  0  0  0  0  0  0  0  0  0  0  0
    2.1352   -1.9542    4.9651 H   0  0  0  0  0  0  0  0  0  0  0  0
    0.9626   -2.3392    3.7438 H   0  0  0  0  0  0  0  0  0  0  0  0
  1  2  1  0
  1 34  1  0
  1 35  1  0
  1 36  1  0
  2 33  1  0
  2  3  1  0
  2  4  1  0
  3 37  1  0
  3 38  1  0
  3 39  1  0
  4  5  1  0
  4 40  1  0
  4 41  1  0
  5  6  1  0
  5  7  1  0
  5 42  1  6
  6 43  1  0
  7 32  1  0
  7  8  1  1
  7  9  1  0
  8 44  1  0
  8 45  1  0
  8 46  1  0
  9 10  1  0
  9 47  1  0
  9 48  1  0
 10 11  1  0
 10 49  1  0
 10 50  1  0
 11 30  1  0
 11 12  1  6
 11 13  1  0
 12 51  1  0
 12 52  1  0
 12 53  1  0
 13 14  1  0
 13 32  1  0
 13 54  1  6
 14 15  2  0
 14 16  1  0
 16 17  1  0
 16 55  1  0
 16 56  1  0
 17 30  1  0
 17 18  1  0
 17 57  1  1
 18 27  1  0
 18 19  1  6
 18 20  1  0
 19 58  1  0
 19 59  1  0
 19 60  1  0
 20 21  1  0
 20 61  1  0
 20 62  1  0
 21 22  1  0
 21 63  1  0
 21 64  1  0
 22 23  1  0
 22 24  1  0
 22 65  1  6
 23 66  1  0
 24 25  1  0
 24 26  1  0
 24 27  1  0
 25 67  1  0
 25 68  1  0
 25 69  1  0
 26 70  1  0
 26 71  1  0
 26 72  1  0
 27 28  1  0
 27 73  1  6
 28 29  1  0
 28 74  1  0
 28 75  1  0
 29 30  1  0
 29 76  1  0
 29 77  1  0
 30 31  1  6
 31 78  1  0
 31 79  1  0
 31 80  1  0
 32 33  1  0
 32 81  1  6
 33 82  1  0
 33 83  1  0
M  END
>  <i_m_ct_stereo_status>  (156) 
1

>  <s_m_source_file>  (156) 
/var/tmp/pbs.5076255.sched01/tmpniar21pp/41tndis9zi.sdf

>  <i_m_source_file_index>  (156) 
29

>  <i_lp_mmshare_version>  (156) 
48012

>  <i_f3d_flags>  (156) 
0

>  <s_epik_input>  (156) 
W09IXVtDQEBIXTFbQ0gyXUMoW0NIM10pKFtDSDNdKVtDSDJdW0NAQEhdKFtDQF0xMltDSDNdKVtDQEhdM1tDQEBdKFtDSDNdKShbQ0gyXVtDSDJdMilbQ0BAXTQoW0NIM10pW0NAQEhdKFtDSDJdQzM9TylbQ0BdNShbQ0gzXSlbQ0BIXShbQ0gyXVtDSDJdNClDKFtDSDNdKShbQ0gzXSlbQ0BIXShbT0hdKVtDSDJdW0NIMl01

>  <s_epik_cmdline>  (156) 
J2VwaWtfcHl0aG9uJywgJy1waHQnLCAnMi4wJywgJy1waCcsICc3LjAnLCAnLXRuJywgJzgnLCAnLW1hJywgJzIwMCcsICctaW1hZScsICc8aW5maWxlLm1hZT4nLCAnLW9tYWUnLCAnPG91dGZpbGUubWFlPic=

>  <r_lp_tautomer_probability>  (156) 
1

>  <r_epik_Ionization_Penalty>  (156) 
3.81694e-06

>  <r_epik_Ionization_Penalty_Charging>  (156) 
0

>  <r_epik_Ionization_Penalty_Neutral>  (156) 
3.81694e-06

>  <r_epik_State_Penalty>  (156) 
-0

>  <r_epik_Charging_Adjusted_Penalty>  (156) 
0

>  <i_epik_Tot_Q>  (156) 
0

>  <i_epik_Tot_abs_Q>  (156) 
0

>  <s_lp_Force_Field>  (156) 
OPLS3e

>  <r_lp_Energy>  (156) 
102.29

>  <b_lp_Chiralities_Consistent>  (156) 
1

>  <s_lp_Variant>  (156) 
49:0-1

>  <s_i_glide_gridfile>  (156) 
pfpi4k_grid

>  <i_i_glide_lignum>  (156) 
29

>  <i_i_glide_rotatable_bonds>  (156) 
2

>  <r_i_docking_score>  (156) 
-3.19907

>  <r_i_glide_ligand_efficiency>  (156) 
-0.0969414

>  <r_i_glide_ligand_efficiency_sa>  (156) 
-0.310943

>  <r_i_glide_ligand_efficiency_ln>  (156) 
-0.711456

>  <r_i_glide_gscore>  (156) 
-3.19907

>  <r_i_glide_lipo>  (156) 
-0.400192

>  <r_i_glide_hbond>  (156) 
-0.300603

>  <r_i_glide_metal>  (156) 
-0

>  <r_i_glide_rewards>  (156) 
-0.28148

>  <r_i_glide_evdw>  (156) 
-21.7518

>  <r_i_glide_ecoul>  (156) 
-7.52799

>  <r_i_glide_erotb>  (156) 
0

>  <r_i_glide_esite>  (156) 
0

>  <r_i_glide_emodel>  (156) 
-36.0552

>  <r_i_glide_energy>  (156) 
-29.2798

>  <r_i_glide_einternal>  (156) 
0.995562

>  <r_i_glide_intrahb_reward>  (156) 
-0

>  <i_i_glide_confnum>  (156) 
2

>  <i_i_glide_posenum>  (156) 
3

>  <r_i_glide_eff_state_penalty>  (156) 
0

>  <ligand_id>  (156) 
49

>  <original_smiles>  (156) 
CC1(C)CC(O)C2(C)CCC3(C)C(C(=O)CC4C5(C)CCC(O)C(C)(C)C5CCC43C)C2C1

>  <smiles>  (156) 
[H]OC1([H])C([H])([H])C([H])([H])C2(C([H])([H])[H])C([H])(C([H])([H])C([H])([H])C3(C([H])([H])[H])C2([H])C([H])([H])C(=O)C2([H])C4([H])C([H])([H])C(C([H])([H])[H])(C([H])([H])[H])C([H])([H])C([H])(O[H])C4(C([H])([H])[H])C([H])([H])C([H])([H])C23C([H])([H])[H])C1(C([H])([H])[H])C([H])([H])[H]

$$$$
49:0:2
     RDKit          3D

 83 87  0  0  1  0  0  0  0  0999 V2000
    0.2287  -10.4322    2.7761 C   0  0  0  0  0  0  0  0  0  0  0  0
    1.5159   -9.8401    3.3730 C   0  0  0  0  0  0  0  0  0  0  0  0
    1.6171  -10.3490    4.8314 C   0  0  0  0  0  0  0  0  0  0  0  0
    2.7263  -10.3082    2.5342 C   0  0  0  0  0  0  0  0  0  0  0  0
    4.0488   -9.6129    2.9052 C   0  0  1  0  0  0  0  0  0  0  0  0
    5.0737  -10.1489    2.0839 O   0  0  0  0  0  0  0  0  0  0  0  0
    3.9639   -8.0529    2.8175 C   0  0  2  0  0  0  0  0  0  0  0  0
    3.8567   -7.6363    1.3270 C   0  0  0  0  0  0  0  0  0  0  0  0
    5.2423   -7.4196    3.4149 C   0  0  0  0  0  0  0  0  0  0  0  0
    5.1308   -5.8990    3.7040 C   0  0  0  0  0  0  0  0  0  0  0  0
    3.9536   -5.4801    4.6551 C   0  0  2  0  0  0  0  0  0  0  0  0
    4.1437   -6.1778    6.0449 C   0  0  0  0  0  0  0  0  0  0  0  0
    2.6423   -6.0620    4.0133 C   0  0  1  0  0  0  0  0  0  0  0  0
    2.1173   -5.1895    2.8647 C   0  0  0  0  0  0  0  0  0  0  0  0
    1.6558   -5.6376    1.8158 O   0  0  0  0  0  0  0  0  0  0  0  0
    2.0403   -3.7066    3.1428 C   0  0  0  0  0  0  0  0  0  0  0  0
    3.3613   -3.0820    3.6340 C   0  0  1  0  0  0  0  0  0  0  0  0
    3.2148   -1.4980    3.7842 C   0  0  1  0  0  0  0  0  0  0  0  0
    4.6316   -0.8459    3.7899 C   0  0  0  0  0  0  0  0  0  0  0  0
    2.5690   -0.8469    2.5085 C   0  0  0  0  0  0  0  0  0  0  0  0
    1.0634   -0.5990    2.5379 C   0  0  0  0  0  0  0  0  0  0  0  0
    0.6729    0.1841    3.7847 C   0  0  1  0  0  0  0  0  0  0  0  0
   -0.6926    0.5436    3.6809 O   0  0  0  0  0  0  0  0  0  0  0  0
    0.9627   -0.6045    5.0918 C   0  0  0  0  0  0  0  0  0  0  0  0
    0.7283    0.3908    6.2641 C   0  0  0  0  0  0  0  0  0  0  0  0
   -0.0577   -1.7590    5.2676 C   0  0  0  0  0  0  0  0  0  0  0  0
    2.4788   -1.0633    5.1163 C   0  0  1  0  0  0  0  0  0  0  0  0
    2.8743   -1.9508    6.3289 C   0  0  0  0  0  0  0  0  0  0  0  0
    2.9889   -3.4713    6.0757 C   0  0  0  0  0  0  0  0  0  0  0  0
    3.9148   -3.8783    4.8904 C   0  0  1  0  0  0  0  0  0  0  0  0
    5.3701   -3.4401    5.2425 C   0  0  0  0  0  0  0  0  0  0  0  0
    2.7513   -7.5991    3.7013 C   0  0  1  0  0  0  0  0  0  0  0  0
    1.4269   -8.2953    3.3043 C   0  0  0  0  0  0  0  0  0  0  0  0
    0.2541  -11.5243    2.7814 H   0  0  0  0  0  0  0  0  0  0  0  0
    0.0927  -10.1244    1.7397 H   0  0  0  0  0  0  0  0  0  0  0  0
   -0.6580  -10.1168    3.3292 H   0  0  0  0  0  0  0  0  0  0  0  0
    2.5488  -10.0633    5.3180 H   0  0  0  0  0  0  0  0  0  0  0  0
    1.5629  -11.4392    4.8762 H   0  0  0  0  0  0  0  0  0  0  0  0
    0.7990   -9.9585    5.4399 H   0  0  0  0  0  0  0  0  0  0  0  0
    2.8406  -11.3893    2.6316 H   0  0  0  0  0  0  0  0  0  0  0  0
    2.5282  -10.1388    1.4754 H   0  0  0  0  0  0  0  0  0  0  0  0
    4.3011   -9.8981    3.9277 H   0  0  0  0  0  0  0  0  0  0  0  0
    4.7051  -10.8312    1.5240 H   0  0  0  0  0  0  0  0  0  0  0  0
    3.9466   -6.5634    1.1902 H   0  0  0  0  0  0  0  0  0  0  0  0
    2.9158   -7.9483    0.8785 H   0  0  0  0  0  0  0  0  0  0  0  0
    4.6518   -8.0757    0.7283 H   0  0  0  0  0  0  0  0  0  0  0  0
    5.5247   -7.9460    4.3263 H   0  0  0  0  0  0  0  0  0  0  0  0
    6.0784   -7.5865    2.7377 H   0  0  0  0  0  0  0  0  0  0  0  0
    6.0992   -5.5984    4.1009 H   0  0  0  0  0  0  0  0  0  0  0  0
    5.0396   -5.3686    2.7563 H   0  0  0  0  0  0  0  0  0  0  0  0
    3.2280   -6.1382    6.6330 H   0  0  0  0  0  0  0  0  0  0  0  0
    4.9266   -5.7416    6.6590 H   0  0  0  0  0  0  0  0  0  0  0  0
    4.4018   -7.2296    5.9842 H   0  0  0  0  0  0  0  0  0  0  0  0
    1.8646   -5.9677    4.7701 H   0  0  0  0  0  0  0  0  0  0  0  0
    1.7079   -3.2373    2.2207 H   0  0  0  0  0  0  0  0  0  0  0  0
    1.2638   -3.5828    3.8861 H   0  0  0  0  0  0  0  0  0  0  0  0
    4.0708   -3.2446    2.8199 H   0  0  0  0  0  0  0  0  0  0  0  0
    4.6056    0.2277    3.5993 H   0  0  0  0  0  0  0  0  0  0  0  0
    5.2785   -1.2863    3.0299 H   0  0  0  0  0  0  0  0  0  0  0  0
    5.1300   -0.9048    4.7486 H   0  0  0  0  0  0  0  0  0  0  0  0
    2.9840    0.1399    2.3073 H   0  0  0  0  0  0  0  0  0  0  0  0
    2.8207   -1.4232    1.6188 H   0  0  0  0  0  0  0  0  0  0  0  0
    0.7847   -0.0350    1.6470 H   0  0  0  0  0  0  0  0  0  0  0  0
    0.5124   -1.5286    2.4720 H   0  0  0  0  0  0  0  0  0  0  0  0
    1.2527    1.1095    3.7873 H   0  0  0  0  0  0  0  0  0  0  0  0
   -0.7902    1.1187    2.9348 H   0  0  0  0  0  0  0  0  0  0  0  0
    0.8958   -0.0587    7.2420 H   0  0  0  0  0  0  0  0  0  0  0  0
   -0.2937    0.7734    6.2675 H   0  0  0  0  0  0  0  0  0  0  0  0
    1.3831    1.2601    6.1880 H   0  0  0  0  0  0  0  0  0  0  0  0
    0.2295   -2.4537    6.0548 H   0  0  0  0  0  0  0  0  0  0  0  0
   -0.2187   -2.3251    4.3540 H   0  0  0  0  0  0  0  0  0  0  0  0
   -1.0397   -1.3723    5.5401 H   0  0  0  0  0  0  0  0  0  0  0  0
    2.9593   -0.1121    5.3482 H   0  0  0  0  0  0  0  0  0  0  0  0
    3.8124   -1.5755    6.7304 H   0  0  0  0  0  0  0  0  0  0  0  0
    2.1798   -1.8105    7.1529 H   0  0  0  0  0  0  0  0  0  0  0  0
    3.3452   -3.9125    7.0076 H   0  0  0  0  0  0  0  0  0  0  0  0
    1.9929   -3.8900    5.9302 H   0  0  0  0  0  0  0  0  0  0  0  0
    5.4409   -2.5781    5.8954 H   0  0  0  0  0  0  0  0  0  0  0  0
    5.9125   -3.2191    4.3272 H   0  0  0  0  0  0  0  0  0  0  0  0
    5.9531   -4.1897    5.7727 H   0  0  0  0  0  0  0  0  0  0  0  0
    2.9446   -8.0254    4.6813 H   0  0  0  0  0  0  0  0  0  0  0  0
    1.1408   -8.0218    2.2885 H   0  0  0  0  0  0  0  0  0  0  0  0
    0.6162   -7.9461    3.9420 H   0  0  0  0  0  0  0  0  0  0  0  0
  1  2  1  0
  1 34  1  0
  1 35  1  0
  1 36  1  0
  2 33  1  0
  2  3  1  0
  2  4  1  0
  3 37  1  0
  3 38  1  0
  3 39  1  0
  4  5  1  0
  4 40  1  0
  4 41  1  0
  5  6  1  0
  5  7  1  0
  5 42  1  1
  6 43  1  0
  7 32  1  0
  7  8  1  6
  7  9  1  0
  8 44  1  0
  8 45  1  0
  8 46  1  0
  9 10  1  0
  9 47  1  0
  9 48  1  0
 10 11  1  0
 10 49  1  0
 10 50  1  0
 11 30  1  0
 11 12  1  1
 11 13  1  0
 12 51  1  0
 12 52  1  0
 12 53  1  0
 13 14  1  0
 13 32  1  0
 13 54  1  1
 14 15  2  0
 14 16  1  0
 16 17  1  0
 16 55  1  0
 16 56  1  0
 17 30  1  0
 17 18  1  0
 17 57  1  6
 18 27  1  0
 18 19  1  1
 18 20  1  0
 19 58  1  0
 19 59  1  0
 19 60  1  0
 20 21  1  0
 20 61  1  0
 20 62  1  0
 21 22  1  0
 21 63  1  0
 21 64  1  0
 22 23  1  0
 22 24  1  0
 22 65  1  1
 23 66  1  0
 24 25  1  0
 24 26  1  0
 24 27  1  0
 25 67  1  0
 25 68  1  0
 25 69  1  0
 26 70  1  0
 26 71  1  0
 26 72  1  0
 27 28  1  0
 27 73  1  1
 28 29  1  0
 28 74  1  0
 28 75  1  0
 29 30  1  0
 29 76  1  0
 29 77  1  0
 30 31  1  1
 31 78  1  0
 31 79  1  0
 31 80  1  0
 32 33  1  0
 32 81  1  1
 33 82  1  0
 33 83  1  0
M  END
>  <i_m_ct_stereo_status>  (157) 
1

>  <s_m_source_file>  (157) 
/var/tmp/pbs.5076255.sched01/tmpniar21pp/41tndis9zi.sdf

>  <i_m_source_file_index>  (157) 
29

>  <i_lp_mmshare_version>  (157) 
48012

>  <i_f3d_flags>  (157) 
0

>  <s_epik_input>  (157) 
W09IXVtDQEBIXTFbQ0gyXUMoW0NIM10pKFtDSDNdKVtDSDJdW0NAQEhdKFtDQF0xMltDSDNdKVtDQEhdM1tDQEBdKFtDSDNdKShbQ0gyXVtDSDJdMilbQ0BAXTQoW0NIM10pW0NAQEhdKFtDSDJdQzM9TylbQ0BdNShbQ0gzXSlbQ0BIXShbQ0gyXVtDSDJdNClDKFtDSDNdKShbQ0gzXSlbQ0BIXShbT0hdKVtDSDJdW0NIMl01

>  <s_epik_cmdline>  (157) 
J2VwaWtfcHl0aG9uJywgJy1waHQnLCAnMi4wJywgJy1waCcsICc3LjAnLCAnLXRuJywgJzgnLCAnLW1hJywgJzIwMCcsICctaW1hZScsICc8aW5maWxlLm1hZT4nLCAnLW9tYWUnLCAnPG91dGZpbGUubWFlPic=

>  <r_lp_tautomer_probability>  (157) 
1

>  <r_epik_Ionization_Penalty>  (157) 
3.81694e-06

>  <r_epik_Ionization_Penalty_Charging>  (157) 
0

>  <r_epik_Ionization_Penalty_Neutral>  (157) 
3.81694e-06

>  <r_epik_State_Penalty>  (157) 
-0

>  <r_epik_Charging_Adjusted_Penalty>  (157) 
0

>  <i_epik_Tot_Q>  (157) 
0

>  <i_epik_Tot_abs_Q>  (157) 
0

>  <s_lp_Force_Field>  (157) 
OPLS3e

>  <r_lp_Energy>  (157) 
102.29

>  <b_lp_Chiralities_Consistent>  (157) 
1

>  <s_lp_Variant>  (157) 
49:0-1

>  <s_i_glide_gridfile>  (157) 
pfpi4k_grid

>  <i_i_glide_lignum>  (157) 
29

>  <i_i_glide_rotatable_bonds>  (157) 
2

>  <r_i_docking_score>  (157) 
-2.83915

>  <r_i_glide_ligand_efficiency>  (157) 
-0.0860347

>  <r_i_glide_ligand_efficiency_sa>  (157) 
-0.275959

>  <r_i_glide_ligand_efficiency_ln>  (157) 
-0.631411

>  <r_i_glide_gscore>  (157) 
-2.83915

>  <r_i_glide_lipo>  (157) 
-0.254789

>  <r_i_glide_hbond>  (157) 
-0.202234

>  <r_i_glide_metal>  (157) 
-0

>  <r_i_glide_rewards>  (157) 
-0.28148

>  <r_i_glide_evdw>  (157) 
-25.193

>  <r_i_glide_ecoul>  (157) 
-5.55408

>  <r_i_glide_erotb>  (157) 
0

>  <r_i_glide_esite>  (157) 
-0.00787866

>  <r_i_glide_emodel>  (157) 
-36.4639

>  <r_i_glide_energy>  (157) 
-30.7471

>  <r_i_glide_einternal>  (157) 
1.76729

>  <r_i_glide_intrahb_reward>  (157) 
-0

>  <i_i_glide_confnum>  (157) 
2

>  <i_i_glide_posenum>  (157) 
1

>  <r_i_glide_eff_state_penalty>  (157) 
0

>  <ligand_id>  (157) 
49

>  <original_smiles>  (157) 
CC1(C)CC(O)C2(C)CCC3(C)C(C(=O)CC4C5(C)CCC(O)C(C)(C)C5CCC43C)C2C1

>  <smiles>  (157) 
[H]OC1([H])C([H])([H])C([H])([H])C2(C([H])([H])[H])C([H])(C([H])([H])C([H])([H])C3(C([H])([H])[H])C2([H])C([H])([H])C(=O)C2([H])C4([H])C([H])([H])C(C([H])([H])[H])(C([H])([H])[H])C([H])([H])C([H])(O[H])C4(C([H])([H])[H])C([H])([H])C([H])([H])C23C([H])([H])[H])C1(C([H])([H])[H])C([H])([H])[H]

$$$$
50:0:0
     RDKit          3D

 57 61  0  0  1  0  0  0  0  0999 V2000
    2.9846   -1.7350   -3.5763 C   0  0  0  0  0  0  0  0  0  0  0  0
    3.0291   -1.7240   -2.0916 N   0  0  0  0  0  0  0  0  0  0  0  0
    3.7186   -2.9099   -1.5275 C   0  0  0  0  0  0  0  0  0  0  0  0
    3.5543   -2.9943    0.0015 C   0  0  2  0  0  0  0  0  0  0  0  0
    4.2219   -1.9289    0.6748 O   0  0  0  0  0  0  0  0  0  0  0  0
    4.3878   -2.2870    2.0171 C   0  0  1  0  0  0  0  0  0  0  0  0
    3.1518   -1.8392    2.7797 N   0  0  0  0  0  0  0  0  0  0  0  0
    1.9387   -2.4906    2.9504 C   0  0  0  0  0  0  0  0  0  0  0  0
    1.0388   -1.8519    3.6583 N   0  0  0  0  0  0  0  0  0  0  0  0
    1.6637   -0.6673    4.0014 C   0  0  0  0  0  0  0  0  0  0  0  0
    1.2619    0.4575    4.7666 C   0  0  0  0  0  0  0  0  0  0  0  0
    0.0496    0.4800    5.3642 N   0  0  0  0  0  0  0  0  0  0  0  0
   -0.4964    1.6685    6.0121 C   0  0  0  0  0  0  0  0  0  0  0  0
   -1.8119    1.3565    6.7334 C   0  0  0  0  0  0  0  0  0  0  0  0
   -2.5228    2.7006    6.8732 C   0  0  0  0  0  0  0  0  0  0  0  0
   -2.0655    3.5310    5.6705 C   0  0  0  0  0  0  0  0  0  0  0  0
   -0.8831    2.7872    5.0320 C   0  0  0  0  0  0  0  0  0  0  0  0
    2.1407    1.4788    4.8998 N   0  0  0  0  0  0  0  0  0  0  0  0
    3.3474    1.3909    4.3258 C   0  0  0  0  0  0  0  0  0  0  0  0
    3.8664    0.3887    3.6063 N   0  0  0  0  0  0  0  0  0  0  0  0
    2.9779   -0.6362    3.4577 C   0  0  0  0  0  0  0  0  0  0  0  0
    4.5727   -3.8300    2.0397 C   0  0  2  0  0  0  0  0  0  0  0  0
    5.9403   -4.2257    2.0881 O   0  0  0  0  0  0  0  0  0  0  0  0
    6.0768   -5.2192    1.1163 C   0  0  0  0  0  0  0  0  0  0  0  0
    7.5511   -5.3626    0.6760 C   0  0  0  0  0  0  0  0  0  0  0  0
    5.6182   -6.5863    1.6785 C   0  0  0  0  0  0  0  0  0  0  0  0
    5.2791   -4.8463    0.0388 O   0  0  0  0  0  0  0  0  0  0  0  0
    4.1204   -4.2732    0.6551 C   0  0  2  0  0  0  0  0  0  0  0  0
   -0.5876   -0.2934    5.2486 H   0  0  0  0  0  0  0  0  0  0  0  0
    2.5126   -0.8307   -3.9611 H   0  0  0  0  0  0  0  0  0  0  0  0
    2.4298   -2.5986   -3.9523 H   0  0  0  0  0  0  0  0  0  0  0  0
    3.9950   -1.7755   -3.9904 H   0  0  0  0  0  0  0  0  0  0  0  0
    3.5074   -0.8968   -1.7926 H   0  0  0  0  0  0  0  0  0  0  0  0
    3.3020   -3.8108   -1.9718 H   0  0  0  0  0  0  0  0  0  0  0  0
    4.7781   -2.8784   -1.7886 H   0  0  0  0  0  0  0  0  0  0  0  0
    2.4864   -2.9404    0.2332 H   0  0  0  0  0  0  0  0  0  0  0  0
    5.2064   -1.7135    2.4545 H   0  0  0  0  0  0  0  0  0  0  0  0
    1.7062   -3.4574    2.5386 H   0  0  0  0  0  0  0  0  0  0  0  0
    0.2114    2.0640    6.7463 H   0  0  0  0  0  0  0  0  0  0  0  0
   -2.4247    0.6927    6.1193 H   0  0  0  0  0  0  0  0  0  0  0  0
   -1.6454    0.8805    7.6998 H   0  0  0  0  0  0  0  0  0  0  0  0
   -3.6052    2.5832    6.9134 H   0  0  0  0  0  0  0  0  0  0  0  0
   -2.2145    3.1864    7.7986 H   0  0  0  0  0  0  0  0  0  0  0  0
   -2.8719    3.6380    4.9463 H   0  0  0  0  0  0  0  0  0  0  0  0
   -1.7693    4.5284    5.9877 H   0  0  0  0  0  0  0  0  0  0  0  0
   -0.0446    3.4561    4.8241 H   0  0  0  0  0  0  0  0  0  0  0  0
   -1.2085    2.3646    4.0797 H   0  0  0  0  0  0  0  0  0  0  0  0
    3.9895    2.2433    4.4787 H   0  0  0  0  0  0  0  0  0  0  0  0
    4.0232   -4.3015    2.8545 H   0  0  0  0  0  0  0  0  0  0  0  0
    7.9880   -4.4485    0.2473 H   0  0  0  0  0  0  0  0  0  0  0  0
    7.6386   -6.1723   -0.0520 H   0  0  0  0  0  0  0  0  0  0  0  0
    8.1690   -5.6971    1.5151 H   0  0  0  0  0  0  0  0  0  0  0  0
    4.5729   -6.6017    2.0117 H   0  0  0  0  0  0  0  0  0  0  0  0
    6.2569   -6.8596    2.5234 H   0  0  0  0  0  0  0  0  0  0  0  0
    5.7534   -7.3528    0.9111 H   0  0  0  0  0  0  0  0  0  0  0  0
    3.3517   -5.0380    0.7100 H   0  0  0  0  0  0  0  0  0  0  0  0
    2.0613   -1.6396   -1.7240 H   0  0  0  0  0  0  0  0  0  0  0  0
  1  2  1  0
  1 30  1  0
  1 31  1  0
  1 32  1  0
  2  3  1  0
  2 33  1  0
  2 57  1  0
  3  4  1  0
  3 34  1  0
  3 35  1  0
  4 28  1  0
  4  5  1  0
  4 36  1  6
  5  6  1  0
  6 22  1  0
  6 37  1  1
  6  7  1  0
  7  8  1  0
  7 21  1  0
  8  9  2  0
  8 38  1  0
  9 10  1  0
 10 11  1  0
 10 21  2  0
 11 18  2  0
 11 12  1  0
 12 13  1  0
 12 29  1  0
 13 17  1  0
 13 14  1  0
 13 39  1  0
 14 15  1  0
 14 40  1  0
 14 41  1  0
 15 16  1  0
 15 42  1  0
 15 43  1  0
 16 17  1  0
 16 44  1  0
 16 45  1  0
 17 46  1  0
 17 47  1  0
 18 19  1  0
 19 48  1  0
 19 20  2  0
 20 21  1  0
 22 28  1  0
 22 23  1  0
 22 49  1  1
 23 24  1  0
 24 25  1  0
 24 26  1  0
 24 27  1  0
 25 50  1  0
 25 51  1  0
 25 52  1  0
 26 53  1  0
 26 54  1  0
 26 55  1  0
 27 28  1  0
 28 56  1  1
M  CHG  1   2   1
M  END
>  <i_m_ct_stereo_status>  (158) 
1

>  <s_m_source_file>  (158) 
/var/tmp/pbs.5076255.sched01/tmpniar21pp/41tndis9zi.sdf

>  <i_m_source_file_index>  (158) 
30

>  <i_lp_mmshare_version>  (158) 
48012

>  <i_f3d_flags>  (158) 
0

>  <s_epik_input>  (158) 
TzFDKFtDSDNdKShbQ0gzXSlPW0NAQEhdKFtDQEBIXTEyKVtDQEhdKFtDSDJdW05IXVtDSDNdKU9bQ0BIXTJuKFtjSF1uMyljKGMzNCluW2NIXVtuSF1jXDQ9TlxbQ0hdNVtDSDJdW0NIMl1bQ0gyXVtDSDJdNQ==

>  <s_epik_cmdline>  (158) 
J2VwaWtfcHl0aG9uJywgJy1waHQnLCAnMi4wJywgJy1waCcsICc3LjAnLCAnLXRuJywgJzgnLCAnLW1hJywgJzIwMCcsICctaW1hZScsICc8aW5maWxlLm1hZT4nLCAnLW9tYWUnLCAnPG91dGZpbGUubWFlPic=

>  <r_lp_tautomer_probability>  (158) 
1

>  <r_epik_Ionization_Penalty>  (158) 
0.00363364

>  <r_epik_Ionization_Penalty_Charging>  (158) 
0.00265503

>  <r_epik_Ionization_Penalty_Neutral>  (158) 
0.000978608

>  <r_epik_State_Penalty>  (158) 
-0

>  <r_epik_Charging_Adjusted_Penalty>  (158) 
0.00265503

>  <i_epik_Tot_Q>  (158) 
1

>  <i_epik_Tot_abs_Q>  (158) 
1

>  <s_epik_Chemistry_Notes>  (158) 
This compound contains an acetal/aminal-like group ( X-CH(R)-Y where X, Y are N, S, or O) that may be acid/base labile, releasing an aldehyde.

>  <s_lp_Force_Field>  (158) 
OPLS3e

>  <r_lp_Energy>  (158) 
24.6293

>  <b_lp_Chiralities_Consistent>  (158) 
1

>  <s_lp_Variant>  (158) 
50:0-1

>  <s_i_glide_gridfile>  (158) 
pfpi4k_grid

>  <i_i_glide_lignum>  (158) 
30

>  <i_i_glide_rotatable_bonds>  (158) 
5

>  <r_i_docking_score>  (158) 
-2.99488

>  <r_i_glide_ligand_efficiency>  (158) 
-0.10696

>  <r_i_glide_ligand_efficiency_sa>  (158) 
-0.324794

>  <r_i_glide_ligand_efficiency_ln>  (158) 
-0.691307

>  <r_i_glide_gscore>  (158) 
-2.99488

>  <r_i_glide_lipo>  (158) 
-0.59099

>  <r_i_glide_hbond>  (158) 
-0.2

>  <r_i_glide_metal>  (158) 
-0

>  <r_i_glide_rewards>  (158) 
-0.901283

>  <r_i_glide_evdw>  (158) 
-22.0942

>  <r_i_glide_ecoul>  (158) 
-4.0769

>  <r_i_glide_erotb>  (158) 
0.51407

>  <r_i_glide_esite>  (158) 
-0.100435

>  <r_i_glide_emodel>  (158) 
-32.2161

>  <r_i_glide_energy>  (158) 
-26.1711

>  <r_i_glide_einternal>  (158) 
0.323966

>  <r_i_glide_intrahb_reward>  (158) 
-0

>  <i_i_glide_confnum>  (158) 
4

>  <i_i_glide_posenum>  (158) 
25

>  <r_i_glide_eff_state_penalty>  (158) 
0

>  <ligand_id>  (158) 
50

>  <original_smiles>  (158) 
CNCC1OC(n2cnc3c(=NC4CCCC4)[nH]cnc32)C2OC(C)(C)OC12

>  <smiles>  (158) 
[H]c1nc(N([H])C2([H])C([H])([H])C([H])([H])C([H])([H])C2([H])[H])c2nc([H])n(C3([H])OC([H])(C([H])([H])[N+]([H])([H])C([H])([H])[H])C4([H])OC(C([H])([H])[H])(C([H])([H])[H])OC34[H])c2n1

$$$$
50:0:1
     RDKit          3D

 57 61  0  0  1  0  0  0  0  0999 V2000
   -4.5637    3.7411    1.8227 C   0  0  0  0  0  0  0  0  0  0  0  0
   -3.3981    2.9590    2.2732 N   0  0  0  0  0  0  0  0  0  0  0  0
   -2.8063    3.4305    3.5435 C   0  0  0  0  0  0  0  0  0  0  0  0
   -1.4264    2.7806    3.7883 C   0  0  2  0  0  0  0  0  0  0  0  0
   -1.4800    1.3764    3.8941 O   0  0  0  0  0  0  0  0  0  0  0  0
   -0.3127    0.9147    4.5025 C   0  0  1  0  0  0  0  0  0  0  0  0
    0.7430    0.6485    3.4272 N   0  0  0  0  0  0  0  0  0  0  0  0
    1.3887    1.5268    2.5482 C   0  0  0  0  0  0  0  0  0  0  0  0
    2.2239    0.9817    1.7195 N   0  0  0  0  0  0  0  0  0  0  0  0
    2.2273   -0.3655    2.0450 C   0  0  0  0  0  0  0  0  0  0  0  0
    2.9462   -1.4564    1.5644 C   0  0  0  0  0  0  0  0  0  0  0  0
    3.8821   -1.2845    0.5904 N   0  0  0  0  0  0  0  0  0  0  0  0
    4.6372   -2.3817    0.0068 C   0  0  0  0  0  0  0  0  0  0  0  0
    5.8025   -1.8607   -0.8452 C   0  0  0  0  0  0  0  0  0  0  0  0
    6.1590   -3.0165   -1.7761 C   0  0  0  0  0  0  0  0  0  0  0  0
    4.8523   -3.7833   -2.0044 C   0  0  0  0  0  0  0  0  0  0  0  0
    3.8388   -3.2620   -0.9733 C   0  0  0  0  0  0  0  0  0  0  0  0
    2.7076   -2.6675    2.1185 N   0  0  0  0  0  0  0  0  0  0  0  0
    1.8074   -2.7659    3.1054 C   0  0  0  0  0  0  0  0  0  0  0  0
    1.0610   -1.8151    3.6768 N   0  0  0  0  0  0  0  0  0  0  0  0
    1.2968   -0.5908    3.1143 C   0  0  0  0  0  0  0  0  0  0  0  0
    0.1410    2.0174    5.5074 C   0  0  2  0  0  0  0  0  0  0  0  0
   -0.3363    1.7726    6.7982 O   0  0  0  0  0  0  0  0  0  0  0  0
   -0.8802    2.9666    7.2172 C   0  0  0  0  0  0  0  0  0  0  0  0
   -1.8868    2.7288    8.3725 C   0  0  0  0  0  0  0  0  0  0  0  0
    0.2453    3.9110    7.7377 C   0  0  0  0  0  0  0  0  0  0  0  0
   -1.5260    3.5551    6.1632 O   0  0  0  0  0  0  0  0  0  0  0  0
   -0.6931    3.2437    5.0703 C   0  0  2  0  0  0  0  0  0  0  0  0
    3.9543   -0.3934    0.1192 H   0  0  0  0  0  0  0  0  0  0  0  0
   -4.9847    3.3265    0.8981 H   0  0  0  0  0  0  0  0  0  0  0  0
   -4.2787    4.7804    1.6168 H   0  0  0  0  0  0  0  0  0  0  0  0
   -5.3523    3.7516    2.5821 H   0  0  0  0  0  0  0  0  0  0  0  0
   -3.6607    1.9817    2.4012 H   0  0  0  0  0  0  0  0  0  0  0  0
   -2.6276    4.5072    3.4599 H   0  0  0  0  0  0  0  0  0  0  0  0
   -3.4869    3.2320    4.3815 H   0  0  0  0  0  0  0  0  0  0  0  0
   -0.8321    3.0873    2.9234 H   0  0  0  0  0  0  0  0  0  0  0  0
   -0.5471   -0.0430    4.9496 H   0  0  0  0  0  0  0  0  0  0  0  0
    1.2597    2.5933    2.4546 H   0  0  0  0  0  0  0  0  0  0  0  0
    5.0637   -3.0314    0.7799 H   0  0  0  0  0  0  0  0  0  0  0  0
    5.4719   -1.0074   -1.4431 H   0  0  0  0  0  0  0  0  0  0  0  0
    6.6401   -1.5396   -0.2232 H   0  0  0  0  0  0  0  0  0  0  0  0
    6.6013   -2.6614   -2.7043 H   0  0  0  0  0  0  0  0  0  0  0  0
    6.8896   -3.6623   -1.2917 H   0  0  0  0  0  0  0  0  0  0  0  0
    4.4722   -3.6145   -3.0101 H   0  0  0  0  0  0  0  0  0  0  0  0
    5.0207   -4.8549   -1.9024 H   0  0  0  0  0  0  0  0  0  0  0  0
    3.3221   -4.0786   -0.4620 H   0  0  0  0  0  0  0  0  0  0  0  0
    3.0796   -2.6698   -1.4932 H   0  0  0  0  0  0  0  0  0  0  0  0
    1.6925   -3.7624    3.5006 H   0  0  0  0  0  0  0  0  0  0  0  0
    1.2240    2.1435    5.5154 H   0  0  0  0  0  0  0  0  0  0  0  0
   -2.7266    2.0670    8.1187 H   0  0  0  0  0  0  0  0  0  0  0  0
   -2.2878    3.6985    8.6871 H   0  0  0  0  0  0  0  0  0  0  0  0
   -1.3523    2.3329    9.2438 H   0  0  0  0  0  0  0  0  0  0  0  0
    1.0157    4.1642    6.9943 H   0  0  0  0  0  0  0  0  0  0  0  0
    0.7323    3.4374    8.5953 H   0  0  0  0  0  0  0  0  0  0  0  0
   -0.2169    4.8350    8.0955 H   0  0  0  0  0  0  0  0  0  0  0  0
   -0.0626    4.1113    4.8680 H   0  0  0  0  0  0  0  0  0  0  0  0
   -2.6996    2.9893    1.5321 H   0  0  0  0  0  0  0  0  0  0  0  0
  1  2  1  0
  1 30  1  0
  1 31  1  0
  1 32  1  0
  2  3  1  0
  2 33  1  0
  2 57  1  0
  3  4  1  0
  3 34  1  0
  3 35  1  0
  4 28  1  0
  4  5  1  0
  4 36  1  6
  5  6  1  0
  6 22  1  0
  6 37  1  1
  6  7  1  0
  7  8  1  0
  7 21  1  0
  8  9  2  0
  8 38  1  0
  9 10  1  0
 10 11  1  0
 10 21  2  0
 11 18  2  0
 11 12  1  0
 12 13  1  0
 12 29  1  0
 13 17  1  0
 13 14  1  0
 13 39  1  0
 14 15  1  0
 14 40  1  0
 14 41  1  0
 15 16  1  0
 15 42  1  0
 15 43  1  0
 16 17  1  0
 16 44  1  0
 16 45  1  0
 17 46  1  0
 17 47  1  0
 18 19  1  0
 19 48  1  0
 19 20  2  0
 20 21  1  0
 22 28  1  0
 22 23  1  0
 22 49  1  1
 23 24  1  0
 24 25  1  0
 24 26  1  0
 24 27  1  0
 25 50  1  0
 25 51  1  0
 25 52  1  0
 26 53  1  0
 26 54  1  0
 26 55  1  0
 27 28  1  0
 28 56  1  6
M  CHG  1   2   1
M  END
>  <i_m_ct_stereo_status>  (159) 
1

>  <s_m_source_file>  (159) 
/var/tmp/pbs.5076255.sched01/tmpniar21pp/41tndis9zi.sdf

>  <i_m_source_file_index>  (159) 
30

>  <i_lp_mmshare_version>  (159) 
48012

>  <i_f3d_flags>  (159) 
0

>  <s_epik_input>  (159) 
TzFDKFtDSDNdKShbQ0gzXSlPW0NAQEhdKFtDQEBIXTEyKVtDQEhdKFtDSDJdW05IXVtDSDNdKU9bQ0BIXTJuKFtjSF1uMyljKGMzNCluW2NIXVtuSF1jXDQ9TlxbQ0hdNVtDSDJdW0NIMl1bQ0gyXVtDSDJdNQ==

>  <s_epik_cmdline>  (159) 
J2VwaWtfcHl0aG9uJywgJy1waHQnLCAnMi4wJywgJy1waCcsICc3LjAnLCAnLXRuJywgJzgnLCAnLW1hJywgJzIwMCcsICctaW1hZScsICc8aW5maWxlLm1hZT4nLCAnLW9tYWUnLCAnPG91dGZpbGUubWFlPic=

>  <r_lp_tautomer_probability>  (159) 
1

>  <r_epik_Ionization_Penalty>  (159) 
0.00363364

>  <r_epik_Ionization_Penalty_Charging>  (159) 
0.00265503

>  <r_epik_Ionization_Penalty_Neutral>  (159) 
0.000978608

>  <r_epik_State_Penalty>  (159) 
-0

>  <r_epik_Charging_Adjusted_Penalty>  (159) 
0.00265503

>  <i_epik_Tot_Q>  (159) 
1

>  <i_epik_Tot_abs_Q>  (159) 
1

>  <s_epik_Chemistry_Notes>  (159) 
This compound contains an acetal/aminal-like group ( X-CH(R)-Y where X, Y are N, S, or O) that may be acid/base labile, releasing an aldehyde.

>  <s_lp_Force_Field>  (159) 
OPLS3e

>  <r_lp_Energy>  (159) 
24.6293

>  <b_lp_Chiralities_Consistent>  (159) 
1

>  <s_lp_Variant>  (159) 
50:0-1

>  <s_i_glide_gridfile>  (159) 
pfpi4k_grid

>  <i_i_glide_lignum>  (159) 
30

>  <i_i_glide_rotatable_bonds>  (159) 
5

>  <r_i_docking_score>  (159) 
-2.69111

>  <r_i_glide_ligand_efficiency>  (159) 
-0.0961109

>  <r_i_glide_ligand_efficiency_sa>  (159) 
-0.291849

>  <r_i_glide_ligand_efficiency_ln>  (159) 
-0.621186

>  <r_i_glide_gscore>  (159) 
-2.69111

>  <r_i_glide_lipo>  (159) 
-0.362022

>  <r_i_glide_hbond>  (159) 
0

>  <r_i_glide_metal>  (159) 
-0

>  <r_i_glide_rewards>  (159) 
-0.765608

>  <r_i_glide_evdw>  (159) 
-29.2964

>  <r_i_glide_ecoul>  (159) 
-3.37515

>  <r_i_glide_erotb>  (159) 
0.51407

>  <r_i_glide_esite>  (159) 
-0.106451

>  <r_i_glide_emodel>  (159) 
-37.217

>  <r_i_glide_energy>  (159) 
-32.6716

>  <r_i_glide_einternal>  (159) 
1.13132

>  <r_i_glide_intrahb_reward>  (159) 
-0

>  <i_i_glide_confnum>  (159) 
2

>  <i_i_glide_posenum>  (159) 
27

>  <r_i_glide_eff_state_penalty>  (159) 
0

>  <ligand_id>  (159) 
50

>  <original_smiles>  (159) 
CNCC1OC(n2cnc3c(=NC4CCCC4)[nH]cnc32)C2OC(C)(C)OC12

>  <smiles>  (159) 
[H]c1nc(N([H])C2([H])C([H])([H])C([H])([H])C([H])([H])C2([H])[H])c2nc([H])n(C3([H])OC([H])(C([H])([H])[N+]([H])([H])C([H])([H])[H])C4([H])OC(C([H])([H])[H])(C([H])([H])[H])OC34[H])c2n1

$$$$
50:0:2
     RDKit          3D

 57 61  0  0  1  0  0  0  0  0999 V2000
    3.2071   -2.0255   -2.8025 C   0  0  0  0  0  0  0  0  0  0  0  0
    3.0436   -2.1636   -1.3399 N   0  0  0  0  0  0  0  0  0  0  0  0
    3.3121   -3.5446   -0.8658 C   0  0  0  0  0  0  0  0  0  0  0  0
    2.8667   -3.7626    0.5831 C   0  0  2  0  0  0  0  0  0  0  0  0
    3.8166   -3.2438    1.4847 O   0  0  0  0  0  0  0  0  0  0  0  0
    3.5101   -3.7313    2.7611 C   0  0  1  0  0  0  0  0  0  0  0  0
    2.3903   -2.9000    3.3941 N   0  0  0  0  0  0  0  0  0  0  0  0
    1.4477   -3.2966    4.3399 C   0  0  0  0  0  0  0  0  0  0  0  0
    0.6527   -2.3666    4.7780 N   0  0  0  0  0  0  0  0  0  0  0  0
    1.0899   -1.2148    4.1462 C   0  0  0  0  0  0  0  0  0  0  0  0
    0.6822    0.1341    4.2110 C   0  0  0  0  0  0  0  0  0  0  0  0
   -0.3453    0.5025    5.0043 N   0  0  0  0  0  0  0  0  0  0  0  0
   -0.7677    1.8898    5.1832 C   0  0  0  0  0  0  0  0  0  0  0  0
   -1.6915    2.0319    6.3974 C   0  0  0  0  0  0  0  0  0  0  0  0
   -2.4575    3.3224    6.1529 C   0  0  0  0  0  0  0  0  0  0  0  0
   -2.5623    3.4640    4.6310 C   0  0  0  0  0  0  0  0  0  0  0  0
   -1.6000    2.4431    4.0160 C   0  0  0  0  0  0  0  0  0  0  0  0
    1.3472    1.0361    3.4504 N   0  0  0  0  0  0  0  0  0  0  0  0
    2.3737    0.6302    2.6978 C   0  0  0  0  0  0  0  0  0  0  0  0
    2.8821   -0.5999    2.5604 N   0  0  0  0  0  0  0  0  0  0  0  0
    2.1888   -1.5245    3.2948 C   0  0  0  0  0  0  0  0  0  0  0  0
    3.0539   -5.2013    2.5336 C   0  0  2  0  0  0  0  0  0  0  0  0
    4.1077   -6.1203    2.6512 O   0  0  0  0  0  0  0  0  0  0  0  0
    4.0021   -6.9321    1.5357 C   0  0  0  0  0  0  0  0  0  0  0  0
    5.3511   -7.6114    1.2481 C   0  0  0  0  0  0  0  0  0  0  0  0
    2.9352   -8.0336    1.7788 C   0  0  0  0  0  0  0  0  0  0  0  0
    3.6438   -6.1559    0.4590 O   0  0  0  0  0  0  0  0  0  0  0  0
    2.7386   -5.2301    1.0351 C   0  0  2  0  0  0  0  0  0  0  0  0
   -0.9090   -0.1927    5.4653 H   0  0  0  0  0  0  0  0  0  0  0  0
    3.0015   -1.0009   -3.1232 H   0  0  0  0  0  0  0  0  0  0  0  0
    2.5305   -2.6812   -3.3618 H   0  0  0  0  0  0  0  0  0  0  0  0
    4.2276   -2.2739   -3.1109 H   0  0  0  0  0  0  0  0  0  0  0  0
    3.6467   -1.5132   -0.8660 H   0  0  0  0  0  0  0  0  0  0  0  0
    2.7597   -4.2486   -1.4898 H   0  0  0  0  0  0  0  0  0  0  0  0
    4.3754   -3.7928   -0.9688 H   0  0  0  0  0  0  0  0  0  0  0  0
    1.9035   -3.2760    0.7618 H   0  0  0  0  0  0  0  0  0  0  0  0
    4.3587   -3.5661    3.4168 H   0  0  0  0  0  0  0  0  0  0  0  0
    1.3403   -4.2786    4.7779 H   0  0  0  0  0  0  0  0  0  0  0  0
    0.0894    2.5519    5.3421 H   0  0  0  0  0  0  0  0  0  0  0  0
   -2.4029    1.2078    6.4367 H   0  0  0  0  0  0  0  0  0  0  0  0
   -1.1407    2.0488    7.3396 H   0  0  0  0  0  0  0  0  0  0  0  0
   -3.4280    3.3045    6.6408 H   0  0  0  0  0  0  0  0  0  0  0  0
   -1.8935    4.1501    6.5744 H   0  0  0  0  0  0  0  0  0  0  0  0
   -3.5728    3.2502    4.2874 H   0  0  0  0  0  0  0  0  0  0  0  0
   -2.3089    4.4760    4.3228 H   0  0  0  0  0  0  0  0  0  0  0  0
   -0.9736    2.8825    3.2351 H   0  0  0  0  0  0  0  0  0  0  0  0
   -2.1905    1.6493    3.5598 H   0  0  0  0  0  0  0  0  0  0  0  0
    2.8412    1.4059    2.1084 H   0  0  0  0  0  0  0  0  0  0  0  0
    2.2307   -5.5460    3.1661 H   0  0  0  0  0  0  0  0  0  0  0  0
    6.1936   -6.9320    1.0552 H   0  0  0  0  0  0  0  0  0  0  0  0
    5.2177   -8.2710    0.3904 H   0  0  0  0  0  0  0  0  0  0  0  0
    5.6104   -8.2900    2.0630 H   0  0  0  0  0  0  0  0  0  0  0  0
    1.9163   -7.6658    1.9866 H   0  0  0  0  0  0  0  0  0  0  0  0
    3.2603   -8.6589    2.6184 H   0  0  0  0  0  0  0  0  0  0  0  0
    2.9079   -8.6873    0.9001 H   0  0  0  0  0  0  0  0  0  0  0  0
    1.7297   -5.5966    0.8519 H   0  0  0  0  0  0  0  0  0  0  0  0
    2.0765   -1.8649   -1.1288 H   0  0  0  0  0  0  0  0  0  0  0  0
  1  2  1  0
  1 30  1  0
  1 31  1  0
  1 32  1  0
  2  3  1  0
  2 33  1  0
  2 57  1  0
  3  4  1  0
  3 34  1  0
  3 35  1  0
  4 28  1  0
  4  5  1  0
  4 36  1  6
  5  6  1  0
  6 22  1  0
  6 37  1  1
  6  7  1  0
  7  8  1  0
  7 21  1  0
  8  9  2  0
  8 38  1  0
  9 10  1  0
 10 11  1  0
 10 21  2  0
 11 18  2  0
 11 12  1  0
 12 13  1  0
 12 29  1  0
 13 17  1  0
 13 14  1  0
 13 39  1  0
 14 15  1  0
 14 40  1  0
 14 41  1  0
 15 16  1  0
 15 42  1  0
 15 43  1  0
 16 17  1  0
 16 44  1  0
 16 45  1  0
 17 46  1  0
 17 47  1  0
 18 19  1  0
 19 48  1  0
 19 20  2  0
 20 21  1  0
 22 28  1  0
 22 23  1  0
 22 49  1  1
 23 24  1  0
 24 25  1  0
 24 26  1  0
 24 27  1  0
 25 50  1  0
 25 51  1  0
 25 52  1  0
 26 53  1  0
 26 54  1  0
 26 55  1  0
 27 28  1  0
 28 56  1  1
M  CHG  1   2   1
M  END
>  <i_m_ct_stereo_status>  (160) 
1

>  <s_m_source_file>  (160) 
/var/tmp/pbs.5076255.sched01/tmpniar21pp/41tndis9zi.sdf

>  <i_m_source_file_index>  (160) 
30

>  <i_lp_mmshare_version>  (160) 
48012

>  <i_f3d_flags>  (160) 
0

>  <s_epik_input>  (160) 
TzFDKFtDSDNdKShbQ0gzXSlPW0NAQEhdKFtDQEBIXTEyKVtDQEhdKFtDSDJdW05IXVtDSDNdKU9bQ0BIXTJuKFtjSF1uMyljKGMzNCluW2NIXVtuSF1jXDQ9TlxbQ0hdNVtDSDJdW0NIMl1bQ0gyXVtDSDJdNQ==

>  <s_epik_cmdline>  (160) 
J2VwaWtfcHl0aG9uJywgJy1waHQnLCAnMi4wJywgJy1waCcsICc3LjAnLCAnLXRuJywgJzgnLCAnLW1hJywgJzIwMCcsICctaW1hZScsICc8aW5maWxlLm1hZT4nLCAnLW9tYWUnLCAnPG91dGZpbGUubWFlPic=

>  <r_lp_tautomer_probability>  (160) 
1

>  <r_epik_Ionization_Penalty>  (160) 
0.00363364

>  <r_epik_Ionization_Penalty_Charging>  (160) 
0.00265503

>  <r_epik_Ionization_Penalty_Neutral>  (160) 
0.000978608

>  <r_epik_State_Penalty>  (160) 
-0

>  <r_epik_Charging_Adjusted_Penalty>  (160) 
0.00265503

>  <i_epik_Tot_Q>  (160) 
1

>  <i_epik_Tot_abs_Q>  (160) 
1

>  <s_epik_Chemistry_Notes>  (160) 
This compound contains an acetal/aminal-like group ( X-CH(R)-Y where X, Y are N, S, or O) that may be acid/base labile, releasing an aldehyde.

>  <s_lp_Force_Field>  (160) 
OPLS3e

>  <r_lp_Energy>  (160) 
24.6293

>  <b_lp_Chiralities_Consistent>  (160) 
1

>  <s_lp_Variant>  (160) 
50:0-1

>  <s_i_glide_gridfile>  (160) 
pfpi4k_grid

>  <i_i_glide_lignum>  (160) 
30

>  <i_i_glide_rotatable_bonds>  (160) 
5

>  <r_i_docking_score>  (160) 
-2.67182

>  <r_i_glide_ligand_efficiency>  (160) 
-0.0954221

>  <r_i_glide_ligand_efficiency_sa>  (160) 
-0.289758

>  <r_i_glide_ligand_efficiency_ln>  (160) 
-0.616734

>  <r_i_glide_gscore>  (160) 
-2.67182

>  <r_i_glide_lipo>  (160) 
-0.195841

>  <r_i_glide_hbond>  (160) 
-0.2

>  <r_i_glide_metal>  (160) 
-0

>  <r_i_glide_rewards>  (160) 
-0.867371

>  <r_i_glide_evdw>  (160) 
-23.7276

>  <r_i_glide_ecoul>  (160) 
-4.19832

>  <r_i_glide_erotb>  (160) 
0.51407

>  <r_i_glide_esite>  (160) 
-0.10655

>  <r_i_glide_emodel>  (160) 
-32.1948

>  <r_i_glide_energy>  (160) 
-27.9259

>  <r_i_glide_einternal>  (160) 
2.37543

>  <r_i_glide_intrahb_reward>  (160) 
-0

>  <i_i_glide_confnum>  (160) 
4

>  <i_i_glide_posenum>  (160) 
20

>  <r_i_glide_eff_state_penalty>  (160) 
0

>  <ligand_id>  (160) 
50

>  <original_smiles>  (160) 
CNCC1OC(n2cnc3c(=NC4CCCC4)[nH]cnc32)C2OC(C)(C)OC12

>  <smiles>  (160) 
[H]c1nc(N([H])C2([H])C([H])([H])C([H])([H])C([H])([H])C2([H])[H])c2nc([H])n(C3([H])OC([H])(C([H])([H])[N+]([H])([H])C([H])([H])[H])C4([H])OC(C([H])([H])[H])(C([H])([H])[H])OC34[H])c2n1

$$$$
51:0:0
     RDKit          3D

 19 21  0  0  1  0  0  0  0  0999 V2000
    0.2550   -7.5431    1.7037 C   0  0  0  0  0  0  0  0  0  0  0  0
    0.2566   -8.4010    2.8398 C   0  0  0  0  0  0  0  0  0  0  0  0
    0.2324   -7.5343    3.8986 C   0  0  0  0  0  0  0  0  0  0  0  0
    0.2239   -7.7543    5.3489 C   0  0  0  0  0  0  0  0  0  0  0  0
    0.2219   -9.0760    5.8673 C   0  0  0  0  0  0  0  0  0  0  0  0
    0.2250   -9.2813    7.2248 C   0  0  0  0  0  0  0  0  0  0  0  0
    0.2274   -8.1493    8.0705 C   0  0  0  0  0  0  0  0  0  0  0  0
    0.2134   -7.9654    9.3936 N   0  0  0  0  0  0  0  0  0  0  0  0
    0.2179   -6.5978    9.6201 N   0  0  0  0  0  0  0  0  0  0  0  0
    0.2253   -5.9835    8.4343 C   0  0  0  0  0  0  0  0  0  0  0  0
    0.2280   -6.8984    7.4275 N   0  0  0  0  0  0  0  0  0  0  0  0
    0.2205   -6.6386    6.0897 N   0  0  0  0  0  0  0  0  0  0  0  0
    0.2139   -6.2528    3.4356 O   0  0  0  0  0  0  0  0  0  0  0  0
    0.2183   -6.2692    2.0368 N   0  0  0  0  0  0  0  0  0  0  0  0
    0.2691   -7.7941    0.6534 H   0  0  0  0  0  0  0  0  0  0  0  0
    0.2761   -9.4806    2.8661 H   0  0  0  0  0  0  0  0  0  0  0  0
    0.2142   -9.9397    5.2115 H   0  0  0  0  0  0  0  0  0  0  0  0
    0.2290  -10.2791    7.6493 H   0  0  0  0  0  0  0  0  0  0  0  0
    0.2244   -4.9118    8.3036 H   0  0  0  0  0  0  0  0  0  0  0  0
  1 14  2  0
  1  2  1  0
  1 15  1  0
  2  3  2  0
  2 16  1  0
  3  4  1  0
  3 13  1  0
  4 12  2  0
  4  5  1  0
  5  6  2  0
  5 17  1  0
  6  7  1  0
  6 18  1  0
  7 11  1  0
  7  8  2  0
  8  9  1  0
  9 10  2  0
 10 11  1  0
 10 19  1  0
 11 12  1  0
 13 14  1  0
M  END
>  <i_m_ct_stereo_status>  (161) 
1

>  <s_m_source_file>  (161) 
/var/tmp/pbs.5076255.sched01/tmpniar21pp/41tndis9zi.sdf

>  <i_m_source_file_index>  (161) 
31

>  <i_lp_mmshare_version>  (161) 
48012

>  <i_f3d_flags>  (161) 
0

>  <s_epik_input>  (161) 
bzFuW2NIXVtjSF1jMS1jKFtjSF1bY0hdMilubihjMjMpW2NIXW5uMw==

>  <s_epik_cmdline>  (161) 
J2VwaWtfcHl0aG9uJywgJy1waHQnLCAnMi4wJywgJy1waCcsICc3LjAnLCAnLXRuJywgJzgnLCAnLW1hJywgJzIwMCcsICctaW1hZScsICc8aW5maWxlLm1hZT4nLCAnLW9tYWUnLCAnPG91dGZpbGUubWFlPic=

>  <r_lp_tautomer_probability>  (161) 
1

>  <r_epik_Ionization_Penalty>  (161) 
1.70066e-08

>  <r_epik_Ionization_Penalty_Charging>  (161) 
0

>  <r_epik_Ionization_Penalty_Neutral>  (161) 
1.70066e-08

>  <r_epik_State_Penalty>  (161) 
-0

>  <r_epik_Charging_Adjusted_Penalty>  (161) 
0

>  <i_epik_Tot_Q>  (161) 
0

>  <i_epik_Tot_abs_Q>  (161) 
0

>  <s_lp_Force_Field>  (161) 
OPLS3e

>  <r_lp_Energy>  (161) 
14.5352

>  <b_lp_Chiralities_Consistent>  (161) 
1

>  <s_lp_Variant>  (161) 
51:0-1

>  <s_i_glide_gridfile>  (161) 
pfpi4k_grid

>  <i_i_glide_lignum>  (161) 
31

>  <i_i_glide_rotatable_bonds>  (161) 
1

>  <r_i_docking_score>  (161) 
-3.72017

>  <r_i_glide_ligand_efficiency>  (161) 
-0.265726

>  <r_i_glide_ligand_efficiency_sa>  (161) 
-0.640438

>  <r_i_glide_ligand_efficiency_ln>  (161) 
-1.02229

>  <r_i_glide_gscore>  (161) 
-3.72017

>  <r_i_glide_lipo>  (161) 
0

>  <r_i_glide_hbond>  (161) 
0

>  <r_i_glide_metal>  (161) 
-0

>  <r_i_glide_rewards>  (161) 
-2.13301

>  <r_i_glide_evdw>  (161) 
-13.8037

>  <r_i_glide_ecoul>  (161) 
-6.8646

>  <r_i_glide_erotb>  (161) 
0.455865

>  <r_i_glide_esite>  (161) 
-0.323148

>  <r_i_glide_emodel>  (161) 
-26.6799

>  <r_i_glide_energy>  (161) 
-20.6683

>  <r_i_glide_einternal>  (161) 
0.20278

>  <r_i_glide_intrahb_reward>  (161) 
-0

>  <i_i_glide_confnum>  (161) 
2

>  <i_i_glide_posenum>  (161) 
27

>  <r_i_glide_eff_state_penalty>  (161) 
0

>  <ligand_id>  (161) 
51

>  <original_smiles>  (161) 
c1cc(-c2ccc3nncn3n2)on1

>  <smiles>  (161) 
[H]c1noc(-c2nn3c([H])nnc3c([H])c2[H])c1[H]

$$$$
51:0:1
     RDKit          3D

 19 21  0  0  1  0  0  0  0  0999 V2000
    0.1924   -3.5486    5.5838 C   0  0  0  0  0  0  0  0  0  0  0  0
    0.4687   -2.5148    4.6437 C   0  0  0  0  0  0  0  0  0  0  0  0
   -0.3776   -1.5045    5.0138 C   0  0  0  0  0  0  0  0  0  0  0  0
   -0.6012   -0.1610    4.4703 C   0  0  0  0  0  0  0  0  0  0  0  0
   -0.0490    0.2030    3.2102 C   0  0  0  0  0  0  0  0  0  0  0  0
   -0.2800    1.4585    2.7006 C   0  0  0  0  0  0  0  0  0  0  0  0
   -1.0525    2.3593    3.4726 C   0  0  0  0  0  0  0  0  0  0  0  0
   -1.4634    3.6202    3.3156 N   0  0  0  0  0  0  0  0  0  0  0  0
   -2.1840    3.9642    4.4444 N   0  0  0  0  0  0  0  0  0  0  0  0
   -2.2066    2.9085    5.2575 C   0  0  0  0  0  0  0  0  0  0  0  0
   -1.5261    1.8701    4.7032 N   0  0  0  0  0  0  0  0  0  0  0  0
   -1.3490    0.6323    5.2438 N   0  0  0  0  0  0  0  0  0  0  0  0
   -1.1285   -1.9063    6.0783 O   0  0  0  0  0  0  0  0  0  0  0  0
   -0.7532   -3.2026    6.4417 N   0  0  0  0  0  0  0  0  0  0  0  0
    0.6264   -4.5345    5.6669 H   0  0  0  0  0  0  0  0  0  0  0  0
    1.1772   -2.5162    3.8278 H   0  0  0  0  0  0  0  0  0  0  0  0
    0.5326   -0.5034    2.6318 H   0  0  0  0  0  0  0  0  0  0  0  0
    0.1086    1.7807    1.7366 H   0  0  0  0  0  0  0  0  0  0  0  0
   -2.7107    2.8893    6.2124 H   0  0  0  0  0  0  0  0  0  0  0  0
  1 14  2  0
  1  2  1  0
  1 15  1  0
  2  3  2  0
  2 16  1  0
  3  4  1  0
  3 13  1  0
  4 12  2  0
  4  5  1  0
  5  6  2  0
  5 17  1  0
  6  7  1  0
  6 18  1  0
  7 11  1  0
  7  8  2  0
  8  9  1  0
  9 10  2  0
 10 11  1  0
 10 19  1  0
 11 12  1  0
 13 14  1  0
M  END
>  <i_m_ct_stereo_status>  (162) 
1

>  <s_m_source_file>  (162) 
/var/tmp/pbs.5076255.sched01/tmpniar21pp/41tndis9zi.sdf

>  <i_m_source_file_index>  (162) 
31

>  <i_lp_mmshare_version>  (162) 
48012

>  <i_f3d_flags>  (162) 
0

>  <s_epik_input>  (162) 
bzFuW2NIXVtjSF1jMS1jKFtjSF1bY0hdMilubihjMjMpW2NIXW5uMw==

>  <s_epik_cmdline>  (162) 
J2VwaWtfcHl0aG9uJywgJy1waHQnLCAnMi4wJywgJy1waCcsICc3LjAnLCAnLXRuJywgJzgnLCAnLW1hJywgJzIwMCcsICctaW1hZScsICc8aW5maWxlLm1hZT4nLCAnLW9tYWUnLCAnPG91dGZpbGUubWFlPic=

>  <r_lp_tautomer_probability>  (162) 
1

>  <r_epik_Ionization_Penalty>  (162) 
1.70066e-08

>  <r_epik_Ionization_Penalty_Charging>  (162) 
0

>  <r_epik_Ionization_Penalty_Neutral>  (162) 
1.70066e-08

>  <r_epik_State_Penalty>  (162) 
-0

>  <r_epik_Charging_Adjusted_Penalty>  (162) 
0

>  <i_epik_Tot_Q>  (162) 
0

>  <i_epik_Tot_abs_Q>  (162) 
0

>  <s_lp_Force_Field>  (162) 
OPLS3e

>  <r_lp_Energy>  (162) 
14.5352

>  <b_lp_Chiralities_Consistent>  (162) 
1

>  <s_lp_Variant>  (162) 
51:0-1

>  <s_i_glide_gridfile>  (162) 
pfpi4k_grid

>  <i_i_glide_lignum>  (162) 
31

>  <i_i_glide_rotatable_bonds>  (162) 
1

>  <r_i_docking_score>  (162) 
-3.62161

>  <r_i_glide_ligand_efficiency>  (162) 
-0.258687

>  <r_i_glide_ligand_efficiency_sa>  (162) 
-0.623471

>  <r_i_glide_ligand_efficiency_ln>  (162) 
-0.995206

>  <r_i_glide_gscore>  (162) 
-3.62161

>  <r_i_glide_lipo>  (162) 
-0.0331418

>  <r_i_glide_hbond>  (162) 
0

>  <r_i_glide_metal>  (162) 
-0

>  <r_i_glide_rewards>  (162) 
-2.13301

>  <r_i_glide_evdw>  (162) 
-16.4046

>  <r_i_glide_ecoul>  (162) 
-5.29318

>  <r_i_glide_erotb>  (162) 
0.455865

>  <r_i_glide_esite>  (162) 
-0.297117

>  <r_i_glide_emodel>  (162) 
-27.4623

>  <r_i_glide_energy>  (162) 
-21.6977

>  <r_i_glide_einternal>  (162) 
0.357954

>  <r_i_glide_intrahb_reward>  (162) 
-0

>  <i_i_glide_confnum>  (162) 
4

>  <i_i_glide_posenum>  (162) 
5

>  <r_i_glide_eff_state_penalty>  (162) 
0

>  <ligand_id>  (162) 
51

>  <original_smiles>  (162) 
c1cc(-c2ccc3nncn3n2)on1

>  <smiles>  (162) 
[H]c1noc(-c2nn3c([H])nnc3c([H])c2[H])c1[H]

$$$$
51:0:2
     RDKit          3D

 19 21  0  0  1  0  0  0  0  0999 V2000
   -0.9223   -8.2517    2.0989 C   0  0  0  0  0  0  0  0  0  0  0  0
   -0.7605   -8.9450    3.3310 C   0  0  0  0  0  0  0  0  0  0  0  0
   -0.3036   -7.9812    4.1897 C   0  0  0  0  0  0  0  0  0  0  0  0
    0.0653   -8.0344    5.6045 C   0  0  0  0  0  0  0  0  0  0  0  0
    0.2148   -9.2841    6.2602 C   0  0  0  0  0  0  0  0  0  0  0  0
    0.5582   -9.3213    7.5917 C   0  0  0  0  0  0  0  0  0  0  0  0
    0.7315   -8.0929    8.2682 C   0  0  0  0  0  0  0  0  0  0  0  0
    1.0293   -7.7498    9.5261 N   0  0  0  0  0  0  0  0  0  0  0  0
    1.0461   -6.3658    9.5805 N   0  0  0  0  0  0  0  0  0  0  0  0
    0.7645   -5.9012    8.3626 C   0  0  0  0  0  0  0  0  0  0  0  0
    0.5528   -6.9304    7.5004 N   0  0  0  0  0  0  0  0  0  0  0  0
    0.2232   -6.8359    6.1837 N   0  0  0  0  0  0  0  0  0  0  0  0
   -0.1995   -6.7936    3.5288 O   0  0  0  0  0  0  0  0  0  0  0  0
   -0.5883   -6.9785    2.1955 N   0  0  0  0  0  0  0  0  0  0  0  0
   -1.2892   -8.6218    1.1577 H   0  0  0  0  0  0  0  0  0  0  0  0
   -0.9611   -9.9812    3.5596 H   0  0  0  0  0  0  0  0  0  0  0  0
    0.0621  -10.2219    5.7343 H   0  0  0  0  0  0  0  0  0  0  0  0
    0.6998  -10.2554    8.1186 H   0  0  0  0  0  0  0  0  0  0  0  0
    0.7045   -4.8533    8.1143 H   0  0  0  0  0  0  0  0  0  0  0  0
  1 14  2  0
  1  2  1  0
  1 15  1  0
  2  3  2  0
  2 16  1  0
  3  4  1  0
  3 13  1  0
  4 12  2  0
  4  5  1  0
  5  6  2  0
  5 17  1  0
  6  7  1  0
  6 18  1  0
  7 11  1  0
  7  8  2  0
  8  9  1  0
  9 10  2  0
 10 11  1  0
 10 19  1  0
 11 12  1  0
 13 14  1  0
M  END
>  <i_m_ct_stereo_status>  (163) 
1

>  <s_m_source_file>  (163) 
/var/tmp/pbs.5076255.sched01/tmpniar21pp/41tndis9zi.sdf

>  <i_m_source_file_index>  (163) 
31

>  <i_lp_mmshare_version>  (163) 
48012

>  <i_f3d_flags>  (163) 
0

>  <s_epik_input>  (163) 
bzFuW2NIXVtjSF1jMS1jKFtjSF1bY0hdMilubihjMjMpW2NIXW5uMw==

>  <s_epik_cmdline>  (163) 
J2VwaWtfcHl0aG9uJywgJy1waHQnLCAnMi4wJywgJy1waCcsICc3LjAnLCAnLXRuJywgJzgnLCAnLW1hJywgJzIwMCcsICctaW1hZScsICc8aW5maWxlLm1hZT4nLCAnLW9tYWUnLCAnPG91dGZpbGUubWFlPic=

>  <r_lp_tautomer_probability>  (163) 
1

>  <r_epik_Ionization_Penalty>  (163) 
1.70066e-08

>  <r_epik_Ionization_Penalty_Charging>  (163) 
0

>  <r_epik_Ionization_Penalty_Neutral>  (163) 
1.70066e-08

>  <r_epik_State_Penalty>  (163) 
-0

>  <r_epik_Charging_Adjusted_Penalty>  (163) 
0

>  <i_epik_Tot_Q>  (163) 
0

>  <i_epik_Tot_abs_Q>  (163) 
0

>  <s_lp_Force_Field>  (163) 
OPLS3e

>  <r_lp_Energy>  (163) 
14.5352

>  <b_lp_Chiralities_Consistent>  (163) 
1

>  <s_lp_Variant>  (163) 
51:0-1

>  <s_i_glide_gridfile>  (163) 
pfpi4k_grid

>  <i_i_glide_lignum>  (163) 
31

>  <i_i_glide_rotatable_bonds>  (163) 
1

>  <r_i_docking_score>  (163) 
-3.52179

>  <r_i_glide_ligand_efficiency>  (163) 
-0.251557

>  <r_i_glide_ligand_efficiency_sa>  (163) 
-0.606287

>  <r_i_glide_ligand_efficiency_ln>  (163) 
-0.967776

>  <r_i_glide_gscore>  (163) 
-3.52179

>  <r_i_glide_lipo>  (163) 
0

>  <r_i_glide_hbond>  (163) 
0

>  <r_i_glide_metal>  (163) 
-0

>  <r_i_glide_rewards>  (163) 
-2.13301

>  <r_i_glide_evdw>  (163) 
-14.8909

>  <r_i_glide_ecoul>  (163) 
-5.79197

>  <r_i_glide_erotb>  (163) 
0.455865

>  <r_i_glide_esite>  (163) 
-0.231304

>  <r_i_glide_emodel>  (163) 
-26.2763

>  <r_i_glide_energy>  (163) 
-20.6829

>  <r_i_glide_einternal>  (163) 
0.372842

>  <r_i_glide_intrahb_reward>  (163) 
-0

>  <i_i_glide_confnum>  (163) 
4

>  <i_i_glide_posenum>  (163) 
15

>  <r_i_glide_eff_state_penalty>  (163) 
0

>  <ligand_id>  (163) 
51

>  <original_smiles>  (163) 
c1cc(-c2ccc3nncn3n2)on1

>  <smiles>  (163) 
[H]c1noc(-c2nn3c([H])nnc3c([H])c2[H])c1[H]

$$$$
52:0:0
     RDKit          3D

 43 46  0  0  1  0  0  0  0  0999 V2000
    2.6047   -2.8271    1.7834 C   0  0  0  0  0  0  0  0  0  0  0  0
    4.1058   -2.4631    1.7195 C   0  0  1  0  0  0  0  0  0  0  0  0
    4.3467   -1.4712    2.8978 C   0  0  0  0  0  0  0  0  0  0  0  0
    4.1919   -2.1016    4.3026 C   0  0  0  0  0  0  0  0  0  0  0  0
    4.9556   -3.4357    4.4484 C   0  0  1  0  0  0  0  0  0  0  0  0
    4.6305   -4.0479    5.6732 O   0  0  0  0  0  0  0  0  0  0  0  0
    4.7032   -4.4085    3.2833 C   0  0  0  0  0  0  0  0  0  0  0  0
    4.9691   -3.7109    1.9737 C   0  0  0  0  0  0  0  0  0  0  0  0
    5.9562   -4.0681    1.1333 C   0  0  0  0  0  0  0  0  0  0  0  0
    6.3517   -3.2076   -0.0510 C   0  0  2  0  0  0  0  0  0  0  0  0
    7.6271   -3.4000   -0.3850 F   0  0  0  0  0  0  0  0  0  0  0  0
    6.0604   -1.7472    0.2932 C   0  0  0  0  0  0  0  0  0  0  0  0
    4.5160   -1.7799    0.3535 C   0  0  1  0  0  0  0  0  0  0  0  0
    4.2098   -2.5118   -1.0266 C   0  0  1  0  0  0  0  0  0  0  0  0
    2.8552   -3.2086   -1.2503 C   0  0  0  0  0  0  0  0  0  0  0  0
    2.4606   -3.0559   -2.7216 C   0  0  0  0  0  0  0  0  0  0  0  0
    3.0219   -1.7189   -3.1554 C   0  0  0  0  0  0  0  0  0  0  0  0
    4.1745   -1.4882   -2.1827 C   0  0  0  0  0  0  0  0  0  0  0  0
    4.9956   -0.6009   -2.3387 O   0  0  0  0  0  0  0  0  0  0  0  0
    5.4220   -3.4761   -1.2337 C   0  0  0  0  0  0  0  0  0  0  0  0
    1.9715   -2.0176    1.4030 H   0  0  0  0  0  0  0  0  0  0  0  0
    2.2435   -3.0274    2.7892 H   0  0  0  0  0  0  0  0  0  0  0  0
    2.3859   -3.7448    1.2428 H   0  0  0  0  0  0  0  0  0  0  0  0
    5.3410   -1.0413    2.8546 H   0  0  0  0  0  0  0  0  0  0  0  0
    3.6671   -0.6200    2.8106 H   0  0  0  0  0  0  0  0  0  0  0  0
    4.5604   -1.3979    5.0510 H   0  0  0  0  0  0  0  0  0  0  0  0
    3.1390   -2.2423    4.5460 H   0  0  0  0  0  0  0  0  0  0  0  0
    6.0189   -3.2069    4.4811 H   0  0  0  0  0  0  0  0  0  0  0  0
    3.7081   -4.2838    5.6632 H   0  0  0  0  0  0  0  0  0  0  0  0
    5.3507   -5.2827    3.3709 H   0  0  0  0  0  0  0  0  0  0  0  0
    3.6777   -4.7815    3.3032 H   0  0  0  0  0  0  0  0  0  0  0  0
    6.5874   -4.9199    1.3456 H   0  0  0  0  0  0  0  0  0  0  0  0
    6.5689   -1.4466    1.2084 H   0  0  0  0  0  0  0  0  0  0  0  0
    6.4465   -1.0900   -0.4764 H   0  0  0  0  0  0  0  0  0  0  0  0
    4.1166   -0.7655    0.3294 H   0  0  0  0  0  0  0  0  0  0  0  0
    2.8627   -4.2593   -0.9479 H   0  0  0  0  0  0  0  0  0  0  0  0
    2.0645   -2.7029   -0.7162 H   0  0  0  0  0  0  0  0  0  0  0  0
    2.8811   -3.8566   -3.3298 H   0  0  0  0  0  0  0  0  0  0  0  0
    1.3778   -3.0891   -2.8237 H   0  0  0  0  0  0  0  0  0  0  0  0
    3.3553   -1.7290   -4.1921 H   0  0  0  0  0  0  0  0  0  0  0  0
    2.2939   -0.9211   -3.0105 H   0  0  0  0  0  0  0  0  0  0  0  0
    5.9344   -3.2739   -2.1821 H   0  0  0  0  0  0  0  0  0  0  0  0
    5.1254   -4.5314   -1.2788 H   0  0  0  0  0  0  0  0  0  0  0  0
  2  1  1  6
  1 21  1  0
  1 22  1  0
  1 23  1  0
  2  8  1  0
  2 13  1  0
  2  3  1  0
  3  4  1  0
  3 24  1  0
  3 25  1  0
  4  5  1  0
  4 26  1  0
  4 27  1  0
  5  6  1  0
  5  7  1  0
  5 28  1  1
  6 29  1  0
  7  8  1  0
  7 30  1  0
  7 31  1  0
  8  9  2  0
  9 10  1  0
  9 32  1  0
 10 20  1  0
 10 11  1  6
 10 12  1  0
 12 13  1  0
 12 33  1  0
 12 34  1  0
 13 14  1  0
 13 35  1  6
 14 18  1  0
 14 15  1  1
 14 20  1  0
 15 16  1  0
 15 36  1  0
 15 37  1  0
 16 17  1  0
 16 38  1  0
 16 39  1  0
 17 18  1  0
 17 40  1  0
 17 41  1  0
 18 19  2  0
 20 42  1  0
 20 43  1  0
M  END
>  <i_m_ct_stereo_status>  (164) 
1

>  <s_m_source_file>  (164) 
/var/tmp/pbs.5076255.sched01/tmpniar21pp/41tndis9zi.sdf

>  <i_m_source_file_index>  (164) 
32

>  <i_lp_mmshare_version>  (164) 
48012

>  <i_f3d_flags>  (164) 
0

>  <s_epik_input>  (164) 
W0NIMl0xW0NIMl1bQ0BASF0oW09IXSlbQ0gyXUMoPVtDSF1bQ0BdKEYpKFtDSDJdMilbQ0gyXTMpW0NAXTEoW0NIM10pW0NAQEhdMltDQF0zNFtDSDJdW0NIMl1bQ0gyXUM0PU8=

>  <s_epik_cmdline>  (164) 
J2VwaWtfcHl0aG9uJywgJy1waHQnLCAnMi4wJywgJy1waCcsICc3LjAnLCAnLXRuJywgJzgnLCAnLW1hJywgJzIwMCcsICctaW1hZScsICc8aW5maWxlLm1hZT4nLCAnLW9tYWUnLCAnPG91dGZpbGUubWFlPic=

>  <r_lp_tautomer_probability>  (164) 
1

>  <r_epik_Ionization_Penalty>  (164) 
4.72304e-07

>  <r_epik_Ionization_Penalty_Charging>  (164) 
0

>  <r_epik_Ionization_Penalty_Neutral>  (164) 
4.72304e-07

>  <r_epik_State_Penalty>  (164) 
-0

>  <r_epik_Charging_Adjusted_Penalty>  (164) 
0

>  <i_epik_Tot_Q>  (164) 
0

>  <i_epik_Tot_abs_Q>  (164) 
0

>  <s_lp_Force_Field>  (164) 
OPLS3e

>  <r_lp_Energy>  (164) 
42.9232

>  <b_lp_Chiralities_Consistent>  (164) 
1

>  <s_lp_Variant>  (164) 
52:0-1

>  <s_i_glide_gridfile>  (164) 
pfpi4k_grid

>  <i_i_glide_lignum>  (164) 
32

>  <i_i_glide_rotatable_bonds>  (164) 
1

>  <r_i_docking_score>  (164) 
-3.71387

>  <r_i_glide_ligand_efficiency>  (164) 
-0.185693

>  <r_i_glide_ligand_efficiency_sa>  (164) 
-0.50405

>  <r_i_glide_ligand_efficiency_ln>  (164) 
-0.929459

>  <r_i_glide_gscore>  (164) 
-3.71387

>  <r_i_glide_lipo>  (164) 
-0.536333

>  <r_i_glide_hbond>  (164) 
0

>  <r_i_glide_metal>  (164) 
-0

>  <r_i_glide_rewards>  (164) 
-1.77532

>  <r_i_glide_evdw>  (164) 
-22.7558

>  <r_i_glide_ecoul>  (164) 
-1.51201

>  <r_i_glide_erotb>  (164) 
0

>  <r_i_glide_esite>  (164) 
-0.037626

>  <r_i_glide_emodel>  (164) 
-29.8165

>  <r_i_glide_energy>  (164) 
-24.2678

>  <r_i_glide_einternal>  (164) 
0.00433696

>  <r_i_glide_intrahb_reward>  (164) 
-0

>  <i_i_glide_confnum>  (164) 
1

>  <i_i_glide_posenum>  (164) 
31

>  <r_i_glide_eff_state_penalty>  (164) 
0

>  <ligand_id>  (164) 
52

>  <original_smiles>  (164) 
CC12CCC(O)CC1=CC1(F)CC2C2(CCCC2=O)C1

>  <smiles>  (164) 
[H]OC1([H])C([H])([H])C2=C([H])C3(F)C([H])([H])C([H])(C2(C([H])([H])[H])C([H])([H])C1([H])[H])C1(C(=O)C([H])([H])C([H])([H])C1([H])[H])C3([H])[H]

$$$$
52:0:1
     RDKit          3D

 43 46  0  0  1  0  0  0  0  0999 V2000
    2.8615   -3.4275   -1.1539 C   0  0  0  0  0  0  0  0  0  0  0  0
    4.3783   -3.2004   -1.4475 C   0  0  1  0  0  0  0  0  0  0  0  0
    4.5705   -3.5931   -2.9383 C   0  0  0  0  0  0  0  0  0  0  0  0
    3.7594   -2.7187   -3.9183 C   0  0  0  0  0  0  0  0  0  0  0  0
    4.0025   -1.2211   -3.7065 C   0  0  1  0  0  0  0  0  0  0  0  0
    3.1552   -0.4409   -4.5177 O   0  0  0  0  0  0  0  0  0  0  0  0
    3.8734   -0.8156   -2.2425 C   0  0  0  0  0  0  0  0  0  0  0  0
    4.7069   -1.7101   -1.3557 C   0  0  0  0  0  0  0  0  0  0  0  0
    5.7499   -1.2485   -0.6394 C   0  0  0  0  0  0  0  0  0  0  0  0
    6.7423   -2.1676    0.0379 C   0  0  2  0  0  0  0  0  0  0  0  0
    7.9308   -1.5764    0.1677 F   0  0  0  0  0  0  0  0  0  0  0  0
    6.8252   -3.4495   -0.7780 C   0  0  0  0  0  0  0  0  0  0  0  0
    5.3958   -4.0214   -0.5333 C   0  0  1  0  0  0  0  0  0  0  0  0
    5.3382   -3.9044    1.0519 C   0  0  1  0  0  0  0  0  0  0  0  0
    3.9697   -3.8570    1.7952 C   0  0  0  0  0  0  0  0  0  0  0  0
    3.6089   -5.2972    2.1516 C   0  0  0  0  0  0  0  0  0  0  0  0
    4.9333   -5.9908    2.4624 C   0  0  0  0  0  0  0  0  0  0  0  0
    5.9534   -5.1823    1.6805 C   0  0  0  0  0  0  0  0  0  0  0  0
    7.1416   -5.5269    1.5947 O   0  0  0  0  0  0  0  0  0  0  0  0
    6.1859   -2.6446    1.3750 C   0  0  0  0  0  0  0  0  0  0  0  0
    2.6599   -4.4574   -0.8614 H   0  0  0  0  0  0  0  0  0  0  0  0
    2.2037   -3.2183   -1.9951 H   0  0  0  0  0  0  0  0  0  0  0  0
    2.4619   -2.7286   -0.4224 H   0  0  0  0  0  0  0  0  0  0  0  0
    5.6160   -3.5836   -3.2438 H   0  0  0  0  0  0  0  0  0  0  0  0
    4.2683   -4.6219   -3.0845 H   0  0  0  0  0  0  0  0  0  0  0  0
    4.0786   -2.9989   -4.9026 H   0  0  0  0  0  0  0  0  0  0  0  0
    2.6899   -2.9501   -3.9067 H   0  0  0  0  0  0  0  0  0  0  0  0
    5.0147   -0.9942   -4.0201 H   0  0  0  0  0  0  0  0  0  0  0  0
    2.2639   -0.5216   -4.1943 H   0  0  0  0  0  0  0  0  0  0  0  0
    4.2542    0.1954   -2.1360 H   0  0  0  0  0  0  0  0  0  0  0  0
    2.8262   -0.8501   -1.9237 H   0  0  0  0  0  0  0  0  0  0  0  0
    5.9775   -0.1949   -0.6106 H   0  0  0  0  0  0  0  0  0  0  0  0
    7.0997   -3.2555   -1.8176 H   0  0  0  0  0  0  0  0  0  0  0  0
    7.6114   -4.0938   -0.3874 H   0  0  0  0  0  0  0  0  0  0  0  0
    5.3662   -5.0679   -0.8462 H   0  0  0  0  0  0  0  0  0  0  0  0
    4.0784   -3.2756    2.7193 H   0  0  0  0  0  0  0  0  0  0  0  0
    3.1360   -3.4131    1.2904 H   0  0  0  0  0  0  0  0  0  0  0  0
    2.9051   -5.3205    2.9824 H   0  0  0  0  0  0  0  0  0  0  0  0
    3.1360   -5.7816    1.2966 H   0  0  0  0  0  0  0  0  0  0  0  0
    5.1526   -5.9064    3.5294 H   0  0  0  0  0  0  0  0  0  0  0  0
    4.9307   -7.0445    2.1674 H   0  0  0  0  0  0  0  0  0  0  0  0
    7.0048   -2.8901    2.0463 H   0  0  0  0  0  0  0  0  0  0  0  0
    5.6202   -1.8429    1.8568 H   0  0  0  0  0  0  0  0  0  0  0  0
  2  1  1  1
  1 21  1  0
  1 22  1  0
  1 23  1  0
  2  8  1  0
  2 13  1  0
  2  3  1  0
  3  4  1  0
  3 24  1  0
  3 25  1  0
  4  5  1  0
  4 26  1  0
  4 27  1  0
  5  6  1  0
  5  7  1  0
  5 28  1  6
  6 29  1  0
  7  8  1  0
  7 30  1  0
  7 31  1  0
  8  9  2  0
  9 10  1  0
  9 32  1  0
 10 20  1  0
 10 11  1  1
 10 12  1  0
 12 13  1  0
 12 33  1  0
 12 34  1  0
 13 14  1  0
 13 35  1  1
 14 18  1  0
 14 15  1  6
 14 20  1  0
 15 16  1  0
 15 36  1  0
 15 37  1  0
 16 17  1  0
 16 38  1  0
 16 39  1  0
 17 18  1  0
 17 40  1  0
 17 41  1  0
 18 19  2  0
 20 42  1  0
 20 43  1  0
M  END
>  <i_m_ct_stereo_status>  (165) 
1

>  <s_m_source_file>  (165) 
/var/tmp/pbs.5076255.sched01/tmpniar21pp/41tndis9zi.sdf

>  <i_m_source_file_index>  (165) 
32

>  <i_lp_mmshare_version>  (165) 
48012

>  <i_f3d_flags>  (165) 
0

>  <s_epik_input>  (165) 
W0NIMl0xW0NIMl1bQ0BASF0oW09IXSlbQ0gyXUMoPVtDSF1bQ0BdKEYpKFtDSDJdMilbQ0gyXTMpW0NAXTEoW0NIM10pW0NAQEhdMltDQF0zNFtDSDJdW0NIMl1bQ0gyXUM0PU8=

>  <s_epik_cmdline>  (165) 
J2VwaWtfcHl0aG9uJywgJy1waHQnLCAnMi4wJywgJy1waCcsICc3LjAnLCAnLXRuJywgJzgnLCAnLW1hJywgJzIwMCcsICctaW1hZScsICc8aW5maWxlLm1hZT4nLCAnLW9tYWUnLCAnPG91dGZpbGUubWFlPic=

>  <r_lp_tautomer_probability>  (165) 
1

>  <r_epik_Ionization_Penalty>  (165) 
4.72304e-07

>  <r_epik_Ionization_Penalty_Charging>  (165) 
0

>  <r_epik_Ionization_Penalty_Neutral>  (165) 
4.72304e-07

>  <r_epik_State_Penalty>  (165) 
-0

>  <r_epik_Charging_Adjusted_Penalty>  (165) 
0

>  <i_epik_Tot_Q>  (165) 
0

>  <i_epik_Tot_abs_Q>  (165) 
0

>  <s_lp_Force_Field>  (165) 
OPLS3e

>  <r_lp_Energy>  (165) 
42.9232

>  <b_lp_Chiralities_Consistent>  (165) 
1

>  <s_lp_Variant>  (165) 
52:0-1

>  <s_i_glide_gridfile>  (165) 
pfpi4k_grid

>  <i_i_glide_lignum>  (165) 
32

>  <i_i_glide_rotatable_bonds>  (165) 
1

>  <r_i_docking_score>  (165) 
-3.70357

>  <r_i_glide_ligand_efficiency>  (165) 
-0.185178

>  <r_i_glide_ligand_efficiency_sa>  (165) 
-0.502651

>  <r_i_glide_ligand_efficiency_ln>  (165) 
-0.92688

>  <r_i_glide_gscore>  (165) 
-3.70357

>  <r_i_glide_lipo>  (165) 
-0.716742

>  <r_i_glide_hbond>  (165) 
0

>  <r_i_glide_metal>  (165) 
-0

>  <r_i_glide_rewards>  (165) 
-1.59249

>  <r_i_glide_evdw>  (165) 
-22.902

>  <r_i_glide_ecoul>  (165) 
-1.3669

>  <r_i_glide_erotb>  (165) 
0

>  <r_i_glide_esite>  (165) 
-0.0442039

>  <r_i_glide_emodel>  (165) 
-29.435

>  <r_i_glide_energy>  (165) 
-24.2689

>  <r_i_glide_einternal>  (165) 
0.0725928

>  <r_i_glide_intrahb_reward>  (165) 
-0

>  <i_i_glide_confnum>  (165) 
2

>  <i_i_glide_posenum>  (165) 
10

>  <r_i_glide_eff_state_penalty>  (165) 
0

>  <ligand_id>  (165) 
52

>  <original_smiles>  (165) 
CC12CCC(O)CC1=CC1(F)CC2C2(CCCC2=O)C1

>  <smiles>  (165) 
[H]OC1([H])C([H])([H])C2=C([H])C3(F)C([H])([H])C([H])(C2(C([H])([H])[H])C([H])([H])C1([H])[H])C1(C(=O)C([H])([H])C([H])([H])C1([H])[H])C3([H])[H]

$$$$
52:0:2
     RDKit          3D

 43 46  0  0  1  0  0  0  0  0999 V2000
    2.8345   -3.4560   -1.1215 C   0  0  0  0  0  0  0  0  0  0  0  0
    4.3292   -3.1086   -1.3603 C   0  0  1  0  0  0  0  0  0  0  0  0
    4.6791   -3.5928   -2.7924 C   0  0  0  0  0  0  0  0  0  0  0  0
    3.9062   -2.8631   -3.9080 C   0  0  0  0  0  0  0  0  0  0  0  0
    3.9898   -1.3336   -3.7840 C   0  0  1  0  0  0  0  0  0  0  0  0
    3.1878   -0.6601   -4.7199 O   0  0  0  0  0  0  0  0  0  0  0  0
    3.6797   -0.8395   -2.3797 C   0  0  0  0  0  0  0  0  0  0  0  0
    4.5082   -1.5921   -1.3563 C   0  0  0  0  0  0  0  0  0  0  0  0
    5.4283   -0.9929   -0.5702 C   0  0  0  0  0  0  0  0  0  0  0  0
    6.4150   -1.7842    0.2593 C   0  0  2  0  0  0  0  0  0  0  0  0
    7.5264   -1.0832    0.4810 F   0  0  0  0  0  0  0  0  0  0  0  0
    6.6984   -3.0954   -0.4637 C   0  0  0  0  0  0  0  0  0  0  0  0
    5.3130   -3.7771   -0.3093 C   0  0  1  0  0  0  0  0  0  0  0  0
    5.0725   -3.5686    1.2486 C   0  0  1  0  0  0  0  0  0  0  0  0
    3.6350   -3.6180    1.8247 C   0  0  0  0  0  0  0  0  0  0  0  0
    3.7093   -4.2045    3.2272 C   0  0  0  0  0  0  0  0  0  0  0  0
    4.8592   -5.2001    3.1896 C   0  0  0  0  0  0  0  0  0  0  0  0
    5.7407   -4.6992    2.0657 C   0  0  0  0  0  0  0  0  0  0  0  0
    6.8661   -5.1600    1.8568 O   0  0  0  0  0  0  0  0  0  0  0  0
    5.7674   -2.2140    1.5693 C   0  0  0  0  0  0  0  0  0  0  0  0
    2.7028   -4.5150   -0.9057 H   0  0  0  0  0  0  0  0  0  0  0  0
    2.1883   -3.2394   -1.9758 H   0  0  0  0  0  0  0  0  0  0  0  0
    2.3973   -2.8536   -0.3248 H   0  0  0  0  0  0  0  0  0  0  0  0
    5.7372   -3.4658   -3.0088 H   0  0  0  0  0  0  0  0  0  0  0  0
    4.5162   -4.6556   -2.8877 H   0  0  0  0  0  0  0  0  0  0  0  0
    4.3758   -3.1998   -4.8194 H   0  0  0  0  0  0  0  0  0  0  0  0
    2.8614   -3.1772   -3.9648 H   0  0  0  0  0  0  0  0  0  0  0  0
    5.0086   -1.0292   -4.0201 H   0  0  0  0  0  0  0  0  0  0  0  0
    2.3025   -0.9764   -4.6257 H   0  0  0  0  0  0  0  0  0  0  0  0
    3.9301    0.2151   -2.3338 H   0  0  0  0  0  0  0  0  0  0  0  0
    2.6160   -0.9611   -2.1675 H   0  0  0  0  0  0  0  0  0  0  0  0
    5.5672    0.0720   -0.5706 H   0  0  0  0  0  0  0  0  0  0  0  0
    7.0462   -2.9371   -1.4850 H   0  0  0  0  0  0  0  0  0  0  0  0
    7.4945   -3.6392    0.0390 H   0  0  0  0  0  0  0  0  0  0  0  0
    5.3801   -4.8374   -0.5453 H   0  0  0  0  0  0  0  0  0  0  0  0
    3.1537   -2.6398    1.8324 H   0  0  0  0  0  0  0  0  0  0  0  0
    3.0066   -4.3147    1.2735 H   0  0  0  0  0  0  0  0  0  0  0  0
    3.8972   -3.4293    3.9683 H   0  0  0  0  0  0  0  0  0  0  0  0
    2.7717   -4.6947    3.4715 H   0  0  0  0  0  0  0  0  0  0  0  0
    5.4085   -5.2306    4.1268 H   0  0  0  0  0  0  0  0  0  0  0  0
    4.5245   -6.2054    2.9340 H   0  0  0  0  0  0  0  0  0  0  0  0
    6.5406   -2.3215    2.3314 H   0  0  0  0  0  0  0  0  0  0  0  0
    5.0984   -1.4293    1.9308 H   0  0  0  0  0  0  0  0  0  0  0  0
  2  1  1  1
  1 21  1  0
  1 22  1  0
  1 23  1  0
  2  8  1  0
  2 13  1  0
  2  3  1  0
  3  4  1  0
  3 24  1  0
  3 25  1  0
  4  5  1  0
  4 26  1  0
  4 27  1  0
  5  6  1  0
  5  7  1  0
  5 28  1  6
  6 29  1  0
  7  8  1  0
  7 30  1  0
  7 31  1  0
  8  9  2  0
  9 10  1  0
  9 32  1  0
 10 20  1  0
 10 11  1  1
 10 12  1  0
 12 13  1  0
 12 33  1  0
 12 34  1  0
 13 14  1  0
 13 35  1  1
 14 18  1  0
 14 15  1  6
 14 20  1  0
 15 16  1  0
 15 36  1  0
 15 37  1  0
 16 17  1  0
 16 38  1  0
 16 39  1  0
 17 18  1  0
 17 40  1  0
 17 41  1  0
 18 19  2  0
 20 42  1  0
 20 43  1  0
M  END
>  <i_m_ct_stereo_status>  (166) 
1

>  <s_m_source_file>  (166) 
/var/tmp/pbs.5076255.sched01/tmpniar21pp/41tndis9zi.sdf

>  <i_m_source_file_index>  (166) 
32

>  <i_lp_mmshare_version>  (166) 
48012

>  <i_f3d_flags>  (166) 
0

>  <s_epik_input>  (166) 
W0NIMl0xW0NIMl1bQ0BASF0oW09IXSlbQ0gyXUMoPVtDSF1bQ0BdKEYpKFtDSDJdMilbQ0gyXTMpW0NAXTEoW0NIM10pW0NAQEhdMltDQF0zNFtDSDJdW0NIMl1bQ0gyXUM0PU8=

>  <s_epik_cmdline>  (166) 
J2VwaWtfcHl0aG9uJywgJy1waHQnLCAnMi4wJywgJy1waCcsICc3LjAnLCAnLXRuJywgJzgnLCAnLW1hJywgJzIwMCcsICctaW1hZScsICc8aW5maWxlLm1hZT4nLCAnLW9tYWUnLCAnPG91dGZpbGUubWFlPic=

>  <r_lp_tautomer_probability>  (166) 
1

>  <r_epik_Ionization_Penalty>  (166) 
4.72304e-07

>  <r_epik_Ionization_Penalty_Charging>  (166) 
0

>  <r_epik_Ionization_Penalty_Neutral>  (166) 
4.72304e-07

>  <r_epik_State_Penalty>  (166) 
-0

>  <r_epik_Charging_Adjusted_Penalty>  (166) 
0

>  <i_epik_Tot_Q>  (166) 
0

>  <i_epik_Tot_abs_Q>  (166) 
0

>  <s_lp_Force_Field>  (166) 
OPLS3e

>  <r_lp_Energy>  (166) 
42.9232

>  <b_lp_Chiralities_Consistent>  (166) 
1

>  <s_lp_Variant>  (166) 
52:0-1

>  <s_i_glide_gridfile>  (166) 
pfpi4k_grid

>  <i_i_glide_lignum>  (166) 
32

>  <i_i_glide_rotatable_bonds>  (166) 
1

>  <r_i_docking_score>  (166) 
-3.65539

>  <r_i_glide_ligand_efficiency>  (166) 
-0.182769

>  <r_i_glide_ligand_efficiency_sa>  (166) 
-0.496113

>  <r_i_glide_ligand_efficiency_ln>  (166) 
-0.914823

>  <r_i_glide_gscore>  (166) 
-3.65539

>  <r_i_glide_lipo>  (166) 
-0.580642

>  <r_i_glide_hbond>  (166) 
-0.00726485

>  <r_i_glide_metal>  (166) 
-0

>  <r_i_glide_rewards>  (166) 
-1.55985

>  <r_i_glide_evdw>  (166) 
-22.2895

>  <r_i_glide_ecoul>  (166) 
-2.26262

>  <r_i_glide_erotb>  (166) 
0

>  <r_i_glide_esite>  (166) 
-0.0537656

>  <r_i_glide_emodel>  (166) 
-29.9864

>  <r_i_glide_energy>  (166) 
-24.5521

>  <r_i_glide_einternal>  (166) 
0.020986

>  <r_i_glide_intrahb_reward>  (166) 
-0

>  <i_i_glide_confnum>  (166) 
3

>  <i_i_glide_posenum>  (166) 
7

>  <r_i_glide_eff_state_penalty>  (166) 
0

>  <ligand_id>  (166) 
52

>  <original_smiles>  (166) 
CC12CCC(O)CC1=CC1(F)CC2C2(CCCC2=O)C1

>  <smiles>  (166) 
[H]OC1([H])C([H])([H])C2=C([H])C3(F)C([H])([H])C([H])(C2(C([H])([H])[H])C([H])([H])C1([H])[H])C1(C(=O)C([H])([H])C([H])([H])C1([H])[H])C3([H])[H]

$$$$
53:0:0
     RDKit          3D

 33 38  0  0  1  0  0  0  0  0999 V2000
    5.4981   -0.6699   -0.2608 C   0  0  0  0  0  0  0  0  0  0  0  0
    4.6934   -1.9060   -0.2525 N   0  0  1  0  0  0  0  0  0  0  0  0
    3.2336   -1.8657   -0.3902 C   0  0  2  0  0  0  0  0  0  0  0  0
    2.9106   -3.1762    0.2846 C   0  0  0  0  0  0  0  0  0  0  0  0
    3.5301   -3.8957   -0.8899 C   0  0  1  0  0  0  0  0  0  0  0  0
    2.4659   -3.4555   -2.1219 C   0  0  2  0  0  0  0  0  0  0  0  0
    2.7646   -2.8851   -3.7166 C   0  0  2  0  0  0  0  0  0  0  0  0
    3.3516   -1.5864   -4.4177 C   0  0  1  0  0  0  0  0  0  0  0  0
    3.0392   -0.0656   -4.3074 C   0  0  0  0  0  0  0  0  0  0  0  0
    4.2078    0.0320   -3.3539 C   0  0  0  0  0  0  0  0  0  0  0  0
    4.5657   -1.2538   -3.5425 C   0  0  0  0  0  0  0  0  0  0  0  0
    5.1894   -2.4023   -2.7145 C   0  0  2  0  0  0  0  0  0  0  0  0
    3.9415   -3.0077   -2.9658 C   0  0  1  0  0  0  0  0  0  0  0  0
    2.8550   -2.1587   -1.8967 C   0  0  2  0  0  0  0  0  0  0  0  0
    4.9833   -3.0105   -1.1713 C   0  0  1  0  0  0  0  0  0  0  0  0
    5.0250    0.1079    0.3250 H   0  0  0  0  0  0  0  0  0  0  0  0
    5.7069   -0.2804   -1.2404 H   0  0  0  0  0  0  0  0  0  0  0  0
    6.4571   -0.8677    0.2032 H   0  0  0  0  0  0  0  0  0  0  0  0
    2.7608   -0.9989    0.0736 H   0  0  0  0  0  0  0  0  0  0  0  0
    3.4066   -3.3636    1.2378 H   0  0  0  0  0  0  0  0  0  0  0  0
    1.8430   -3.3589    0.3783 H   0  0  0  0  0  0  0  0  0  0  0  0
    3.6479   -4.9675   -0.7394 H   0  0  0  0  0  0  0  0  0  0  0  0
    1.4083   -3.6224   -1.9352 H   0  0  0  0  0  0  0  0  0  0  0  0
    2.6184   -3.6896   -4.4321 H   0  0  0  0  0  0  0  0  0  0  0  0
    3.5355   -1.7681   -5.4558 H   0  0  0  0  0  0  0  0  0  0  0  0
    3.1256    0.4476   -5.2711 H   0  0  0  0  0  0  0  0  0  0  0  0
    2.0719    0.1879   -3.8963 H   0  0  0  0  0  0  0  0  0  0  0  0
    4.4455    0.7978   -2.6370 H   0  0  0  0  0  0  0  0  0  0  0  0
    5.9891   -2.8991   -3.2627 H   0  0  0  0  0  0  0  0  0  0  0  0
    4.1859   -4.0935   -3.1291 H   0  0  0  0  0  0  0  0  0  0  0  0
    2.2106   -1.3760   -2.3069 H   0  0  0  0  0  0  0  0  0  0  0  0
    5.8602   -3.5540   -0.8348 H   0  0  0  0  0  0  0  0  0  0  0  0
    4.8301   -2.2794    0.6750 H   0  0  0  0  0  0  0  0  0  0  0  0
  1  2  1  0
  1 16  1  0
  1 17  1  0
  1 18  1  0
  2 15  1  0
  2  3  1  0
  2 33  1  1
  3 14  1  0
  3  4  1  0
  3 19  1  1
  4  5  1  0
  4 20  1  0
  4 21  1  0
  5 15  1  0
  5  6  1  0
  5 22  1  1
  6 14  1  0
  6  7  1  0
  6 23  1  6
  7 13  1  0
  7  8  1  0
  7 24  1  6
  8 11  1  0
  8  9  1  0
  8 25  1  6
  9 10  1  0
  9 26  1  0
  9 27  1  0
 10 11  2  0
 10 28  1  0
 11 12  1  0
 12 13  1  0
 12 15  1  0
 12 29  1  6
 13 14  1  0
 13 30  1  1
 14 31  1  6
 15 32  1  1
M  CHG  1   2   1
M  END
>  <i_m_ct_stereo_status>  (167) 
1

>  <s_m_source_file>  (167) 
/var/tmp/pbs.5076255.sched01/tmpniar21pp/41tndis9zi.sdf

>  <i_m_source_file_index>  (167) 
33

>  <i_lp_mmshare_version>  (167) 
48012

>  <i_f3d_flags>  (167) 
0

>  <s_epik_input>  (167) 
W0NAQEhdMTJbQ0BASF0zW0NAQEhdNFtDQEhdKFtDSDJdMilbQ0BIXShOMVtDSDNdKVtDQEBIXTVDNltDQEBIXShbQ0BIXTRbQ0BIXTM1KVtDSDJdW0NIXT02

>  <s_epik_cmdline>  (167) 
J2VwaWtfcHl0aG9uJywgJy1waHQnLCAnMi4wJywgJy1waCcsICc3LjAnLCAnLXRuJywgJzgnLCAnLW1hJywgJzIwMCcsICctaW1hZScsICc8aW5maWxlLm1hZT4nLCAnLW9tYWUnLCAnPG91dGZpbGUubWFlPic=

>  <r_epik_Ionization_Penalty>  (167) 
0.00037989

>  <r_epik_Ionization_Penalty_Charging>  (167) 
0.00037989

>  <r_epik_Ionization_Penalty_Neutral>  (167) 
0

>  <r_epik_State_Penalty>  (167) 
0.000232024

>  <r_epik_Charging_Adjusted_Penalty>  (167) 
0.000611913

>  <i_epik_Tot_Q>  (167) 
1

>  <i_epik_Tot_abs_Q>  (167) 
1

>  <s_lp_Force_Field>  (167) 
OPLS3e

>  <r_lp_Energy>  (167) 
360.468

>  <b_lp_Chiralities_Consistent>  (167) 
1

>  <s_lp_Variant>  (167) 
53:0-1

>  <s_i_glide_gridfile>  (167) 
pfpi4k_grid

>  <i_i_glide_lignum>  (167) 
33

>  <i_i_glide_rotatable_bonds>  (167) 
0

>  <r_i_docking_score>  (167) 
-3.78393

>  <r_i_glide_ligand_efficiency>  (167) 
-0.252262

>  <r_i_glide_ligand_efficiency_sa>  (167) 
-0.622131

>  <r_i_glide_ligand_efficiency_ln>  (167) 
-1.02046

>  <r_i_glide_gscore>  (167) 
-3.78393

>  <r_i_glide_lipo>  (167) 
-0.888081

>  <r_i_glide_hbond>  (167) 
0

>  <r_i_glide_metal>  (167) 
-0

>  <r_i_glide_rewards>  (167) 
-2.04341

>  <r_i_glide_evdw>  (167) 
-9.17001

>  <r_i_glide_ecoul>  (167) 
-2.51921

>  <r_i_glide_erotb>  (167) 
0

>  <r_i_glide_esite>  (167) 
-0.0160494

>  <r_i_glide_emodel>  (167) 
-14.0927

>  <r_i_glide_energy>  (167) 
-11.6892

>  <r_i_glide_einternal>  (167) 
0

>  <r_i_glide_intrahb_reward>  (167) 
-0

>  <i_i_glide_confnum>  (167) 
2

>  <i_i_glide_posenum>  (167) 
30

>  <r_i_glide_eff_state_penalty>  (167) 
0

>  <ligand_id>  (167) 
53

>  <original_smiles>  (167) 
CN1C2CC3C4C5C6CC=C6C(C5C42)C31

>  <smiles>  (167) 
[H]C1=C2C([H])(C1([H])[H])C1([H])C3([H])C2([H])C2([H])C4([H])C([H])([H])C([H])(C3([H])C14[H])[N+]2([H])C([H])([H])[H]

$$$$
53:0:1
     RDKit          3D

 33 38  0  0  1  0  0  0  0  0999 V2000
    3.0658   -1.2476    0.8454 C   0  0  0  0  0  0  0  0  0  0  0  0
    3.9059   -2.4516    0.6786 N   0  0  1  0  0  0  0  0  0  0  0  0
    3.4515   -3.6009   -0.1122 C   0  0  2  0  0  0  0  0  0  0  0  0
    4.3112   -4.6673    0.5370 C   0  0  0  0  0  0  0  0  0  0  0  0
    5.5359   -4.0264   -0.0835 C   0  0  1  0  0  0  0  0  0  0  0  0
    5.2144   -4.2807   -1.7093 C   0  0  2  0  0  0  0  0  0  0  0  0
    5.3110   -3.2263   -3.0649 C   0  0  2  0  0  0  0  0  0  0  0  0
    4.5753   -1.9367   -3.6189 C   0  0  1  0  0  0  0  0  0  0  0  0
    3.0891   -1.6458   -3.9173 C   0  0  0  0  0  0  0  0  0  0  0  0
    3.0553   -0.9128   -2.5767 C   0  0  0  0  0  0  0  0  0  0  0  0
    4.3704   -1.0886   -2.3694 C   0  0  0  0  0  0  0  0  0  0  0  0
    5.3048   -1.3590   -1.1599 C   0  0  2  0  0  0  0  0  0  0  0  0
    5.5231   -2.5702   -1.8520 C   0  0  1  0  0  0  0  0  0  0  0  0
    4.0802   -3.5112   -1.5529 C   0  0  2  0  0  0  0  0  0  0  0  0
    5.2763   -2.3460    0.1915 C   0  0  1  0  0  0  0  0  0  0  0  0
    2.0327   -1.5240    1.0215 H   0  0  0  0  0  0  0  0  0  0  0  0
    3.1009   -0.5485    0.0268 H   0  0  0  0  0  0  0  0  0  0  0  0
    3.3929   -0.6998    1.7250 H   0  0  0  0  0  0  0  0  0  0  0  0
    2.3813   -3.7952   -0.0744 H   0  0  0  0  0  0  0  0  0  0  0  0
    4.3143   -4.6754    1.6291 H   0  0  0  0  0  0  0  0  0  0  0  0
    4.1113   -5.6715    0.1564 H   0  0  0  0  0  0  0  0  0  0  0  0
    6.4952   -4.4290    0.2360 H   0  0  0  0  0  0  0  0  0  0  0  0
    4.9943   -5.3029   -1.9999 H   0  0  0  0  0  0  0  0  0  0  0  0
    6.2270   -3.4326   -3.6075 H   0  0  0  0  0  0  0  0  0  0  0  0
    5.1196   -1.4335   -4.3845 H   0  0  0  0  0  0  0  0  0  0  0  0
    2.9680   -1.0032   -4.7946 H   0  0  0  0  0  0  0  0  0  0  0  0
    2.4965   -2.5531   -4.0304 H   0  0  0  0  0  0  0  0  0  0  0  0
    2.2251   -0.6108   -1.9621 H   0  0  0  0  0  0  0  0  0  0  0  0
    6.1803   -0.7161   -1.1726 H   0  0  0  0  0  0  0  0  0  0  0  0
    6.6292   -2.7581   -1.7191 H   0  0  0  0  0  0  0  0  0  0  0  0
    3.3243   -3.7182   -2.3224 H   0  0  0  0  0  0  0  0  0  0  0  0
    5.9255   -1.9648    0.9757 H   0  0  0  0  0  0  0  0  0  0  0  0
    3.9781   -2.8195    1.6127 H   0  0  0  0  0  0  0  0  0  0  0  0
  1  2  1  0
  1 16  1  0
  1 17  1  0
  1 18  1  0
  2 15  1  0
  2  3  1  0
  2 33  1  1
  3 14  1  0
  3  4  1  0
  3 19  1  6
  4  5  1  0
  4 20  1  0
  4 21  1  0
  5 15  1  0
  5  6  1  0
  5 22  1  1
  6 14  1  0
  6  7  1  0
  6 23  1  6
  7 13  1  0
  7  8  1  0
  7 24  1  6
  8 11  1  0
  8  9  1  0
  8 25  1  6
  9 10  1  0
  9 26  1  0
  9 27  1  0
 10 11  2  0
 10 28  1  0
 11 12  1  0
 12 13  1  0
 12 15  1  0
 12 29  1  1
 13 14  1  0
 13 30  1  1
 14 31  1  6
 15 32  1  1
M  CHG  1   2   1
M  END
>  <i_m_ct_stereo_status>  (168) 
1

>  <s_m_source_file>  (168) 
/var/tmp/pbs.5076255.sched01/tmpniar21pp/41tndis9zi.sdf

>  <i_m_source_file_index>  (168) 
33

>  <i_lp_mmshare_version>  (168) 
48012

>  <i_f3d_flags>  (168) 
0

>  <s_epik_input>  (168) 
W0NAQEhdMTJbQ0BASF0zW0NAQEhdNFtDQEhdKFtDSDJdMilbQ0BIXShOMVtDSDNdKVtDQEBIXTVDNltDQEBIXShbQ0BIXTRbQ0BIXTM1KVtDSDJdW0NIXT02

>  <s_epik_cmdline>  (168) 
J2VwaWtfcHl0aG9uJywgJy1waHQnLCAnMi4wJywgJy1waCcsICc3LjAnLCAnLXRuJywgJzgnLCAnLW1hJywgJzIwMCcsICctaW1hZScsICc8aW5maWxlLm1hZT4nLCAnLW9tYWUnLCAnPG91dGZpbGUubWFlPic=

>  <r_epik_Ionization_Penalty>  (168) 
0.00037989

>  <r_epik_Ionization_Penalty_Charging>  (168) 
0.00037989

>  <r_epik_Ionization_Penalty_Neutral>  (168) 
0

>  <r_epik_State_Penalty>  (168) 
0.000232024

>  <r_epik_Charging_Adjusted_Penalty>  (168) 
0.000611913

>  <i_epik_Tot_Q>  (168) 
1

>  <i_epik_Tot_abs_Q>  (168) 
1

>  <s_lp_Force_Field>  (168) 
OPLS3e

>  <r_lp_Energy>  (168) 
360.468

>  <b_lp_Chiralities_Consistent>  (168) 
1

>  <s_lp_Variant>  (168) 
53:0-1

>  <s_i_glide_gridfile>  (168) 
pfpi4k_grid

>  <i_i_glide_lignum>  (168) 
33

>  <i_i_glide_rotatable_bonds>  (168) 
0

>  <r_i_docking_score>  (168) 
-3.55664

>  <r_i_glide_ligand_efficiency>  (168) 
-0.237109

>  <r_i_glide_ligand_efficiency_sa>  (168) 
-0.584762

>  <r_i_glide_ligand_efficiency_ln>  (168) 
-0.959167

>  <r_i_glide_gscore>  (168) 
-3.55664

>  <r_i_glide_lipo>  (168) 
-0.523774

>  <r_i_glide_hbond>  (168) 
0

>  <r_i_glide_metal>  (168) 
-0

>  <r_i_glide_rewards>  (168) 
-2.04341

>  <r_i_glide_evdw>  (168) 
-10.1986

>  <r_i_glide_ecoul>  (168) 
-3.11814

>  <r_i_glide_erotb>  (168) 
0

>  <r_i_glide_esite>  (168) 
-0.0117997

>  <r_i_glide_emodel>  (168) 
-15.6121

>  <r_i_glide_energy>  (168) 
-13.3167

>  <r_i_glide_einternal>  (168) 
0

>  <r_i_glide_intrahb_reward>  (168) 
-0

>  <i_i_glide_confnum>  (168) 
2

>  <i_i_glide_posenum>  (168) 
40

>  <r_i_glide_eff_state_penalty>  (168) 
0

>  <ligand_id>  (168) 
53

>  <original_smiles>  (168) 
CN1C2CC3C4C5C6CC=C6C(C5C42)C31

>  <smiles>  (168) 
[H]C1=C2C([H])(C1([H])[H])C1([H])C3([H])C2([H])C2([H])C4([H])C([H])([H])C([H])(C3([H])C14[H])[N+]2([H])C([H])([H])[H]

$$$$
54:0:0
     RDKit          3D

 88 93  0  0  1  0  0  0  0  0999 V2000
    0.0325   -7.2554    2.0713 C   0  0  0  0  0  0  0  0  0  0  0  0
   -0.2441   -8.4275    3.0459 C   0  0  0  0  0  0  0  0  0  0  0  0
   -1.5063   -9.1152    2.4847 C   0  0  0  0  0  0  0  0  0  0  0  0
    0.9176   -9.4673    2.9424 C   0  0  0  0  0  0  0  0  0  0  0  0
    2.3622   -9.0501    3.3362 C   0  0  0  0  0  0  0  0  0  0  0  0
    2.6615   -8.6812    4.8247 C   0  0  2  0  0  0  0  0  0  0  0  0
    2.1816   -9.8105    5.7641 C   0  0  0  0  0  0  0  0  0  0  0  0
    0.7043   -9.5360    6.0485 C   0  0  1  0  0  0  0  0  0  0  0  0
    0.3895   -9.8487    7.3902 O   0  0  0  0  0  0  0  0  0  0  0  0
    0.4577   -8.0541    5.6505 C   0  0  2  0  0  0  0  0  0  0  0  0
   -0.6162   -7.9778    4.5196 C   0  0  1  0  0  0  0  0  0  0  0  0
   -1.1516   -6.6621    4.5156 O   0  0  0  0  0  0  0  0  0  0  0  0
    1.8157   -7.4527    5.2014 C   0  0  1  0  0  0  0  0  0  0  0  0
    2.5370   -6.3237    6.0265 C   0  0  1  0  0  0  0  0  0  0  0  0
    1.5883   -5.2599    6.5924 C   0  0  0  0  0  0  0  0  0  0  0  0
    2.3554   -4.0348    7.0910 C   0  0  0  0  0  0  0  0  0  0  0  0
    3.4656   -4.3220    8.1610 C   0  0  2  0  0  0  0  0  0  0  0  0
    4.1410   -2.9595    8.6610 C   0  0  1  0  0  0  0  0  0  0  0  0
    2.9685   -2.0034    9.0340 C   0  0  0  0  0  0  0  0  0  0  0  0
    4.9751   -3.1128    9.9745 C   0  0  0  0  0  0  0  0  0  0  0  0
    5.6879   -1.8313   10.4431 C   0  0  0  0  0  0  0  0  0  0  0  0
    6.5373   -1.2249    9.3257 C   0  0  0  0  0  0  0  0  0  0  0  0
    7.6872   -0.8536    9.5470 O   0  0  0  0  0  0  0  0  0  0  0  0
    5.8656   -1.0426    7.9423 C   0  0  0  0  0  0  0  0  0  0  0  0
    4.9431    0.2001    8.0058 C   0  0  0  0  0  0  0  0  0  0  0  0
    6.9489   -0.6917    6.8864 C   0  0  0  0  0  0  0  0  0  0  0  0
    5.0769   -2.3581    7.5398 C   0  0  1  0  0  0  0  0  0  0  0  0
    6.0215   -3.4737    7.0106 C   0  0  0  0  0  0  0  0  0  0  0  0
    5.3219   -4.7655    6.5462 C   0  0  0  0  0  0  0  0  0  0  0  0
    4.4348   -5.4661    7.6270 C   0  0  1  0  0  0  0  0  0  0  0  0
    5.3660   -6.0198    8.7485 C   0  0  0  0  0  0  0  0  0  0  0  0
    3.6142   -6.7416    7.0720 C   0  0  1  0  0  0  0  0  0  0  0  0
    2.8842   -7.4294    8.2682 C   0  0  0  0  0  0  0  0  0  0  0  0
    4.5662   -7.8038    6.4031 C   0  0  0  0  0  0  0  0  0  0  0  0
    4.1668   -8.3535    5.0097 C   0  0  1  0  0  0  0  0  0  0  0  0
    4.9615   -9.4960    4.7425 O   0  0  0  0  0  0  0  0  0  0  0  0
    0.2364   -7.6323    1.0691 H   0  0  0  0  0  0  0  0  0  0  0  0
    0.8756   -6.6293    2.3490 H   0  0  0  0  0  0  0  0  0  0  0  0
   -0.8435   -6.6198    1.9741 H   0  0  0  0  0  0  0  0  0  0  0  0
   -1.7444  -10.0064    3.0610 H   0  0  0  0  0  0  0  0  0  0  0  0
   -1.3889   -9.4319    1.4513 H   0  0  0  0  0  0  0  0  0  0  0  0
   -2.3800   -8.4642    2.5245 H   0  0  0  0  0  0  0  0  0  0  0  0
    0.6502  -10.4022    3.4307 H   0  0  0  0  0  0  0  0  0  0  0  0
    0.9851   -9.7621    1.8958 H   0  0  0  0  0  0  0  0  0  0  0  0
    3.0022   -9.8871    3.0615 H   0  0  0  0  0  0  0  0  0  0  0  0
    2.6872   -8.2374    2.6901 H   0  0  0  0  0  0  0  0  0  0  0  0
    2.3243  -10.8057    5.3408 H   0  0  0  0  0  0  0  0  0  0  0  0
    2.7412   -9.8090    6.6981 H   0  0  0  0  0  0  0  0  0  0  0  0
    0.0821  -10.2093    5.4575 H   0  0  0  0  0  0  0  0  0  0  0  0
    0.6415  -10.7775    7.5295 H   0  0  0  0  0  0  0  0  0  0  0  0
    0.0792   -7.5302    6.5287 H   0  0  0  0  0  0  0  0  0  0  0  0
   -1.4368   -8.6088    4.8674 H   0  0  0  0  0  0  0  0  0  0  0  0
   -0.4278   -6.0625    4.4846 H   0  0  0  0  0  0  0  0  0  0  0  0
    1.6191   -6.9096    4.2887 H   0  0  0  0  0  0  0  0  0  0  0  0
    3.0971   -5.8041    5.2510 H   0  0  0  0  0  0  0  0  0  0  0  0
    0.8863   -4.9507    5.8147 H   0  0  0  0  0  0  0  0  0  0  0  0
    0.9890   -5.6606    7.4106 H   0  0  0  0  0  0  0  0  0  0  0  0
    2.7829   -3.5228    6.2306 H   0  0  0  0  0  0  0  0  0  0  0  0
    1.5862   -3.3727    7.4790 H   0  0  0  0  0  0  0  0  0  0  0  0
    2.9495   -4.7094    9.0403 H   0  0  0  0  0  0  0  0  0  0  0  0
    3.2275   -1.2354    9.7548 H   0  0  0  0  0  0  0  0  0  0  0  0
    2.1543   -2.5514    9.5129 H   0  0  0  0  0  0  0  0  0  0  0  0
    2.5645   -1.4900    8.1601 H   0  0  0  0  0  0  0  0  0  0  0  0
    4.3582   -3.5114   10.7802 H   0  0  0  0  0  0  0  0  0  0  0  0
    5.7836   -3.8152    9.8453 H   0  0  0  0  0  0  0  0  0  0  0  0
    4.9939   -1.0743   10.7979 H   0  0  0  0  0  0  0  0  0  0  0  0
    6.3396   -2.0533   11.2859 H   0  0  0  0  0  0  0  0  0  0  0  0
    4.1854    0.1772    7.2235 H   0  0  0  0  0  0  0  0  0  0  0  0
    5.5031    1.1274    7.8806 H   0  0  0  0  0  0  0  0  0  0  0  0
    4.4366    0.3068    8.9610 H   0  0  0  0  0  0  0  0  0  0  0  0
    6.5235   -0.6632    5.8824 H   0  0  0  0  0  0  0  0  0  0  0  0
    7.7746   -1.4049    6.8907 H   0  0  0  0  0  0  0  0  0  0  0  0
    7.4004    0.2839    7.0734 H   0  0  0  0  0  0  0  0  0  0  0  0
    4.4474   -2.0812    6.6939 H   0  0  0  0  0  0  0  0  0  0  0  0
    6.5584   -3.1174    6.1356 H   0  0  0  0  0  0  0  0  0  0  0  0
    6.7919   -3.6971    7.7448 H   0  0  0  0  0  0  0  0  0  0  0  0
    4.7311   -4.5062    5.6716 H   0  0  0  0  0  0  0  0  0  0  0  0
    6.1039   -5.4256    6.1792 H   0  0  0  0  0  0  0  0  0  0  0  0
    5.6326   -7.0652    8.6099 H   0  0  0  0  0  0  0  0  0  0  0  0
    4.8950   -5.9562    9.7285 H   0  0  0  0  0  0  0  0  0  0  0  0
    6.3285   -5.5230    8.7952 H   0  0  0  0  0  0  0  0  0  0  0  0
    3.5559   -7.9842    8.9208 H   0  0  0  0  0  0  0  0  0  0  0  0
    2.1396   -8.1339    7.9353 H   0  0  0  0  0  0  0  0  0  0  0  0
    2.3403   -6.7357    8.9011 H   0  0  0  0  0  0  0  0  0  0  0  0
    5.5836   -7.4301    6.3016 H   0  0  0  0  0  0  0  0  0  0  0  0
    4.6893   -8.6434    7.0822 H   0  0  0  0  0  0  0  0  0  0  0  0
    4.4328   -7.6038    4.2650 H   0  0  0  0  0  0  0  0  0  0  0  0
    4.6501  -10.2178    5.2672 H   0  0  0  0  0  0  0  0  0  0  0  0
  1  2  1  0
  1 37  1  0
  1 38  1  0
  1 39  1  0
  2 11  1  0
  2  3  1  0
  2  4  1  0
  3 40  1  0
  3 41  1  0
  3 42  1  0
  4  5  1  0
  4 43  1  0
  4 44  1  0
  6  5  1  6
  5 45  1  0
  5 46  1  0
  6 13  1  0
  6 35  1  0
  6  7  1  0
  7  8  1  0
  7 47  1  0
  7 48  1  0
  8  9  1  0
  8 10  1  0
  8 49  1  6
  9 50  1  0
 10 11  1  0
 10 13  1  0
 10 51  1  1
 11 12  1  0
 11 52  1  1
 12 53  1  0
 13 14  1  0
 13 54  1  6
 14 32  1  0
 14 15  1  0
 14 55  1  6
 15 16  1  0
 15 56  1  0
 15 57  1  0
 16 17  1  0
 16 58  1  0
 16 59  1  0
 17 30  1  0
 17 18  1  0
 17 60  1  1
 18 27  1  0
 18 19  1  1
 18 20  1  0
 19 61  1  0
 19 62  1  0
 19 63  1  0
 20 21  1  0
 20 64  1  0
 20 65  1  0
 21 22  1  0
 21 66  1  0
 21 67  1  0
 22 23  2  0
 22 24  1  0
 24 25  1  0
 24 26  1  0
 24 27  1  0
 25 68  1  0
 25 69  1  0
 25 70  1  0
 26 71  1  0
 26 72  1  0
 26 73  1  0
 27 28  1  0
 27 74  1  6
 28 29  1  0
 28 75  1  0
 28 76  1  0
 29 30  1  0
 29 77  1  0
 29 78  1  0
 30 31  1  1
 30 32  1  0
 31 79  1  0
 31 80  1  0
 31 81  1  0
 32 33  1  1
 32 34  1  0
 33 82  1  0
 33 83  1  0
 33 84  1  0
 34 35  1  0
 34 85  1  0
 34 86  1  0
 35 36  1  0
 35 87  1  6
 36 88  1  0
M  END
>  <i_m_ct_stereo_status>  (169) 
1

>  <s_m_source_file>  (169) 
/var/tmp/pbs.5076255.sched01/tmpniar21pp/41tndis9zi.sdf

>  <i_m_source_file_index>  (169) 
34

>  <i_lp_mmshare_version>  (169) 
48012

>  <i_f3d_flags>  (169) 
0

>  <s_epik_input>  (169) 
W0NIMl0xW0NIMl1DKFtDSDNdKShbQ0gzXSlbQ0BIXShbT0hdKVtDQEBIXShbQ0BASF0oW0NIMl0yKVtPSF0pW0NASF0oW0NAXTEyMylbQ0BASF00W0NAQF0oW0NIM10pKFtDSDJdW0NASF0zW09IXSlbQ0BdNShbQ0gzXSlbQ0BIXShbQ0gyXVtDSDJdNClbQ0BdNihbQ0gzXSlbQ0BIXShbQ0gyXVtDSDJdNSlDKFtDSDNdKShbQ0gzXSlDKD1PKVtDSDJdW0NIMl02

>  <s_epik_cmdline>  (169) 
J2VwaWtfcHl0aG9uJywgJy1waHQnLCAnMi4wJywgJy1waCcsICc3LjAnLCAnLXRuJywgJzgnLCAnLW1hJywgJzIwMCcsICctaW1hZScsICc8aW5maWxlLm1hZT4nLCAnLW9tYWUnLCAnPG91dGZpbGUubWFlPic=

>  <r_lp_tautomer_probability>  (169) 
1

>  <r_epik_Ionization_Penalty>  (169) 
3.09385e-06

>  <r_epik_Ionization_Penalty_Charging>  (169) 
0

>  <r_epik_Ionization_Penalty_Neutral>  (169) 
3.09385e-06

>  <r_epik_State_Penalty>  (169) 
-0

>  <r_epik_Charging_Adjusted_Penalty>  (169) 
0

>  <i_epik_Tot_Q>  (169) 
0

>  <i_epik_Tot_abs_Q>  (169) 
0

>  <s_lp_Force_Field>  (169) 
OPLS3e

>  <r_lp_Energy>  (169) 
113.395

>  <b_lp_Chiralities_Consistent>  (169) 
1

>  <s_lp_Variant>  (169) 
54:0-1

>  <s_i_glide_gridfile>  (169) 
pfpi4k_grid

>  <i_i_glide_lignum>  (169) 
34

>  <i_i_glide_rotatable_bonds>  (169) 
3

>  <r_i_docking_score>  (169) 
-2.70457

>  <r_i_glide_ligand_efficiency>  (169) 
-0.0751271

>  <r_i_glide_ligand_efficiency_sa>  (169) 
-0.248064

>  <r_i_glide_ligand_efficiency_ln>  (169) 
-0.590065

>  <r_i_glide_gscore>  (169) 
-2.70457

>  <r_i_glide_lipo>  (169) 
-0.291251

>  <r_i_glide_hbond>  (169) 
-0.16

>  <r_i_glide_metal>  (169) 
-0

>  <r_i_glide_rewards>  (169) 
-0.000282017

>  <r_i_glide_evdw>  (169) 
-24.2226

>  <r_i_glide_ecoul>  (169) 
-6.94606

>  <r_i_glide_erotb>  (169) 
0

>  <r_i_glide_esite>  (169) 
0

>  <r_i_glide_emodel>  (169) 
-36.738

>  <r_i_glide_energy>  (169) 
-31.1687

>  <r_i_glide_einternal>  (169) 
0.666042

>  <r_i_glide_intrahb_reward>  (169) 
-0

>  <i_i_glide_confnum>  (169) 
1

>  <i_i_glide_posenum>  (169) 
30

>  <r_i_glide_eff_state_penalty>  (169) 
0

>  <ligand_id>  (169) 
54

>  <original_smiles>  (169) 
CC1(C)CCC23CC(O)C(C1O)C2C1CCC2C4(C)CCC(=O)C(C)(C)C4CCC2(C)C1(C)CC3O

>  <smiles>  (169) 
[H]OC1([H])C([H])([H])C23C([H])([H])C([H])([H])C(C([H])([H])[H])(C([H])([H])[H])C([H])(O[H])C1([H])C2([H])C1([H])C([H])([H])C([H])([H])C2([H])C4(C([H])([H])[H])C([H])([H])C([H])([H])C(=O)C(C([H])([H])[H])(C([H])([H])[H])C4([H])C([H])([H])C([H])([H])C2(C([H])([H])[H])C1(C([H])([H])[H])C([H])([H])C3([H])O[H]

$$$$
54:0:1
     RDKit          3D

 88 93  0  0  1  0  0  0  0  0999 V2000
    0.0308   -7.2708    2.0539 C   0  0  0  0  0  0  0  0  0  0  0  0
   -0.2532   -8.4397    3.0331 C   0  0  0  0  0  0  0  0  0  0  0  0
   -1.5179   -9.1262    2.4757 C   0  0  0  0  0  0  0  0  0  0  0  0
    0.9083   -9.4809    2.9378 C   0  0  0  0  0  0  0  0  0  0  0  0
    2.3508   -9.0646    3.3421 C   0  0  0  0  0  0  0  0  0  0  0  0
    2.6424   -8.6922    4.8307 C   0  0  2  0  0  0  0  0  0  0  0  0
    2.1506   -9.8179    5.7688 C   0  0  0  0  0  0  0  0  0  0  0  0
    0.6716   -9.5374    6.0403 C   0  0  1  0  0  0  0  0  0  0  0  0
    0.3436   -9.8490    7.3805 O   0  0  0  0  0  0  0  0  0  0  0  0
    0.4340   -8.0577    5.6357 C   0  0  2  0  0  0  0  0  0  0  0  0
   -0.6285   -7.9765    4.4975 C   0  0  1  0  0  0  0  0  0  0  0  0
   -1.1620   -6.6657    4.4843 O   0  0  0  0  0  0  0  0  0  0  0  0
    1.7946   -7.4599    5.1962 C   0  0  1  0  0  0  0  0  0  0  0  0
    2.5158   -6.3304    6.0201 C   0  0  1  0  0  0  0  0  0  0  0  0
    1.5625   -5.2639    6.5763 C   0  0  0  0  0  0  0  0  0  0  0  0
    2.3308   -4.0383    7.0749 C   0  0  0  0  0  0  0  0  0  0  0  0
    3.4323   -4.3227    8.1545 C   0  0  2  0  0  0  0  0  0  0  0  0
    4.1055   -2.9621    8.6540 C   0  0  1  0  0  0  0  0  0  0  0  0
    2.9346   -1.9996    9.0163 C   0  0  0  0  0  0  0  0  0  0  0  0
    4.9319   -3.1133    9.9736 C   0  0  0  0  0  0  0  0  0  0  0  0
    5.6471   -1.8269   10.4415 C   0  0  0  0  0  0  0  0  0  0  0  0
    6.5013   -1.2261    9.3294 C   0  0  0  0  0  0  0  0  0  0  0  0
    7.6555   -0.8622    9.5577 O   0  0  0  0  0  0  0  0  0  0  0  0
    5.8438   -1.0522    7.9415 C   0  0  0  0  0  0  0  0  0  0  0  0
    4.9220    0.1934    7.9954 C   0  0  0  0  0  0  0  0  0  0  0  0
    6.9344   -0.7045    6.8909 C   0  0  0  0  0  0  0  0  0  0  0  0
    5.0535   -2.3677    7.5384 C   0  0  1  0  0  0  0  0  0  0  0  0
    5.9993   -3.4869    7.0211 C   0  0  0  0  0  0  0  0  0  0  0  0
    5.2993   -4.7789    6.5553 C   0  0  0  0  0  0  0  0  0  0  0  0
    4.3998   -5.4725    7.6307 C   0  0  1  0  0  0  0  0  0  0  0  0
    5.3250   -6.0237    8.7626 C   0  0  0  0  0  0  0  0  0  0  0  0
    3.5812   -6.7455    7.0751 C   0  0  1  0  0  0  0  0  0  0  0  0
    2.8425   -7.4295    8.2675 C   0  0  0  0  0  0  0  0  0  0  0  0
    4.5380   -7.8136    6.4171 C   0  0  0  0  0  0  0  0  0  0  0  0
    4.1469   -8.3714    5.0225 C   0  0  1  0  0  0  0  0  0  0  0  0
    4.9401   -9.5157    4.7655 O   0  0  0  0  0  0  0  0  0  0  0  0
    0.2412   -7.6521    1.0541 H   0  0  0  0  0  0  0  0  0  0  0  0
    0.8716   -6.6453    2.3361 H   0  0  0  0  0  0  0  0  0  0  0  0
   -0.8403   -6.6298    1.9485 H   0  0  0  0  0  0  0  0  0  0  0  0
   -1.7597  -10.0171    3.0487 H   0  0  0  0  0  0  0  0  0  0  0  0
   -1.3879   -9.4422    1.4414 H   0  0  0  0  0  0  0  0  0  0  0  0
   -2.3888   -8.4684    2.5022 H   0  0  0  0  0  0  0  0  0  0  0  0
    0.6340  -10.4132    3.4262 H   0  0  0  0  0  0  0  0  0  0  0  0
    0.9773   -9.7770    1.8898 H   0  0  0  0  0  0  0  0  0  0  0  0
    2.9893   -9.9062    3.0711 H   0  0  0  0  0  0  0  0  0  0  0  0
    2.6809   -8.2563    2.6926 H   0  0  0  0  0  0  0  0  0  0  0  0
    2.2980  -10.8163    5.3511 H   0  0  0  0  0  0  0  0  0  0  0  0
    2.7040   -9.8113    6.7056 H   0  0  0  0  0  0  0  0  0  0  0  0
    0.0578  -10.2107    5.4427 H   0  0  0  0  0  0  0  0  0  0  0  0
    0.6121  -10.7685    7.5186 H   0  0  0  0  0  0  0  0  0  0  0  0
    0.0594   -7.5295    6.5119 H   0  0  0  0  0  0  0  0  0  0  0  0
   -1.4498   -8.6059    4.8496 H   0  0  0  0  0  0  0  0  0  0  0  0
   -1.4506   -6.4678    5.3591 H   0  0  0  0  0  0  0  0  0  0  0  0
    1.6032   -6.9178    4.2802 H   0  0  0  0  0  0  0  0  0  0  0  0
    3.0820   -5.8149    5.2454 H   0  0  0  0  0  0  0  0  0  0  0  0
    0.8683   -4.9603    5.7914 H   0  0  0  0  0  0  0  0  0  0  0  0
    0.9575   -5.6603    7.3926 H   0  0  0  0  0  0  0  0  0  0  0  0
    2.7661   -3.5299    6.2145 H   0  0  0  0  0  0  0  0  0  0  0  0
    1.5611   -3.3717    7.4554 H   0  0  0  0  0  0  0  0  0  0  0  0
    2.9108   -4.7067    9.0314 H   0  0  0  0  0  0  0  0  0  0  0  0
    3.1904   -1.2281    9.7349 H   0  0  0  0  0  0  0  0  0  0  0  0
    2.1171   -2.5468    9.4915 H   0  0  0  0  0  0  0  0  0  0  0  0
    2.5389   -1.4905    8.1345 H   0  0  0  0  0  0  0  0  0  0  0  0
    4.3081   -3.5071   10.7789 H   0  0  0  0  0  0  0  0  0  0  0  0
    5.7428   -3.8189    9.8552 H   0  0  0  0  0  0  0  0  0  0  0  0
    4.9497   -1.0696   10.7893 H   0  0  0  0  0  0  0  0  0  0  0  0
    6.2894   -2.0529   11.2943 H   0  0  0  0  0  0  0  0  0  0  0  0
    4.1692    0.1712    7.2060 H   0  0  0  0  0  0  0  0  0  0  0  0
    5.4848    1.1197    7.8701 H   0  0  0  0  0  0  0  0  0  0  0  0
    4.4095    0.3038    8.9484 H   0  0  0  0  0  0  0  0  0  0  0  0
    6.5129   -0.6808    5.8848 H   0  0  0  0  0  0  0  0  0  0  0  0
    7.7593   -1.4220    6.9037 H   0  0  0  0  0  0  0  0  0  0  0  0
    7.3862    0.2700    7.0777 H   0  0  0  0  0  0  0  0  0  0  0  0
    4.4320   -2.0912    6.6857 H   0  0  0  0  0  0  0  0  0  0  0  0
    6.5470   -3.1360    6.1474 H   0  0  0  0  0  0  0  0  0  0  0  0
    6.7654   -3.7096    7.7633 H   0  0  0  0  0  0  0  0  0  0  0  0
    4.7178   -4.5194    5.6747 H   0  0  0  0  0  0  0  0  0  0  0  0
    6.0833   -5.4401    6.1956 H   0  0  0  0  0  0  0  0  0  0  0  0
    5.5909   -7.0751    8.6281 H   0  0  0  0  0  0  0  0  0  0  0  0
    4.8455   -5.9570    9.7408 H   0  0  0  0  0  0  0  0  0  0  0  0
    6.2915   -5.5291    8.8160 H   0  0  0  0  0  0  0  0  0  0  0  0
    3.5076   -7.9838    8.9280 H   0  0  0  0  0  0  0  0  0  0  0  0
    2.0967   -8.1344    7.9335 H   0  0  0  0  0  0  0  0  0  0  0  0
    2.2961   -6.7327    8.8951 H   0  0  0  0  0  0  0  0  0  0  0  0
    5.5535   -7.4423    6.3178 H   0  0  0  0  0  0  0  0  0  0  0  0
    4.6584   -8.6524    7.1012 H   0  0  0  0  0  0  0  0  0  0  0  0
    4.4206   -7.6224    4.2748 H   0  0  0  0  0  0  0  0  0  0  0  0
    4.6281  -10.2331    5.3035 H   0  0  0  0  0  0  0  0  0  0  0  0
  1  2  1  0
  1 37  1  0
  1 38  1  0
  1 39  1  0
  2 11  1  0
  2  3  1  0
  2  4  1  0
  3 40  1  0
  3 41  1  0
  3 42  1  0
  4  5  1  0
  4 43  1  0
  4 44  1  0
  6  5  1  6
  5 45  1  0
  5 46  1  0
  6 13  1  0
  6 35  1  0
  6  7  1  0
  7  8  1  0
  7 47  1  0
  7 48  1  0
  8  9  1  0
  8 10  1  0
  8 49  1  6
  9 50  1  0
 10 11  1  0
 10 13  1  0
 10 51  1  1
 11 12  1  0
 11 52  1  1
 12 53  1  0
 13 14  1  0
 13 54  1  6
 14 32  1  0
 14 15  1  0
 14 55  1  6
 15 16  1  0
 15 56  1  0
 15 57  1  0
 16 17  1  0
 16 58  1  0
 16 59  1  0
 17 30  1  0
 17 18  1  0
 17 60  1  1
 18 27  1  0
 18 19  1  1
 18 20  1  0
 19 61  1  0
 19 62  1  0
 19 63  1  0
 20 21  1  0
 20 64  1  0
 20 65  1  0
 21 22  1  0
 21 66  1  0
 21 67  1  0
 22 23  2  0
 22 24  1  0
 24 25  1  0
 24 26  1  0
 24 27  1  0
 25 68  1  0
 25 69  1  0
 25 70  1  0
 26 71  1  0
 26 72  1  0
 26 73  1  0
 27 28  1  0
 27 74  1  6
 28 29  1  0
 28 75  1  0
 28 76  1  0
 29 30  1  0
 29 77  1  0
 29 78  1  0
 30 31  1  1
 30 32  1  0
 31 79  1  0
 31 80  1  0
 31 81  1  0
 32 33  1  1
 32 34  1  0
 33 82  1  0
 33 83  1  0
 33 84  1  0
 34 35  1  0
 34 85  1  0
 34 86  1  0
 35 36  1  0
 35 87  1  6
 36 88  1  0
M  END
>  <i_m_ct_stereo_status>  (170) 
1

>  <s_m_source_file>  (170) 
/var/tmp/pbs.5076255.sched01/tmpniar21pp/41tndis9zi.sdf

>  <i_m_source_file_index>  (170) 
34

>  <i_lp_mmshare_version>  (170) 
48012

>  <i_f3d_flags>  (170) 
0

>  <s_epik_input>  (170) 
W0NIMl0xW0NIMl1DKFtDSDNdKShbQ0gzXSlbQ0BIXShbT0hdKVtDQEBIXShbQ0BASF0oW0NIMl0yKVtPSF0pW0NASF0oW0NAXTEyMylbQ0BASF00W0NAQF0oW0NIM10pKFtDSDJdW0NASF0zW09IXSlbQ0BdNShbQ0gzXSlbQ0BIXShbQ0gyXVtDSDJdNClbQ0BdNihbQ0gzXSlbQ0BIXShbQ0gyXVtDSDJdNSlDKFtDSDNdKShbQ0gzXSlDKD1PKVtDSDJdW0NIMl02

>  <s_epik_cmdline>  (170) 
J2VwaWtfcHl0aG9uJywgJy1waHQnLCAnMi4wJywgJy1waCcsICc3LjAnLCAnLXRuJywgJzgnLCAnLW1hJywgJzIwMCcsICctaW1hZScsICc8aW5maWxlLm1hZT4nLCAnLW9tYWUnLCAnPG91dGZpbGUubWFlPic=

>  <r_lp_tautomer_probability>  (170) 
1

>  <r_epik_Ionization_Penalty>  (170) 
3.09385e-06

>  <r_epik_Ionization_Penalty_Charging>  (170) 
0

>  <r_epik_Ionization_Penalty_Neutral>  (170) 
3.09385e-06

>  <r_epik_State_Penalty>  (170) 
-0

>  <r_epik_Charging_Adjusted_Penalty>  (170) 
0

>  <i_epik_Tot_Q>  (170) 
0

>  <i_epik_Tot_abs_Q>  (170) 
0

>  <s_lp_Force_Field>  (170) 
OPLS3e

>  <r_lp_Energy>  (170) 
113.395

>  <b_lp_Chiralities_Consistent>  (170) 
1

>  <s_lp_Variant>  (170) 
54:0-1

>  <s_i_glide_gridfile>  (170) 
pfpi4k_grid

>  <i_i_glide_lignum>  (170) 
34

>  <i_i_glide_rotatable_bonds>  (170) 
3

>  <r_i_docking_score>  (170) 
-2.57204

>  <r_i_glide_ligand_efficiency>  (170) 
-0.0714456

>  <r_i_glide_ligand_efficiency_sa>  (170) 
-0.235908

>  <r_i_glide_ligand_efficiency_ln>  (170) 
-0.56115

>  <r_i_glide_gscore>  (170) 
-2.57204

>  <r_i_glide_lipo>  (170) 
-0.300121

>  <r_i_glide_hbond>  (170) 
-0.16

>  <r_i_glide_metal>  (170) 
-0

>  <r_i_glide_rewards>  (170) 
-0.00023997

>  <r_i_glide_evdw>  (170) 
-24.3427

>  <r_i_glide_ecoul>  (170) 
-5.96364

>  <r_i_glide_erotb>  (170) 
0

>  <r_i_glide_esite>  (170) 
0

>  <r_i_glide_emodel>  (170) 
-35.5378

>  <r_i_glide_energy>  (170) 
-30.3063

>  <r_i_glide_einternal>  (170) 
0.788701

>  <r_i_glide_intrahb_reward>  (170) 
-0

>  <i_i_glide_confnum>  (170) 
2

>  <i_i_glide_posenum>  (170) 
17

>  <r_i_glide_eff_state_penalty>  (170) 
0

>  <ligand_id>  (170) 
54

>  <original_smiles>  (170) 
CC1(C)CCC23CC(O)C(C1O)C2C1CCC2C4(C)CCC(=O)C(C)(C)C4CCC2(C)C1(C)CC3O

>  <smiles>  (170) 
[H]OC1([H])C([H])([H])C23C([H])([H])C([H])([H])C(C([H])([H])[H])(C([H])([H])[H])C([H])(O[H])C1([H])C2([H])C1([H])C([H])([H])C([H])([H])C2([H])C4(C([H])([H])[H])C([H])([H])C([H])([H])C(=O)C(C([H])([H])[H])(C([H])([H])[H])C4([H])C([H])([H])C([H])([H])C2(C([H])([H])[H])C1(C([H])([H])[H])C([H])([H])C3([H])O[H]

$$$$
54:0:2
     RDKit          3D

 88 93  0  0  1  0  0  0  0  0999 V2000
    0.0259   -9.9191    2.7483 C   0  0  0  0  0  0  0  0  0  0  0  0
    1.1320  -10.3563    3.7421 C   0  0  0  0  0  0  0  0  0  0  0  0
    0.8168  -11.8271    4.0809 C   0  0  0  0  0  0  0  0  0  0  0  0
    2.5129  -10.3707    3.0110 C   0  0  0  0  0  0  0  0  0  0  0  0
    3.1001   -9.0564    2.4325 C   0  0  0  0  0  0  0  0  0  0  0  0
    3.4979   -7.9161    3.4214 C   0  0  2  0  0  0  0  0  0  0  0  0
    4.4364   -8.4638    4.5199 C   0  0  0  0  0  0  0  0  0  0  0  0
    3.5244   -9.0309    5.6109 C   0  0  1  0  0  0  0  0  0  0  0  0
    4.0062   -8.7695    6.9112 O   0  0  0  0  0  0  0  0  0  0  0  0
    2.1211   -8.4265    5.3646 C   0  0  2  0  0  0  0  0  0  0  0  0
    1.0924   -9.5679    5.1141 C   0  0  1  0  0  0  0  0  0  0  0  0
   -0.2025   -9.0599    5.3722 O   0  0  0  0  0  0  0  0  0  0  0  0
    2.2318   -7.4528    4.1629 C   0  0  1  0  0  0  0  0  0  0  0  0
    2.0450   -5.9011    4.3365 C   0  0  1  0  0  0  0  0  0  0  0  0
    0.9239   -5.5163    5.3097 C   0  0  0  0  0  0  0  0  0  0  0  0
    0.5684   -4.0329    5.1850 C   0  0  0  0  0  0  0  0  0  0  0  0
    1.7599   -3.0324    5.3891 C   0  0  2  0  0  0  0  0  0  0  0  0
    1.2478   -1.5179    5.3153 C   0  0  1  0  0  0  0  0  0  0  0  0
    0.0162   -1.4264    6.2669 C   0  0  0  0  0  0  0  0  0  0  0  0
    2.2751   -0.4796    5.8692 C   0  0  0  0  0  0  0  0  0  0  0  0
    1.8322    0.9934    5.7531 C   0  0  0  0  0  0  0  0  0  0  0  0
    1.4296    1.3416    4.3230 C   0  0  0  0  0  0  0  0  0  0  0  0
    1.8551    2.3660    3.7921 O   0  0  0  0  0  0  0  0  0  0  0  0
    0.4430    0.3869    3.6102 C   0  0  0  0  0  0  0  0  0  0  0  0
   -0.9839    0.6561    4.1543 C   0  0  0  0  0  0  0  0  0  0  0  0
    0.3924    0.7446    2.0975 C   0  0  0  0  0  0  0  0  0  0  0  0
    0.8911   -1.1214    3.8292 C   0  0  1  0  0  0  0  0  0  0  0  0
    2.0635   -1.5288    2.8940 C   0  0  0  0  0  0  0  0  0  0  0  0
    2.5193   -2.9977    3.0076 C   0  0  0  0  0  0  0  0  0  0  0  0
    2.9674   -3.4457    4.4376 C   0  0  1  0  0  0  0  0  0  0  0  0
    4.2864   -2.6958    4.8021 C   0  0  0  0  0  0  0  0  0  0  0  0
    3.3133   -5.0174    4.5480 C   0  0  1  0  0  0  0  0  0  0  0  0
    3.8742   -5.3102    5.9752 C   0  0  0  0  0  0  0  0  0  0  0  0
    4.4016   -5.4563    3.4962 C   0  0  0  0  0  0  0  0  0  0  0  0
    4.1119   -6.7231    2.6463 C   0  0  1  0  0  0  0  0  0  0  0  0
    5.3219   -7.1108    2.0232 O   0  0  0  0  0  0  0  0  0  0  0  0
    0.0626  -10.5427    1.8567 H   0  0  0  0  0  0  0  0  0  0  0  0
    0.1033   -8.8884    2.4147 H   0  0  0  0  0  0  0  0  0  0  0  0
   -0.9745  -10.0505    3.1611 H   0  0  0  0  0  0  0  0  0  0  0  0
    1.5799  -12.2679    4.7244 H   0  0  0  0  0  0  0  0  0  0  0  0
    0.7518  -12.4341    3.1765 H   0  0  0  0  0  0  0  0  0  0  0  0
   -0.1347  -11.9261    4.6010 H   0  0  0  0  0  0  0  0  0  0  0  0
    3.2645  -10.8854    3.6048 H   0  0  0  0  0  0  0  0  0  0  0  0
    2.4175  -11.0333    2.1538 H   0  0  0  0  0  0  0  0  0  0  0  0
    3.9843   -9.3531    1.8702 H   0  0  0  0  0  0  0  0  0  0  0  0
    2.4166   -8.6652    1.6813 H   0  0  0  0  0  0  0  0  0  0  0  0
    5.1307   -9.2144    4.1440 H   0  0  0  0  0  0  0  0  0  0  0  0
    5.0637   -7.6785    4.9347 H   0  0  0  0  0  0  0  0  0  0  0  0
    3.5057  -10.1173    5.5426 H   0  0  0  0  0  0  0  0  0  0  0  0
    3.5317   -9.3291    7.5081 H   0  0  0  0  0  0  0  0  0  0  0  0
    1.8191   -7.8894    6.2628 H   0  0  0  0  0  0  0  0  0  0  0  0
    1.2511  -10.2847    5.9252 H   0  0  0  0  0  0  0  0  0  0  0  0
   -0.8308   -9.7794    5.2831 H   0  0  0  0  0  0  0  0  0  0  0  0
    1.3825   -7.6702    3.5276 H   0  0  0  0  0  0  0  0  0  0  0  0
    1.6711   -5.6137    3.3538 H   0  0  0  0  0  0  0  0  0  0  0  0
    0.0400   -6.1181    5.0932 H   0  0  0  0  0  0  0  0  0  0  0  0
    1.1988   -5.7360    6.3425 H   0  0  0  0  0  0  0  0  0  0  0  0
    0.1025   -3.8687    4.2144 H   0  0  0  0  0  0  0  0  0  0  0  0
   -0.2161   -3.8822    5.9210 H   0  0  0  0  0  0  0  0  0  0  0  0
    2.0936   -3.1629    6.4196 H   0  0  0  0  0  0  0  0  0  0  0  0
   -0.1798   -0.4292    6.6489 H   0  0  0  0  0  0  0  0  0  0  0  0
    0.1730   -2.0286    7.1648 H   0  0  0  0  0  0  0  0  0  0  0  0
   -0.9002   -1.7660    5.7833 H   0  0  0  0  0  0  0  0  0  0  0  0
    2.5359   -0.7079    6.9028 H   0  0  0  0  0  0  0  0  0  0  0  0
    3.2039   -0.5103    5.3187 H   0  0  0  0  0  0  0  0  0  0  0  0
    1.0056    1.2353    6.4180 H   0  0  0  0  0  0  0  0  0  0  0  0
    2.6521    1.6481    6.0470 H   0  0  0  0  0  0  0  0  0  0  0  0
   -1.6490   -0.1914    3.9840 H   0  0  0  0  0  0  0  0  0  0  0  0
   -1.4420    1.5174    3.6672 H   0  0  0  0  0  0  0  0  0  0  0  0
   -1.0004    0.8922    5.2157 H   0  0  0  0  0  0  0  0  0  0  0  0
   -0.1904    0.0191    1.5352 H   0  0  0  0  0  0  0  0  0  0  0  0
    1.3840    0.7906    1.6434 H   0  0  0  0  0  0  0  0  0  0  0  0
   -0.0602    1.7227    1.9232 H   0  0  0  0  0  0  0  0  0  0  0  0
    0.0472   -1.7374    3.5207 H   0  0  0  0  0  0  0  0  0  0  0  0
    1.7674   -1.4060    1.8541 H   0  0  0  0  0  0  0  0  0  0  0  0
    2.9061   -0.8542    3.0271 H   0  0  0  0  0  0  0  0  0  0  0  0
    1.6976   -3.6110    2.6489 H   0  0  0  0  0  0  0  0  0  0  0  0
    3.3147   -3.1312    2.2783 H   0  0  0  0  0  0  0  0  0  0  0  0
    5.1839   -3.2706    4.5839 H   0  0  0  0  0  0  0  0  0  0  0  0
    4.3329   -2.4587    5.8651 H   0  0  0  0  0  0  0  0  0  0  0  0
    4.4366   -1.7805    4.2375 H   0  0  0  0  0  0  0  0  0  0  0  0
    4.8888   -4.9447    6.1222 H   0  0  0  0  0  0  0  0  0  0  0  0
    3.9011   -6.3662    6.1926 H   0  0  0  0  0  0  0  0  0  0  0  0
    3.2745   -4.8833    6.7726 H   0  0  0  0  0  0  0  0  0  0  0  0
    4.6215   -4.6642    2.7867 H   0  0  0  0  0  0  0  0  0  0  0  0
    5.3576   -5.5904    4.0033 H   0  0  0  0  0  0  0  0  0  0  0  0
    3.4173   -6.4499    1.8508 H   0  0  0  0  0  0  0  0  0  0  0  0
    5.1592   -7.8812    1.5015 H   0  0  0  0  0  0  0  0  0  0  0  0
  1  2  1  0
  1 37  1  0
  1 38  1  0
  1 39  1  0
  2 11  1  0
  2  3  1  0
  2  4  1  0
  3 40  1  0
  3 41  1  0
  3 42  1  0
  4  5  1  0
  4 43  1  0
  4 44  1  0
  6  5  1  6
  5 45  1  0
  5 46  1  0
  6 13  1  0
  6 35  1  0
  6  7  1  0
  7  8  1  0
  7 47  1  0
  7 48  1  0
  8  9  1  0
  8 10  1  0
  8 49  1  6
  9 50  1  0
 10 11  1  0
 10 13  1  0
 10 51  1  1
 11 12  1  0
 11 52  1  1
 12 53  1  0
 13 14  1  0
 13 54  1  6
 14 32  1  0
 14 15  1  0
 14 55  1  6
 15 16  1  0
 15 56  1  0
 15 57  1  0
 16 17  1  0
 16 58  1  0
 16 59  1  0
 17 30  1  0
 17 18  1  0
 17 60  1  1
 18 27  1  0
 18 19  1  1
 18 20  1  0
 19 61  1  0
 19 62  1  0
 19 63  1  0
 20 21  1  0
 20 64  1  0
 20 65  1  0
 21 22  1  0
 21 66  1  0
 21 67  1  0
 22 23  2  0
 22 24  1  0
 24 25  1  0
 24 26  1  0
 24 27  1  0
 25 68  1  0
 25 69  1  0
 25 70  1  0
 26 71  1  0
 26 72  1  0
 26 73  1  0
 27 28  1  0
 27 74  1  6
 28 29  1  0
 28 75  1  0
 28 76  1  0
 29 30  1  0
 29 77  1  0
 29 78  1  0
 30 31  1  1
 30 32  1  0
 31 79  1  0
 31 80  1  0
 31 81  1  0
 32 33  1  1
 32 34  1  0
 33 82  1  0
 33 83  1  0
 33 84  1  0
 34 35  1  0
 34 85  1  0
 34 86  1  0
 35 36  1  0
 35 87  1  6
 36 88  1  0
M  END
>  <i_m_ct_stereo_status>  (171) 
1

>  <s_m_source_file>  (171) 
/var/tmp/pbs.5076255.sched01/tmpniar21pp/41tndis9zi.sdf

>  <i_m_source_file_index>  (171) 
34

>  <i_lp_mmshare_version>  (171) 
48012

>  <i_f3d_flags>  (171) 
0

>  <s_epik_input>  (171) 
W0NIMl0xW0NIMl1DKFtDSDNdKShbQ0gzXSlbQ0BIXShbT0hdKVtDQEBIXShbQ0BASF0oW0NIMl0yKVtPSF0pW0NASF0oW0NAXTEyMylbQ0BASF00W0NAQF0oW0NIM10pKFtDSDJdW0NASF0zW09IXSlbQ0BdNShbQ0gzXSlbQ0BIXShbQ0gyXVtDSDJdNClbQ0BdNihbQ0gzXSlbQ0BIXShbQ0gyXVtDSDJdNSlDKFtDSDNdKShbQ0gzXSlDKD1PKVtDSDJdW0NIMl02

>  <s_epik_cmdline>  (171) 
J2VwaWtfcHl0aG9uJywgJy1waHQnLCAnMi4wJywgJy1waCcsICc3LjAnLCAnLXRuJywgJzgnLCAnLW1hJywgJzIwMCcsICctaW1hZScsICc8aW5maWxlLm1hZT4nLCAnLW9tYWUnLCAnPG91dGZpbGUubWFlPic=

>  <r_lp_tautomer_probability>  (171) 
1

>  <r_epik_Ionization_Penalty>  (171) 
3.09385e-06

>  <r_epik_Ionization_Penalty_Charging>  (171) 
0

>  <r_epik_Ionization_Penalty_Neutral>  (171) 
3.09385e-06

>  <r_epik_State_Penalty>  (171) 
-0

>  <r_epik_Charging_Adjusted_Penalty>  (171) 
0

>  <i_epik_Tot_Q>  (171) 
0

>  <i_epik_Tot_abs_Q>  (171) 
0

>  <s_lp_Force_Field>  (171) 
OPLS3e

>  <r_lp_Energy>  (171) 
113.395

>  <b_lp_Chiralities_Consistent>  (171) 
1

>  <s_lp_Variant>  (171) 
54:0-1

>  <s_i_glide_gridfile>  (171) 
pfpi4k_grid

>  <i_i_glide_lignum>  (171) 
34

>  <i_i_glide_rotatable_bonds>  (171) 
3

>  <r_i_docking_score>  (171) 
-2.31957

>  <r_i_glide_ligand_efficiency>  (171) 
-0.0644325

>  <r_i_glide_ligand_efficiency_sa>  (171) 
-0.212751

>  <r_i_glide_ligand_efficiency_ln>  (171) 
-0.506067

>  <r_i_glide_gscore>  (171) 
-2.31957

>  <r_i_glide_lipo>  (171) 
-0.0702249

>  <r_i_glide_hbond>  (171) 
-0.16

>  <r_i_glide_metal>  (171) 
-0

>  <r_i_glide_rewards>  (171) 
0

>  <r_i_glide_evdw>  (171) 
-29.4113

>  <r_i_glide_ecoul>  (171) 
-4.09213

>  <r_i_glide_erotb>  (171) 
0

>  <r_i_glide_esite>  (171) 
-0.00495696

>  <r_i_glide_emodel>  (171) 
-38.0212

>  <r_i_glide_energy>  (171) 
-33.5035

>  <r_i_glide_einternal>  (171) 
1.10319

>  <r_i_glide_intrahb_reward>  (171) 
-0

>  <i_i_glide_confnum>  (171) 
1

>  <i_i_glide_posenum>  (171) 
6

>  <r_i_glide_eff_state_penalty>  (171) 
0

>  <ligand_id>  (171) 
54

>  <original_smiles>  (171) 
CC1(C)CCC23CC(O)C(C1O)C2C1CCC2C4(C)CCC(=O)C(C)(C)C4CCC2(C)C1(C)CC3O

>  <smiles>  (171) 
[H]OC1([H])C([H])([H])C23C([H])([H])C([H])([H])C(C([H])([H])[H])(C([H])([H])[H])C([H])(O[H])C1([H])C2([H])C1([H])C([H])([H])C([H])([H])C2([H])C4(C([H])([H])[H])C([H])([H])C([H])([H])C(=O)C(C([H])([H])[H])(C([H])([H])[H])C4([H])C([H])([H])C([H])([H])C2(C([H])([H])[H])C1(C([H])([H])[H])C([H])([H])C3([H])O[H]

$$$$
55:0:0
     RDKit          3D

 49 54  0  0  1  0  0  0  0  0999 V2000
    4.1396  -10.2756    2.5994 C   0  0  0  0  0  0  0  0  0  0  0  0
    4.9246   -9.2505    1.8734 N   0  0  2  0  0  0  0  0  0  0  0  0
    6.3380   -9.1624    2.3068 C   0  0  0  0  0  0  0  0  0  0  0  0
    6.8050   -7.7580    1.9149 C   0  0  0  0  0  0  0  0  0  0  0  0
    5.5313   -6.9327    1.9128 C   0  0  1  0  0  0  0  0  0  0  0  0
    5.6217   -5.6247    2.7269 C   0  0  2  0  0  0  0  0  0  0  0  0
    4.3199   -5.0201    3.3279 C   0  0  0  0  0  0  0  0  0  0  0  0
    3.5427   -3.9377    3.0432 C   0  0  0  0  0  0  0  0  0  0  0  0
    3.6351   -2.8518    1.9616 C   0  0  1  0  0  0  0  0  0  0  0  0
    4.8589   -2.1567    2.0978 O   0  0  0  0  0  0  0  0  0  0  0  0
    3.3391   -3.3703    0.5153 C   0  0  1  0  0  0  0  0  0  0  0  0
    3.5668   -2.3523   -0.6513 C   0  0  0  0  0  0  0  0  0  0  0  0
    4.5143   -2.8757   -1.7699 C   0  0  0  0  0  0  0  0  0  0  0  0
    5.7653   -3.4371   -1.1158 C   0  0  0  0  0  0  0  0  0  0  0  0
    7.0507   -3.0585   -1.5510 C   0  0  0  0  0  0  0  0  0  0  0  0
    8.1679   -3.4180   -0.7766 C   0  0  0  0  0  0  0  0  0  0  0  0
    8.0125   -4.0436    0.4772 C   0  0  0  0  0  0  0  0  0  0  0  0
    9.0842   -4.2871    1.2764 O   0  0  0  0  0  0  0  0  0  0  0  0
    6.6988   -4.3893    0.8603 C   0  0  0  0  0  0  0  0  0  0  0  0
    5.5688   -4.2472    0.0233 C   0  0  0  0  0  0  0  0  0  0  0  0
    4.1799   -4.5992    0.3119 C   0  0  0  0  0  0  0  0  0  0  0  0
    3.7079   -5.8436    0.5095 C   0  0  0  0  0  0  0  0  0  0  0  0
    4.5661   -7.0187    0.7401 C   0  0  2  0  0  0  0  0  0  0  0  0
    4.3525   -7.8808    1.9624 C   0  0  1  0  0  0  0  0  0  0  0  0
    6.6095   -4.7444    2.1941 O   0  0  0  0  0  0  0  0  0  0  0  0
    4.0785  -10.0525    3.6684 H   0  0  0  0  0  0  0  0  0  0  0  0
    4.5997  -11.2582    2.4785 H   0  0  0  0  0  0  0  0  0  0  0  0
    3.1271  -10.3349    2.1999 H   0  0  0  0  0  0  0  0  0  0  0  0
    6.3917   -9.2605    3.3960 H   0  0  0  0  0  0  0  0  0  0  0  0
    6.9453   -9.9546    1.8679 H   0  0  0  0  0  0  0  0  0  0  0  0
    7.5807   -7.3709    2.5889 H   0  0  0  0  0  0  0  0  0  0  0  0
    7.2123   -7.7629    0.9009 H   0  0  0  0  0  0  0  0  0  0  0  0
    6.1172   -5.9186    3.6522 H   0  0  0  0  0  0  0  0  0  0  0  0
    3.9582   -5.6087    4.1607 H   0  0  0  0  0  0  0  0  0  0  0  0
    2.6780   -3.8104    3.6761 H   0  0  0  0  0  0  0  0  0  0  0  0
    2.8704   -2.1149    2.2101 H   0  0  0  0  0  0  0  0  0  0  0  0
    4.8072   -1.3521    1.6056 H   0  0  0  0  0  0  0  0  0  0  0  0
    2.2954   -3.6803    0.4929 H   0  0  0  0  0  0  0  0  0  0  0  0
    2.6133   -2.0611   -1.0958 H   0  0  0  0  0  0  0  0  0  0  0  0
    3.9881   -1.4257   -0.2592 H   0  0  0  0  0  0  0  0  0  0  0  0
    4.0193   -3.6616   -2.3463 H   0  0  0  0  0  0  0  0  0  0  0  0
    4.7673   -2.0754   -2.4684 H   0  0  0  0  0  0  0  0  0  0  0  0
    7.1840   -2.5213   -2.4781 H   0  0  0  0  0  0  0  0  0  0  0  0
    9.1583   -3.1639   -1.1251 H   0  0  0  0  0  0  0  0  0  0  0  0
    8.8180   -4.5541    2.1470 H   0  0  0  0  0  0  0  0  0  0  0  0
    2.6549   -5.9926    0.7241 H   0  0  0  0  0  0  0  0  0  0  0  0
    4.8961   -7.4925   -0.1782 H   0  0  0  0  0  0  0  0  0  0  0  0
    3.5323   -7.7127    2.6588 H   0  0  0  0  0  0  0  0  0  0  0  0
    4.9151   -9.5272    0.8976 H   0  0  0  0  0  0  0  0  0  0  0  0
  1  2  1  0
  1 26  1  0
  1 27  1  0
  1 28  1  0
  2 24  1  0
  2  3  1  0
  2 49  1  6
  3  4  1  0
  3 29  1  0
  3 30  1  0
  5  4  1  6
  4 31  1  0
  4 32  1  0
  5 23  1  0
  5 24  1  0
  5  6  1  0
  6 25  1  0
  6  7  1  0
  6 33  1  1
  7  8  2  3
  7 34  1  0
  8  9  1  0
  8 35  1  0
  9 10  1  0
  9 11  1  0
  9 36  1  1
 10 37  1  0
 11 21  1  0
 11 12  1  0
 11 38  1  1
 12 13  1  0
 12 39  1  0
 12 40  1  0
 13 14  1  0
 13 41  1  0
 13 42  1  0
 14 20  2  0
 14 15  1  0
 15 16  2  0
 15 43  1  0
 16 17  1  0
 16 44  1  0
 17 18  1  0
 17 19  2  0
 18 45  1  0
 19 20  1  0
 19 25  1  0
 20 21  1  0
 21 22  2  3
 22 23  1  0
 22 46  1  0
 23 24  1  0
 23 47  1  6
 24 48  1  1
M  CHG  1   2   1
M  END
>  <i_m_ct_stereo_status>  (172) 
1

>  <s_m_source_file>  (172) 
/var/tmp/pbs.5076255.sched01/tmpniar21pp/41tndis9zi.sdf

>  <i_m_source_file_index>  (172) 
35

>  <i_lp_mmshare_version>  (172) 
48012

>  <i_f3d_flags>  (172) 
0

>  <s_epik_input>  (172) 
W0NIMl0xW0NIMl1OKFtDSDNdKVtDQEBIXTJbQ0BIXTNcW0NIXT1DKFxbQ0BIXTRbQ0BIXShbT0hdKS9bQ0hdPVtDSF1cW0NASF01W0NAQF0xMjMpYzZjKFtDSDJdW0NIMl00KVtjSF1bY0hdYyhbT0hdKWM2TzU=

>  <s_epik_cmdline>  (172) 
J2VwaWtfcHl0aG9uJywgJy1waHQnLCAnMi4wJywgJy1waCcsICc3LjAnLCAnLXRuJywgJzgnLCAnLW1hJywgJzIwMCcsICctaW1hZScsICc8aW5maWxlLm1hZT4nLCAnLW9tYWUnLCAnPG91dGZpbGUubWFlPic=

>  <r_epik_Ionization_Penalty>  (172) 
0.00990519

>  <r_epik_Ionization_Penalty_Charging>  (172) 
0.00905413

>  <r_epik_Ionization_Penalty_Neutral>  (172) 
0.000851055

>  <r_epik_State_Penalty>  (172) 
0.006856

>  <r_epik_Charging_Adjusted_Penalty>  (172) 
0.0159101

>  <i_epik_Tot_Q>  (172) 
1

>  <i_epik_Tot_abs_Q>  (172) 
1

>  <s_lp_Force_Field>  (172) 
OPLS3e

>  <r_lp_Energy>  (172) 
80.2367

>  <b_lp_Chiralities_Consistent>  (172) 
1

>  <s_lp_Variant>  (172) 
55:0-1

>  <s_i_glide_gridfile>  (172) 
pfpi4k_grid

>  <i_i_glide_lignum>  (172) 
35

>  <i_i_glide_rotatable_bonds>  (172) 
2

>  <r_i_docking_score>  (172) 
-3.86111

>  <r_i_glide_ligand_efficiency>  (172) 
-0.154444

>  <r_i_glide_ligand_efficiency_sa>  (172) 
-0.451598

>  <r_i_glide_ligand_efficiency_ln>  (172) 
-0.915199

>  <r_i_glide_gscore>  (172) 
-3.86111

>  <r_i_glide_lipo>  (172) 
-0.941404

>  <r_i_glide_hbond>  (172) 
0

>  <r_i_glide_metal>  (172) 
-0

>  <r_i_glide_rewards>  (172) 
-1.10168

>  <r_i_glide_evdw>  (172) 
-21.3084

>  <r_i_glide_ecoul>  (172) 
-4.76468

>  <r_i_glide_erotb>  (172) 
0

>  <r_i_glide_esite>  (172) 
-0.0379053

>  <r_i_glide_emodel>  (172) 
-33.7988

>  <r_i_glide_energy>  (172) 
-26.0731

>  <r_i_glide_einternal>  (172) 
0.496075

>  <r_i_glide_intrahb_reward>  (172) 
-0

>  <i_i_glide_confnum>  (172) 
2

>  <i_i_glide_posenum>  (172) 
24

>  <r_i_glide_eff_state_penalty>  (172) 
0

>  <ligand_id>  (172) 
55

>  <original_smiles>  (172) 
CN1CCC23C4C=CC(O)C5CCc6ccc(O)c(c6C5=CC2C13)O4

>  <smiles>  (172) 
[H]Oc1c([H])c([H])c2c3c1OC1([H])C([H])=C([H])C([H])(O[H])C([H])(C3=C([H])C3([H])C14C([H])([H])C([H])([H])[N+]([H])(C([H])([H])[H])C34[H])C([H])([H])C2([H])[H]

$$$$
55:0:1
     RDKit          3D

 49 54  0  0  1  0  0  0  0  0999 V2000
    4.1456  -11.0210    2.8388 C   0  0  0  0  0  0  0  0  0  0  0  0
    4.8147   -9.9173    2.1138 N   0  0  2  0  0  0  0  0  0  0  0  0
    6.2861   -9.9003    2.2804 C   0  0  0  0  0  0  0  0  0  0  0  0
    6.7197   -8.4621    1.9909 C   0  0  0  0  0  0  0  0  0  0  0  0
    5.4954   -7.6298    2.3323 C   0  0  1  0  0  0  0  0  0  0  0  0
    5.7760   -6.4429    3.2842 C   0  0  2  0  0  0  0  0  0  0  0  0
    4.6209   -5.9195    4.1841 C   0  0  0  0  0  0  0  0  0  0  0  0
    3.8404   -4.8019    4.1860 C   0  0  0  0  0  0  0  0  0  0  0  0
    3.7670   -3.5831    3.2528 C   0  0  1  0  0  0  0  0  0  0  0  0
    5.0153   -2.9249    3.2377 O   0  0  0  0  0  0  0  0  0  0  0  0
    3.2011   -3.9022    1.8295 C   0  0  1  0  0  0  0  0  0  0  0  0
    3.2437   -2.7373    0.7832 C   0  0  0  0  0  0  0  0  0  0  0  0
    3.9642   -3.1192   -0.5474 C   0  0  0  0  0  0  0  0  0  0  0  0
    5.2934   -3.7927   -0.2221 C   0  0  0  0  0  0  0  0  0  0  0  0
    6.4946   -3.3845   -0.8366 C   0  0  0  0  0  0  0  0  0  0  0  0
    7.7252   -3.8308   -0.3147 C   0  0  0  0  0  0  0  0  0  0  0  0
    7.7776   -4.6019    0.8656 C   0  0  0  0  0  0  0  0  0  0  0  0
    8.9649   -4.9426    1.4392 O   0  0  0  0  0  0  0  0  0  0  0  0
    6.5380   -4.9835    1.4272 C   0  0  0  0  0  0  0  0  0  0  0  0
    5.2823   -4.7343    0.8285 C   0  0  0  0  0  0  0  0  0  0  0  0
    3.9545   -5.1018    1.3207 C   0  0  0  0  0  0  0  0  0  0  0  0
    3.4849   -6.3583    1.4348 C   0  0  0  0  0  0  0  0  0  0  0  0
    4.3333   -7.5561    1.3509 C   0  0  2  0  0  0  0  0  0  0  0  0
    4.3159   -8.5658    2.4702 C   0  0  1  0  0  0  0  0  0  0  0  0
    6.6680   -5.4863    2.7105 O   0  0  0  0  0  0  0  0  0  0  0  0
    4.2866  -10.9475    3.9185 H   0  0  0  0  0  0  0  0  0  0  0  0
    4.5442  -11.9781    2.5038 H   0  0  0  0  0  0  0  0  0  0  0  0
    3.0779  -11.0219    2.6221 H   0  0  0  0  0  0  0  0  0  0  0  0
    6.5329  -10.1378    3.3180 H   0  0  0  0  0  0  0  0  0  0  0  0
    6.7746  -10.6367    1.6422 H   0  0  0  0  0  0  0  0  0  0  0  0
    7.6190   -8.1731    2.5463 H   0  0  0  0  0  0  0  0  0  0  0  0
    6.9296   -8.3407    0.9272 H   0  0  0  0  0  0  0  0  0  0  0  0
    6.4199   -6.8657    4.0568 H   0  0  0  0  0  0  0  0  0  0  0  0
    4.3959   -6.6085    4.9873 H   0  0  0  0  0  0  0  0  0  0  0  0
    3.1081   -4.7507    4.9782 H   0  0  0  0  0  0  0  0  0  0  0  0
    3.0944   -2.8713    3.7305 H   0  0  0  0  0  0  0  0  0  0  0  0
    5.6404   -3.4843    2.8012 H   0  0  0  0  0  0  0  0  0  0  0  0
    2.1626   -4.1979    1.9631 H   0  0  0  0  0  0  0  0  0  0  0  0
    2.2379   -2.3707    0.5726 H   0  0  0  0  0  0  0  0  0  0  0  0
    3.7688   -1.8810    1.2099 H   0  0  0  0  0  0  0  0  0  0  0  0
    3.3458   -3.8085   -1.1258 H   0  0  0  0  0  0  0  0  0  0  0  0
    4.1134   -2.2340   -1.1684 H   0  0  0  0  0  0  0  0  0  0  0  0
    6.4740   -2.7115   -1.6828 H   0  0  0  0  0  0  0  0  0  0  0  0
    8.6451   -3.5272   -0.7977 H   0  0  0  0  0  0  0  0  0  0  0  0
    8.8428   -5.4003    2.2581 H   0  0  0  0  0  0  0  0  0  0  0  0
    2.4876   -6.5226    1.8246 H   0  0  0  0  0  0  0  0  0  0  0  0
    4.4936   -7.9051    0.3329 H   0  0  0  0  0  0  0  0  0  0  0  0
    3.6408   -8.4844    3.3202 H   0  0  0  0  0  0  0  0  0  0  0  0
    4.6154  -10.0825    1.1299 H   0  0  0  0  0  0  0  0  0  0  0  0
  1  2  1  0
  1 26  1  0
  1 27  1  0
  1 28  1  0
  2 24  1  0
  2  3  1  0
  2 49  1  6
  3  4  1  0
  3 29  1  0
  3 30  1  0
  5  4  1  6
  4 31  1  0
  4 32  1  0
  5 23  1  0
  5 24  1  0
  5  6  1  0
  6 25  1  0
  6  7  1  0
  6 33  1  1
  7  8  2  3
  7 34  1  0
  8  9  1  0
  8 35  1  0
  9 10  1  0
  9 11  1  0
  9 36  1  1
 10 37  1  0
 11 21  1  0
 11 12  1  0
 11 38  1  1
 12 13  1  0
 12 39  1  0
 12 40  1  0
 13 14  1  0
 13 41  1  0
 13 42  1  0
 14 20  2  0
 14 15  1  0
 15 16  2  0
 15 43  1  0
 16 17  1  0
 16 44  1  0
 17 18  1  0
 17 19  2  0
 18 45  1  0
 19 20  1  0
 19 25  1  0
 20 21  1  0
 21 22  2  3
 22 23  1  0
 22 46  1  0
 23 24  1  0
 23 47  1  6
 24 48  1  1
M  CHG  1   2   1
M  END
>  <i_m_ct_stereo_status>  (173) 
1

>  <s_m_source_file>  (173) 
/var/tmp/pbs.5076255.sched01/tmpniar21pp/41tndis9zi.sdf

>  <i_m_source_file_index>  (173) 
35

>  <i_lp_mmshare_version>  (173) 
48012

>  <i_f3d_flags>  (173) 
0

>  <s_epik_input>  (173) 
W0NIMl0xW0NIMl1OKFtDSDNdKVtDQEBIXTJbQ0BIXTNcW0NIXT1DKFxbQ0BIXTRbQ0BIXShbT0hdKS9bQ0hdPVtDSF1cW0NASF01W0NAQF0xMjMpYzZjKFtDSDJdW0NIMl00KVtjSF1bY0hdYyhbT0hdKWM2TzU=

>  <s_epik_cmdline>  (173) 
J2VwaWtfcHl0aG9uJywgJy1waHQnLCAnMi4wJywgJy1waCcsICc3LjAnLCAnLXRuJywgJzgnLCAnLW1hJywgJzIwMCcsICctaW1hZScsICc8aW5maWxlLm1hZT4nLCAnLW9tYWUnLCAnPG91dGZpbGUubWFlPic=

>  <r_epik_Ionization_Penalty>  (173) 
0.00990519

>  <r_epik_Ionization_Penalty_Charging>  (173) 
0.00905413

>  <r_epik_Ionization_Penalty_Neutral>  (173) 
0.000851055

>  <r_epik_State_Penalty>  (173) 
0.006856

>  <r_epik_Charging_Adjusted_Penalty>  (173) 
0.0159101

>  <i_epik_Tot_Q>  (173) 
1

>  <i_epik_Tot_abs_Q>  (173) 
1

>  <s_lp_Force_Field>  (173) 
OPLS3e

>  <r_lp_Energy>  (173) 
80.2367

>  <b_lp_Chiralities_Consistent>  (173) 
1

>  <s_lp_Variant>  (173) 
55:0-1

>  <s_i_glide_gridfile>  (173) 
pfpi4k_grid

>  <i_i_glide_lignum>  (173) 
35

>  <i_i_glide_rotatable_bonds>  (173) 
2

>  <r_i_docking_score>  (173) 
-3.68265

>  <r_i_glide_ligand_efficiency>  (173) 
-0.147306

>  <r_i_glide_ligand_efficiency_sa>  (173) 
-0.430725

>  <r_i_glide_ligand_efficiency_ln>  (173) 
-0.872898

>  <r_i_glide_gscore>  (173) 
-3.68265

>  <r_i_glide_lipo>  (173) 
-0.885443

>  <r_i_glide_hbond>  (173) 
-0.0454848

>  <r_i_glide_metal>  (173) 
-0

>  <r_i_glide_rewards>  (173) 
-1.10168

>  <r_i_glide_evdw>  (173) 
-19.1264

>  <r_i_glide_ecoul>  (173) 
-4.15586

>  <r_i_glide_erotb>  (173) 
0

>  <r_i_glide_esite>  (173) 
-0.0703419

>  <r_i_glide_emodel>  (173) 
-30.9064

>  <r_i_glide_energy>  (173) 
-23.2823

>  <r_i_glide_einternal>  (173) 
0.00137323

>  <r_i_glide_intrahb_reward>  (173) 
-0

>  <i_i_glide_confnum>  (173) 
1

>  <i_i_glide_posenum>  (173) 
1

>  <r_i_glide_eff_state_penalty>  (173) 
0

>  <ligand_id>  (173) 
55

>  <original_smiles>  (173) 
CN1CCC23C4C=CC(O)C5CCc6ccc(O)c(c6C5=CC2C13)O4

>  <smiles>  (173) 
[H]Oc1c([H])c([H])c2c3c1OC1([H])C([H])=C([H])C([H])(O[H])C([H])(C3=C([H])C3([H])C14C([H])([H])C([H])([H])[N+]([H])(C([H])([H])[H])C34[H])C([H])([H])C2([H])[H]

$$$$
55:0:2
     RDKit          3D

 49 54  0  0  1  0  0  0  0  0999 V2000
    3.6593   -1.5705   -2.3510 C   0  0  0  0  0  0  0  0  0  0  0  0
    3.4143   -1.8132   -0.9107 N   0  0  2  0  0  0  0  0  0  0  0  0
    4.3415   -1.0742   -0.0173 C   0  0  0  0  0  0  0  0  0  0  0  0
    4.3615   -1.8515    1.2993 C   0  0  0  0  0  0  0  0  0  0  0  0
    4.0290   -3.2771    0.8917 C   0  0  1  0  0  0  0  0  0  0  0  0
    5.0037   -4.3420    1.4427 C   0  0  2  0  0  0  0  0  0  0  0  0
    5.1635   -5.6765    0.6656 C   0  0  0  0  0  0  0  0  0  0  0  0
    4.7670   -6.9633    0.8794 C   0  0  0  0  0  0  0  0  0  0  0  0
    3.9652   -7.6374    1.9990 C   0  0  1  0  0  0  0  0  0  0  0  0
    4.6323   -7.4539    3.2313 O   0  0  0  0  0  0  0  0  0  0  0  0
    2.4522   -7.2446    2.0093 C   0  0  1  0  0  0  0  0  0  0  0  0
    1.6040   -7.7709    3.2135 C   0  0  0  0  0  0  0  0  0  0  0  0
    0.8460   -6.6459    3.9842 C   0  0  0  0  0  0  0  0  0  0  0  0
    1.8068   -5.4973    4.2714 C   0  0  0  0  0  0  0  0  0  0  0  0
    1.9150   -4.9400    5.5604 C   0  0  0  0  0  0  0  0  0  0  0  0
    2.9916   -4.0878    5.8541 C   0  0  0  0  0  0  0  0  0  0  0  0
    4.0195   -3.8642    4.9138 C   0  0  0  0  0  0  0  0  0  0  0  0
    5.1306   -3.1465    5.2442 O   0  0  0  0  0  0  0  0  0  0  0  0
    3.8478   -4.4376    3.6332 C   0  0  0  0  0  0  0  0  0  0  0  0
    2.6810   -5.1274    3.2266 C   0  0  0  0  0  0  0  0  0  0  0  0
    2.3956   -5.7439    1.9320 C   0  0  0  0  0  0  0  0  0  0  0  0
    2.2366   -5.0805    0.7731 C   0  0  0  0  0  0  0  0  0  0  0  0
    2.5871   -3.6616    0.5956 C   0  0  2  0  0  0  0  0  0  0  0  0
    3.5029   -3.2474   -0.5245 C   0  0  1  0  0  0  0  0  0  0  0  0
    4.9989   -4.3906    2.8646 O   0  0  0  0  0  0  0  0  0  0  0  0
    4.6565   -1.9067   -2.6467 H   0  0  0  0  0  0  0  0  0  0  0  0
    3.5768   -0.5075   -2.5758 H   0  0  0  0  0  0  0  0  0  0  0  0
    2.9268   -2.1022   -2.9545 H   0  0  0  0  0  0  0  0  0  0  0  0
    5.3487   -1.0964   -0.4455 H   0  0  0  0  0  0  0  0  0  0  0  0
    4.0571   -0.0293    0.1072 H   0  0  0  0  0  0  0  0  0  0  0  0
    5.3125   -1.7585    1.8327 H   0  0  0  0  0  0  0  0  0  0  0  0
    3.5670   -1.4897    1.9538 H   0  0  0  0  0  0  0  0  0  0  0  0
    5.9902   -3.9114    1.2737 H   0  0  0  0  0  0  0  0  0  0  0  0
    5.7068   -5.5317   -0.2577 H   0  0  0  0  0  0  0  0  0  0  0  0
    5.0189   -7.6649    0.0995 H   0  0  0  0  0  0  0  0  0  0  0  0
    4.0303   -8.7086    1.8037 H   0  0  0  0  0  0  0  0  0  0  0  0
    4.3578   -8.1309    3.8310 H   0  0  0  0  0  0  0  0  0  0  0  0
    2.0119   -7.6334    1.0923 H   0  0  0  0  0  0  0  0  0  0  0  0
    0.9036   -8.5392    2.8790 H   0  0  0  0  0  0  0  0  0  0  0  0
    2.2575   -8.2786    3.9256 H   0  0  0  0  0  0  0  0  0  0  0  0
    0.0179   -6.2744    3.3801 H   0  0  0  0  0  0  0  0  0  0  0  0
    0.4159   -7.0403    4.9089 H   0  0  0  0  0  0  0  0  0  0  0  0
    1.2102   -5.2044    6.3346 H   0  0  0  0  0  0  0  0  0  0  0  0
    3.0730   -3.6630    6.8441 H   0  0  0  0  0  0  0  0  0  0  0  0
    5.1179   -2.8362    6.1353 H   0  0  0  0  0  0  0  0  0  0  0  0
    2.0520   -5.6309   -0.1421 H   0  0  0  0  0  0  0  0  0  0  0  0
    1.8171   -2.9714    0.9062 H   0  0  0  0  0  0  0  0  0  0  0  0
    3.8721   -3.9558   -1.2673 H   0  0  0  0  0  0  0  0  0  0  0  0
    2.4570   -1.4960   -0.7170 H   0  0  0  0  0  0  0  0  0  0  0  0
  1  2  1  0
  1 26  1  0
  1 27  1  0
  1 28  1  0
  2 24  1  0
  2  3  1  0
  2 49  1  1
  3  4  1  0
  3 29  1  0
  3 30  1  0
  5  4  1  1
  4 31  1  0
  4 32  1  0
  5 23  1  0
  5 24  1  0
  5  6  1  0
  6 25  1  0
  6  7  1  0
  6 33  1  1
  7  8  2  3
  7 34  1  0
  8  9  1  0
  8 35  1  0
  9 10  1  0
  9 11  1  0
  9 36  1  6
 10 37  1  0
 11 21  1  0
 11 12  1  0
 11 38  1  6
 12 13  1  0
 12 39  1  0
 12 40  1  0
 13 14  1  0
 13 41  1  0
 13 42  1  0
 14 20  2  0
 14 15  1  0
 15 16  2  0
 15 43  1  0
 16 17  1  0
 16 44  1  0
 17 18  1  0
 17 19  2  0
 18 45  1  0
 19 20  1  0
 19 25  1  0
 20 21  1  0
 21 22  2  3
 22 23  1  0
 22 46  1  0
 23 24  1  0
 23 47  1  1
 24 48  1  6
M  CHG  1   2   1
M  END
>  <i_m_ct_stereo_status>  (174) 
1

>  <s_m_source_file>  (174) 
/var/tmp/pbs.5076255.sched01/tmpniar21pp/41tndis9zi.sdf

>  <i_m_source_file_index>  (174) 
35

>  <i_lp_mmshare_version>  (174) 
48012

>  <i_f3d_flags>  (174) 
0

>  <s_epik_input>  (174) 
W0NIMl0xW0NIMl1OKFtDSDNdKVtDQEBIXTJbQ0BIXTNcW0NIXT1DKFxbQ0BIXTRbQ0BIXShbT0hdKS9bQ0hdPVtDSF1cW0NASF01W0NAQF0xMjMpYzZjKFtDSDJdW0NIMl00KVtjSF1bY0hdYyhbT0hdKWM2TzU=

>  <s_epik_cmdline>  (174) 
J2VwaWtfcHl0aG9uJywgJy1waHQnLCAnMi4wJywgJy1waCcsICc3LjAnLCAnLXRuJywgJzgnLCAnLW1hJywgJzIwMCcsICctaW1hZScsICc8aW5maWxlLm1hZT4nLCAnLW9tYWUnLCAnPG91dGZpbGUubWFlPic=

>  <r_epik_Ionization_Penalty>  (174) 
0.00990519

>  <r_epik_Ionization_Penalty_Charging>  (174) 
0.00905413

>  <r_epik_Ionization_Penalty_Neutral>  (174) 
0.000851055

>  <r_epik_State_Penalty>  (174) 
0.006856

>  <r_epik_Charging_Adjusted_Penalty>  (174) 
0.0159101

>  <i_epik_Tot_Q>  (174) 
1

>  <i_epik_Tot_abs_Q>  (174) 
1

>  <s_lp_Force_Field>  (174) 
OPLS3e

>  <r_lp_Energy>  (174) 
80.2367

>  <b_lp_Chiralities_Consistent>  (174) 
1

>  <s_lp_Variant>  (174) 
55:0-1

>  <s_i_glide_gridfile>  (174) 
pfpi4k_grid

>  <i_i_glide_lignum>  (174) 
35

>  <i_i_glide_rotatable_bonds>  (174) 
2

>  <r_i_docking_score>  (174) 
-3.294

>  <r_i_glide_ligand_efficiency>  (174) 
-0.13176

>  <r_i_glide_ligand_efficiency_sa>  (174) 
-0.385269

>  <r_i_glide_ligand_efficiency_ln>  (174) 
-0.780778

>  <r_i_glide_gscore>  (174) 
-3.294

>  <r_i_glide_lipo>  (174) 
-0.29134

>  <r_i_glide_hbond>  (174) 
-0.2

>  <r_i_glide_metal>  (174) 
-0

>  <r_i_glide_rewards>  (174) 
-1.10168

>  <r_i_glide_evdw>  (174) 
-17.1464

>  <r_i_glide_ecoul>  (174) 
-5.00012

>  <r_i_glide_erotb>  (174) 
0

>  <r_i_glide_esite>  (174) 
-0.0936441

>  <r_i_glide_emodel>  (174) 
-28.6868

>  <r_i_glide_energy>  (174) 
-22.1466

>  <r_i_glide_einternal>  (174) 
0.508421

>  <r_i_glide_intrahb_reward>  (174) 
-0

>  <i_i_glide_confnum>  (174) 
2

>  <i_i_glide_posenum>  (174) 
10

>  <r_i_glide_eff_state_penalty>  (174) 
0

>  <ligand_id>  (174) 
55

>  <original_smiles>  (174) 
CN1CCC23C4C=CC(O)C5CCc6ccc(O)c(c6C5=CC2C13)O4

>  <smiles>  (174) 
[H]Oc1c([H])c([H])c2c3c1OC1([H])C([H])=C([H])C([H])(O[H])C([H])(C3=C([H])C3([H])C14C([H])([H])C([H])([H])[N+]([H])(C([H])([H])[H])C34[H])C([H])([H])C2([H])[H]

$$$$
55:1:0
     RDKit          3D

 49 54  0  0  1  0  0  0  0  0999 V2000
    2.4284   -2.8443   -3.7484 C   0  0  0  0  0  0  0  0  0  0  0  0
    2.6498   -2.4119   -2.3474 N   0  0  2  0  0  0  0  0  0  0  0  0
    3.3393   -1.1114   -2.2336 C   0  0  0  0  0  0  0  0  0  0  0  0
    3.9592   -1.1082   -0.8332 C   0  0  0  0  0  0  0  0  0  0  0  0
    4.1822   -2.5758   -0.5067 C   0  0  1  0  0  0  0  0  0  0  0  0
    5.6131   -2.8818   -0.0007 C   0  0  2  0  0  0  0  0  0  0  0  0
    6.0598   -4.3529    0.0359 C   0  0  0  0  0  0  0  0  0  0  0  0
    6.5356   -4.9588    1.1440 C   0  0  0  0  0  0  0  0  0  0  0  0
    5.9524   -6.3000    1.5937 C   0  0  1  0  0  0  0  0  0  0  0  0
    6.8754   -7.0234    2.3826 O   0  0  0  0  0  0  0  0  0  0  0  0
    4.5453   -6.1075    2.3007 C   0  0  1  0  0  0  0  0  0  0  0  0
    4.5080   -6.2190    3.8576 C   0  0  0  0  0  0  0  0  0  0  0  0
    3.5368   -5.1999    4.5065 C   0  0  0  0  0  0  0  0  0  0  0  0
    3.9386   -3.8031    4.0585 C   0  0  0  0  0  0  0  0  0  0  0  0
    4.0858   -2.7702    5.0055 C   0  0  0  0  0  0  0  0  0  0  0  0
    4.6537   -1.5499    4.6127 C   0  0  0  0  0  0  0  0  0  0  0  0
    5.1617   -1.3761    3.3112 C   0  0  0  0  0  0  0  0  0  0  0  0
    5.8243   -0.2400    2.9695 O   0  0  0  0  0  0  0  0  0  0  0  0
    5.0002   -2.4380    2.3958 C   0  0  0  0  0  0  0  0  0  0  0  0
    4.2648   -3.6297    2.6930 C   0  0  0  0  0  0  0  0  0  0  0  0
    3.9103   -4.7892    1.8410 C   0  0  0  0  0  0  0  0  0  0  0  0
    3.2471   -4.7004    0.6686 C   0  0  0  0  0  0  0  0  0  0  0  0
    3.0014   -3.4461   -0.0744 C   0  0  2  0  0  0  0  0  0  0  0  0
    3.4120   -3.3870   -1.5260 C   0  0  1  0  0  0  0  0  0  0  0  0
    5.7486   -2.1912    1.2443 O   0  0  0  0  0  0  0  0  0  0  0  0
    3.3734   -2.9902   -4.2780 H   0  0  0  0  0  0  0  0  0  0  0  0
    1.8483   -2.1017   -4.2974 H   0  0  0  0  0  0  0  0  0  0  0  0
    1.8805   -3.7839   -3.7808 H   0  0  0  0  0  0  0  0  0  0  0  0
    4.1361   -1.0451   -2.9763 H   0  0  0  0  0  0  0  0  0  0  0  0
    2.6465   -0.2892   -2.4106 H   0  0  0  0  0  0  0  0  0  0  0  0
    4.8719   -0.5025   -0.7838 H   0  0  0  0  0  0  0  0  0  0  0  0
    3.2481   -0.7095   -0.1067 H   0  0  0  0  0  0  0  0  0  0  0  0
    6.2984   -2.4100   -0.7044 H   0  0  0  0  0  0  0  0  0  0  0  0
    5.5697   -4.9707   -0.7057 H   0  0  0  0  0  0  0  0  0  0  0  0
    6.9158   -4.3555    1.9541 H   0  0  0  0  0  0  0  0  0  0  0  0
    5.7926   -6.9037    0.7004 H   0  0  0  0  0  0  0  0  0  0  0  0
    7.6690   -7.1707    1.8873 H   0  0  0  0  0  0  0  0  0  0  0  0
    3.9021   -6.9010    1.9206 H   0  0  0  0  0  0  0  0  0  0  0  0
    4.2519   -7.2371    4.1572 H   0  0  0  0  0  0  0  0  0  0  0  0
    5.4980   -6.0254    4.2731 H   0  0  0  0  0  0  0  0  0  0  0  0
    2.5078   -5.3970    4.2021 H   0  0  0  0  0  0  0  0  0  0  0  0
    3.5716   -5.2805    5.5935 H   0  0  0  0  0  0  0  0  0  0  0  0
    3.7968   -2.9289    6.0358 H   0  0  0  0  0  0  0  0  0  0  0  0
    4.7745   -0.7607    5.3418 H   0  0  0  0  0  0  0  0  0  0  0  0
    6.3310   -0.3388    2.1752 H   0  0  0  0  0  0  0  0  0  0  0  0
    3.0536   -5.6077    0.1073 H   0  0  0  0  0  0  0  0  0  0  0  0
    2.0904   -2.9425    0.2342 H   0  0  0  0  0  0  0  0  0  0  0  0
    3.8903   -4.2183   -2.0356 H   0  0  0  0  0  0  0  0  0  0  0  0
    1.7468   -2.2699   -1.8975 H   0  0  0  0  0  0  0  0  0  0  0  0
  1  2  1  0
  1 26  1  0
  1 27  1  0
  1 28  1  0
  2 24  1  0
  2  3  1  0
  2 49  1  1
  3  4  1  0
  3 29  1  0
  3 30  1  0
  5  4  1  6
  4 31  1  0
  4 32  1  0
  5 23  1  0
  5 24  1  0
  5  6  1  0
  6 25  1  0
  6  7  1  0
  6 33  1  6
  7  8  2  3
  7 34  1  0
  8  9  1  0
  8 35  1  0
  9 10  1  0
  9 11  1  0
  9 36  1  6
 10 37  1  0
 11 21  1  0
 11 12  1  0
 11 38  1  6
 12 13  1  0
 12 39  1  0
 12 40  1  0
 13 14  1  0
 13 41  1  0
 13 42  1  0
 14 20  2  0
 14 15  1  0
 15 16  2  0
 15 43  1  0
 16 17  1  0
 16 44  1  0
 17 18  1  0
 17 19  2  0
 18 45  1  0
 19 20  1  0
 19 25  1  0
 20 21  1  0
 21 22  2  3
 22 23  1  0
 22 46  1  0
 23 24  1  0
 23 47  1  6
 24 48  1  6
M  CHG  1   2   1
M  END
>  <i_m_ct_stereo_status>  (175) 
1

>  <s_m_source_file>  (175) 
/var/tmp/pbs.5076255.sched01/tmpniar21pp/41tndis9zi.sdf

>  <i_m_source_file_index>  (175) 
36

>  <i_lp_mmshare_version>  (175) 
48012

>  <i_f3d_flags>  (175) 
0

>  <s_epik_input>  (175) 
W0NIMl0xW0NIMl1OKFtDSDNdKVtDQEBIXTJbQ0BIXTNcW0NIXT1DKFxbQ0BIXTRbQ0BIXShbT0hdKS9bQ0hdPVtDSF1cW0NASF01W0NAQF0xMjMpYzZjKFtDSDJdW0NIMl00KVtjSF1bY0hdYyhbT0hdKWM2TzU=

>  <s_epik_cmdline>  (175) 
J2VwaWtfcHl0aG9uJywgJy1waHQnLCAnMi4wJywgJy1waCcsICc3LjAnLCAnLXRuJywgJzgnLCAnLW1hJywgJzIwMCcsICctaW1hZScsICc8aW5maWxlLm1hZT4nLCAnLW9tYWUnLCAnPG91dGZpbGUubWFlPic=

>  <r_epik_Ionization_Penalty>  (175) 
0.00990519

>  <r_epik_Ionization_Penalty_Charging>  (175) 
0.00905413

>  <r_epik_Ionization_Penalty_Neutral>  (175) 
0.000851055

>  <r_epik_State_Penalty>  (175) 
0.006856

>  <r_epik_Charging_Adjusted_Penalty>  (175) 
0.0159101

>  <i_epik_Tot_Q>  (175) 
1

>  <i_epik_Tot_abs_Q>  (175) 
1

>  <s_lp_Force_Field>  (175) 
OPLS3e

>  <r_lp_Energy>  (175) 
90.7075

>  <b_lp_Chiralities_Consistent>  (175) 
1

>  <s_lp_Variant>  (175) 
55:0-2

>  <s_i_glide_gridfile>  (175) 
pfpi4k_grid

>  <i_i_glide_lignum>  (175) 
36

>  <i_i_glide_rotatable_bonds>  (175) 
2

>  <r_i_docking_score>  (175) 
-4.00841

>  <r_i_glide_ligand_efficiency>  (175) 
-0.160336

>  <r_i_glide_ligand_efficiency_sa>  (175) 
-0.468826

>  <r_i_glide_ligand_efficiency_ln>  (175) 
-0.950112

>  <r_i_glide_gscore>  (175) 
-4.00841

>  <r_i_glide_lipo>  (175) 
-0.750608

>  <r_i_glide_hbond>  (175) 
-0.175596

>  <r_i_glide_metal>  (175) 
-0

>  <r_i_glide_rewards>  (175) 
-1.10168

>  <r_i_glide_evdw>  (175) 
-19.7288

>  <r_i_glide_ecoul>  (175) 
-6.22797

>  <r_i_glide_erotb>  (175) 
0

>  <r_i_glide_esite>  (175) 
-0.0598855

>  <r_i_glide_emodel>  (175) 
-33.4565

>  <r_i_glide_energy>  (175) 
-25.9568

>  <r_i_glide_einternal>  (175) 
0.58976

>  <r_i_glide_intrahb_reward>  (175) 
-0

>  <i_i_glide_confnum>  (175) 
2

>  <i_i_glide_posenum>  (175) 
15

>  <r_i_glide_eff_state_penalty>  (175) 
0

>  <ligand_id>  (175) 
55

>  <original_smiles>  (175) 
CN1CCC23C4C=CC(O)C5CCc6ccc(O)c(c6C5=CC2C13)O4

>  <smiles>  (175) 
[H]Oc1c([H])c([H])c2c3c1OC1([H])C([H])=C([H])C([H])(O[H])C([H])(C3=C([H])C3([H])C14C([H])([H])C([H])([H])[N+]([H])(C([H])([H])[H])C34[H])C([H])([H])C2([H])[H]

$$$$
55:1:1
     RDKit          3D

 49 54  0  0  1  0  0  0  0  0999 V2000
    2.4362   -2.8417   -3.7443 C   0  0  0  0  0  0  0  0  0  0  0  0
    2.6513   -2.4052   -2.3441 N   0  0  2  0  0  0  0  0  0  0  0  0
    3.3476   -1.1085   -2.2300 C   0  0  0  0  0  0  0  0  0  0  0  0
    3.9573   -1.1051   -0.8254 C   0  0  0  0  0  0  0  0  0  0  0  0
    4.1670   -2.5726   -0.4909 C   0  0  1  0  0  0  0  0  0  0  0  0
    5.5928   -2.8883    0.0279 C   0  0  2  0  0  0  0  0  0  0  0  0
    6.0264   -4.3645    0.0730 C   0  0  0  0  0  0  0  0  0  0  0  0
    6.4864   -4.9689    1.1884 C   0  0  0  0  0  0  0  0  0  0  0  0
    5.8904   -6.3018    1.6454 C   0  0  1  0  0  0  0  0  0  0  0  0
    6.8109   -7.0115    2.4496 O   0  0  0  0  0  0  0  0  0  0  0  0
    4.4774   -6.0958    2.3358 C   0  0  1  0  0  0  0  0  0  0  0  0
    4.4286   -6.1998    3.8922 C   0  0  0  0  0  0  0  0  0  0  0  0
    3.4619   -5.1687    4.5289 C   0  0  0  0  0  0  0  0  0  0  0  0
    3.8785   -3.7771    4.0781 C   0  0  0  0  0  0  0  0  0  0  0  0
    4.0269   -2.7410    5.0211 C   0  0  0  0  0  0  0  0  0  0  0  0
    4.6123   -1.5294    4.6294 C   0  0  0  0  0  0  0  0  0  0  0  0
    5.1372   -1.3674    3.3329 C   0  0  0  0  0  0  0  0  0  0  0  0
    5.8206   -0.2408    2.9955 O   0  0  0  0  0  0  0  0  0  0  0  0
    4.9684   -2.4305    2.4191 C   0  0  0  0  0  0  0  0  0  0  0  0
    4.2175   -3.6125    2.7137 C   0  0  0  0  0  0  0  0  0  0  0  0
    3.8592   -4.7736    1.8657 C   0  0  0  0  0  0  0  0  0  0  0  0
    3.2062   -4.6841    0.6877 C   0  0  0  0  0  0  0  0  0  0  0  0
    2.9767   -3.4319   -0.0635 C   0  0  2  0  0  0  0  0  0  0  0  0
    3.3992   -3.3826   -1.5128 C   0  0  1  0  0  0  0  0  0  0  0  0
    5.7264   -2.1939    1.2706 O   0  0  0  0  0  0  0  0  0  0  0  0
    3.3843   -2.9964   -4.2659 H   0  0  0  0  0  0  0  0  0  0  0  0
    1.8670   -2.0962   -4.2997 H   0  0  0  0  0  0  0  0  0  0  0  0
    1.8808   -3.7771   -3.7781 H   0  0  0  0  0  0  0  0  0  0  0  0
    4.1506   -1.0536   -2.9658 H   0  0  0  0  0  0  0  0  0  0  0  0
    2.6618   -0.2806   -2.4161 H   0  0  0  0  0  0  0  0  0  0  0  0
    4.8737   -0.5063   -0.7700 H   0  0  0  0  0  0  0  0  0  0  0  0
    3.2439   -0.6980   -0.1056 H   0  0  0  0  0  0  0  0  0  0  0  0
    6.2874   -2.4250   -0.6723 H   0  0  0  0  0  0  0  0  0  0  0  0
    5.5383   -4.9814   -0.6707 H   0  0  0  0  0  0  0  0  0  0  0  0
    6.8695   -4.3675    1.9983 H   0  0  0  0  0  0  0  0  0  0  0  0
    5.7421   -6.9083    0.7519 H   0  0  0  0  0  0  0  0  0  0  0  0
    6.5252   -7.9090    2.5411 H   0  0  0  0  0  0  0  0  0  0  0  0
    3.8298   -6.8845    1.9524 H   0  0  0  0  0  0  0  0  0  0  0  0
    4.1627   -7.2141    4.1963 H   0  0  0  0  0  0  0  0  0  0  0  0
    5.4162   -6.0092    4.3154 H   0  0  0  0  0  0  0  0  0  0  0  0
    2.4337   -5.3605    4.2174 H   0  0  0  0  0  0  0  0  0  0  0  0
    3.4877   -5.2466    5.6172 H   0  0  0  0  0  0  0  0  0  0  0  0
    3.7276   -2.8932    6.0491 H   0  0  0  0  0  0  0  0  0  0  0  0
    4.7305   -0.7370    5.3562 H   0  0  0  0  0  0  0  0  0  0  0  0
    6.3136   -0.3427    2.1924 H   0  0  0  0  0  0  0  0  0  0  0  0
    3.0133   -5.5922    0.1273 H   0  0  0  0  0  0  0  0  0  0  0  0
    2.0676   -2.9193    0.2352 H   0  0  0  0  0  0  0  0  0  0  0  0
    3.8748   -4.2214   -2.0138 H   0  0  0  0  0  0  0  0  0  0  0  0
    1.7456   -2.2561   -1.9002 H   0  0  0  0  0  0  0  0  0  0  0  0
  1  2  1  0
  1 26  1  0
  1 27  1  0
  1 28  1  0
  2 24  1  0
  2  3  1  0
  2 49  1  1
  3  4  1  0
  3 29  1  0
  3 30  1  0
  5  4  1  6
  4 31  1  0
  4 32  1  0
  5 23  1  0
  5 24  1  0
  5  6  1  0
  6 25  1  0
  6  7  1  0
  6 33  1  6
  7  8  2  3
  7 34  1  0
  8  9  1  0
  8 35  1  0
  9 10  1  0
  9 11  1  0
  9 36  1  6
 10 37  1  0
 11 21  1  0
 11 12  1  0
 11 38  1  6
 12 13  1  0
 12 39  1  0
 12 40  1  0
 13 14  1  0
 13 41  1  0
 13 42  1  0
 14 20  2  0
 14 15  1  0
 15 16  2  0
 15 43  1  0
 16 17  1  0
 16 44  1  0
 17 18  1  0
 17 19  2  0
 18 45  1  0
 19 20  1  0
 19 25  1  0
 20 21  1  0
 21 22  2  3
 22 23  1  0
 22 46  1  0
 23 24  1  0
 23 47  1  6
 24 48  1  6
M  CHG  1   2   1
M  END
>  <i_m_ct_stereo_status>  (176) 
1

>  <s_m_source_file>  (176) 
/var/tmp/pbs.5076255.sched01/tmpniar21pp/41tndis9zi.sdf

>  <i_m_source_file_index>  (176) 
36

>  <i_lp_mmshare_version>  (176) 
48012

>  <i_f3d_flags>  (176) 
0

>  <s_epik_input>  (176) 
W0NIMl0xW0NIMl1OKFtDSDNdKVtDQEBIXTJbQ0BIXTNcW0NIXT1DKFxbQ0BIXTRbQ0BIXShbT0hdKS9bQ0hdPVtDSF1cW0NASF01W0NAQF0xMjMpYzZjKFtDSDJdW0NIMl00KVtjSF1bY0hdYyhbT0hdKWM2TzU=

>  <s_epik_cmdline>  (176) 
J2VwaWtfcHl0aG9uJywgJy1waHQnLCAnMi4wJywgJy1waCcsICc3LjAnLCAnLXRuJywgJzgnLCAnLW1hJywgJzIwMCcsICctaW1hZScsICc8aW5maWxlLm1hZT4nLCAnLW9tYWUnLCAnPG91dGZpbGUubWFlPic=

>  <r_epik_Ionization_Penalty>  (176) 
0.00990519

>  <r_epik_Ionization_Penalty_Charging>  (176) 
0.00905413

>  <r_epik_Ionization_Penalty_Neutral>  (176) 
0.000851055

>  <r_epik_State_Penalty>  (176) 
0.006856

>  <r_epik_Charging_Adjusted_Penalty>  (176) 
0.0159101

>  <i_epik_Tot_Q>  (176) 
1

>  <i_epik_Tot_abs_Q>  (176) 
1

>  <s_lp_Force_Field>  (176) 
OPLS3e

>  <r_lp_Energy>  (176) 
90.7075

>  <b_lp_Chiralities_Consistent>  (176) 
1

>  <s_lp_Variant>  (176) 
55:0-2

>  <s_i_glide_gridfile>  (176) 
pfpi4k_grid

>  <i_i_glide_lignum>  (176) 
36

>  <i_i_glide_rotatable_bonds>  (176) 
2

>  <r_i_docking_score>  (176) 
-3.95201

>  <r_i_glide_ligand_efficiency>  (176) 
-0.15808

>  <r_i_glide_ligand_efficiency_sa>  (176) 
-0.462229

>  <r_i_glide_ligand_efficiency_ln>  (176) 
-0.936744

>  <r_i_glide_gscore>  (176) 
-3.95201

>  <r_i_glide_lipo>  (176) 
-0.74435

>  <r_i_glide_hbond>  (176) 
-0.177382

>  <r_i_glide_metal>  (176) 
-0

>  <r_i_glide_rewards>  (176) 
-1.10168

>  <r_i_glide_evdw>  (176) 
-19.7799

>  <r_i_glide_ecoul>  (176) 
-5.86025

>  <r_i_glide_erotb>  (176) 
0

>  <r_i_glide_esite>  (176) 
-0.0605582

>  <r_i_glide_emodel>  (176) 
-32.9818

>  <r_i_glide_energy>  (176) 
-25.6402

>  <r_i_glide_einternal>  (176) 
0.684233

>  <r_i_glide_intrahb_reward>  (176) 
-0

>  <i_i_glide_confnum>  (176) 
2

>  <i_i_glide_posenum>  (176) 
1

>  <r_i_glide_eff_state_penalty>  (176) 
0

>  <ligand_id>  (176) 
55

>  <original_smiles>  (176) 
CN1CCC23C4C=CC(O)C5CCc6ccc(O)c(c6C5=CC2C13)O4

>  <smiles>  (176) 
[H]Oc1c([H])c([H])c2c3c1OC1([H])C([H])=C([H])C([H])(O[H])C([H])(C3=C([H])C3([H])C14C([H])([H])C([H])([H])[N+]([H])(C([H])([H])[H])C34[H])C([H])([H])C2([H])[H]

$$$$
55:1:2
     RDKit          3D

 49 54  0  0  1  0  0  0  0  0999 V2000
    2.9543   -3.4372   -4.1315 C   0  0  0  0  0  0  0  0  0  0  0  0
    3.0287   -3.1414   -2.6908 N   0  0  2  0  0  0  0  0  0  0  0  0
    2.9209   -1.7127   -2.3767 C   0  0  0  0  0  0  0  0  0  0  0  0
    3.5176   -1.5469   -0.9799 C   0  0  0  0  0  0  0  0  0  0  0  0
    4.5203   -2.6743   -0.8780 C   0  0  1  0  0  0  0  0  0  0  0  0
    5.9119   -2.1984   -0.4162 C   0  0  2  0  0  0  0  0  0  0  0  0
    7.0910   -3.1663   -0.6164 C   0  0  0  0  0  0  0  0  0  0  0  0
    7.8959   -3.5465    0.3992 C   0  0  0  0  0  0  0  0  0  0  0  0
    8.1786   -5.0301    0.6721 C   0  0  1  0  0  0  0  0  0  0  0  0
    9.3962   -5.1811    1.3710 O   0  0  0  0  0  0  0  0  0  0  0  0
    6.9507   -5.7408    1.3786 C   0  0  1  0  0  0  0  0  0  0  0  0
    7.0943   -6.0735    2.8977 C   0  0  0  0  0  0  0  0  0  0  0  0
    5.7796   -5.8334    3.6836 C   0  0  0  0  0  0  0  0  0  0  0  0
    5.3186   -4.3997    3.4505 C   0  0  0  0  0  0  0  0  0  0  0  0
    4.9544   -3.5871    4.5417 C   0  0  0  0  0  0  0  0  0  0  0  0
    4.7479   -2.2122    4.3445 C   0  0  0  0  0  0  0  0  0  0  0  0
    4.9817   -1.6129    3.0896 C   0  0  0  0  0  0  0  0  0  0  0  0
    4.8642   -0.2640    2.9218 O   0  0  0  0  0  0  0  0  0  0  0  0
    5.3450   -2.4697    2.0242 C   0  0  0  0  0  0  0  0  0  0  0  0
    5.3998   -3.8963    2.1298 C   0  0  0  0  0  0  0  0  0  0  0  0
    5.6717   -4.9379    1.1122 C   0  0  0  0  0  0  0  0  0  0  0  0
    4.9818   -5.0828   -0.0373 C   0  0  0  0  0  0  0  0  0  0  0  0
    4.0387   -4.0968   -0.5925 C   0  0  2  0  0  0  0  0  0  0  0  0
    4.2441   -3.6368   -2.0131 C   0  0  1  0  0  0  0  0  0  0  0  0
    5.7474   -1.7129    0.9223 O   0  0  0  0  0  0  0  0  0  0  0  0
    3.7731   -2.9691   -4.6731 H   0  0  0  0  0  0  0  0  0  0  0  0
    2.0155   -3.0787   -4.5464 H   0  0  0  0  0  0  0  0  0  0  0  0
    2.9947   -4.5061   -4.3097 H   0  0  0  0  0  0  0  0  0  0  0  0
    3.4771   -1.1085   -3.0955 H   0  0  0  0  0  0  0  0  0  0  0  0
    1.8803   -1.4541   -2.4536 H   0  0  0  0  0  0  0  0  0  0  0  0
    3.9539   -0.5543   -0.8296 H   0  0  0  0  0  0  0  0  0  0  0  0
    2.7622   -1.7104   -0.2097 H   0  0  0  0  0  0  0  0  0  0  0  0
    6.1645   -1.3377   -1.0329 H   0  0  0  0  0  0  0  0  0  0  0  0
    6.9651   -3.8526   -1.4466 H   0  0  0  0  0  0  0  0  0  0  0  0
    7.9368   -2.9387    1.2792 H   0  0  0  0  0  0  0  0  0  0  0  0
    8.3423   -5.5083   -0.2914 H   0  0  0  0  0  0  0  0  0  0  0  0
    9.2929   -4.8847    2.2662 H   0  0  0  0  0  0  0  0  0  0  0  0
    6.8212   -6.6956    0.8738 H   0  0  0  0  0  0  0  0  0  0  0  0
    7.4511   -7.0949    3.0345 H   0  0  0  0  0  0  0  0  0  0  0  0
    7.8643   -5.4621    3.3651 H   0  0  0  0  0  0  0  0  0  0  0  0
    5.0042   -6.5242    3.3497 H   0  0  0  0  0  0  0  0  0  0  0  0
    5.9346   -6.0201    4.7469 H   0  0  0  0  0  0  0  0  0  0  0  0
    4.8680   -4.0106    5.5340 H   0  0  0  0  0  0  0  0  0  0  0  0
    4.4618   -1.5931    5.1826 H   0  0  0  0  0  0  0  0  0  0  0  0
    4.8578   -0.0363    2.0045 H   0  0  0  0  0  0  0  0  0  0  0  0
    5.2632   -5.8684   -0.7247 H   0  0  0  0  0  0  0  0  0  0  0  0
    3.0237   -4.2296   -0.2289 H   0  0  0  0  0  0  0  0  0  0  0  0
    5.0415   -4.0155   -2.6431 H   0  0  0  0  0  0  0  0  0  0  0  0
    2.2401   -3.6130   -2.2629 H   0  0  0  0  0  0  0  0  0  0  0  0
  1  2  1  0
  1 26  1  0
  1 27  1  0
  1 28  1  0
  2 24  1  0
  2  3  1  0
  2 49  1  1
  3  4  1  0
  3 29  1  0
  3 30  1  0
  5  4  1  6
  4 31  1  0
  4 32  1  0
  5 23  1  0
  5 24  1  0
  5  6  1  0
  6 25  1  0
  6  7  1  0
  6 33  1  6
  7  8  2  3
  7 34  1  0
  8  9  1  0
  8 35  1  0
  9 10  1  0
  9 11  1  0
  9 36  1  6
 10 37  1  0
 11 21  1  0
 11 12  1  0
 11 38  1  6
 12 13  1  0
 12 39  1  0
 12 40  1  0
 13 14  1  0
 13 41  1  0
 13 42  1  0
 14 20  2  0
 14 15  1  0
 15 16  2  0
 15 43  1  0
 16 17  1  0
 16 44  1  0
 17 18  1  0
 17 19  2  0
 18 45  1  0
 19 20  1  0
 19 25  1  0
 20 21  1  0
 21 22  2  3
 22 23  1  0
 22 46  1  0
 23 24  1  0
 23 47  1  6
 24 48  1  6
M  CHG  1   2   1
M  END
>  <i_m_ct_stereo_status>  (177) 
1

>  <s_m_source_file>  (177) 
/var/tmp/pbs.5076255.sched01/tmpniar21pp/41tndis9zi.sdf

>  <i_m_source_file_index>  (177) 
36

>  <i_lp_mmshare_version>  (177) 
48012

>  <i_f3d_flags>  (177) 
0

>  <s_epik_input>  (177) 
W0NIMl0xW0NIMl1OKFtDSDNdKVtDQEBIXTJbQ0BIXTNcW0NIXT1DKFxbQ0BIXTRbQ0BIXShbT0hdKS9bQ0hdPVtDSF1cW0NASF01W0NAQF0xMjMpYzZjKFtDSDJdW0NIMl00KVtjSF1bY0hdYyhbT0hdKWM2TzU=

>  <s_epik_cmdline>  (177) 
J2VwaWtfcHl0aG9uJywgJy1waHQnLCAnMi4wJywgJy1waCcsICc3LjAnLCAnLXRuJywgJzgnLCAnLW1hJywgJzIwMCcsICctaW1hZScsICc8aW5maWxlLm1hZT4nLCAnLW9tYWUnLCAnPG91dGZpbGUubWFlPic=

>  <r_epik_Ionization_Penalty>  (177) 
0.00990519

>  <r_epik_Ionization_Penalty_Charging>  (177) 
0.00905413

>  <r_epik_Ionization_Penalty_Neutral>  (177) 
0.000851055

>  <r_epik_State_Penalty>  (177) 
0.006856

>  <r_epik_Charging_Adjusted_Penalty>  (177) 
0.0159101

>  <i_epik_Tot_Q>  (177) 
1

>  <i_epik_Tot_abs_Q>  (177) 
1

>  <s_lp_Force_Field>  (177) 
OPLS3e

>  <r_lp_Energy>  (177) 
90.7075

>  <b_lp_Chiralities_Consistent>  (177) 
1

>  <s_lp_Variant>  (177) 
55:0-2

>  <s_i_glide_gridfile>  (177) 
pfpi4k_grid

>  <i_i_glide_lignum>  (177) 
36

>  <i_i_glide_rotatable_bonds>  (177) 
2

>  <r_i_docking_score>  (177) 
-3.76571

>  <r_i_glide_ligand_efficiency>  (177) 
-0.150628

>  <r_i_glide_ligand_efficiency_sa>  (177) 
-0.44044

>  <r_i_glide_ligand_efficiency_ln>  (177) 
-0.892585

>  <r_i_glide_gscore>  (177) 
-3.76571

>  <r_i_glide_lipo>  (177) 
-0.885671

>  <r_i_glide_hbond>  (177) 
-0.0349093

>  <r_i_glide_metal>  (177) 
-0

>  <r_i_glide_rewards>  (177) 
-1.10168

>  <r_i_glide_evdw>  (177) 
-18.6052

>  <r_i_glide_ecoul>  (177) 
-5.24514

>  <r_i_glide_erotb>  (177) 
0

>  <r_i_glide_esite>  (177) 
-0.0264137

>  <r_i_glide_emodel>  (177) 
-30.9633

>  <r_i_glide_energy>  (177) 
-23.8503

>  <r_i_glide_einternal>  (177) 
0.262742

>  <r_i_glide_intrahb_reward>  (177) 
-0

>  <i_i_glide_confnum>  (177) 
1

>  <i_i_glide_posenum>  (177) 
14

>  <r_i_glide_eff_state_penalty>  (177) 
0

>  <ligand_id>  (177) 
55

>  <original_smiles>  (177) 
CN1CCC23C4C=CC(O)C5CCc6ccc(O)c(c6C5=CC2C13)O4

>  <smiles>  (177) 
[H]Oc1c([H])c([H])c2c3c1OC1([H])C([H])=C([H])C([H])(O[H])C([H])(C3=C([H])C3([H])C14C([H])([H])C([H])([H])[N+]([H])(C([H])([H])[H])C34[H])C([H])([H])C2([H])[H]

$$$$
55:2:0
     RDKit          3D

 49 54  0  0  1  0  0  0  0  0999 V2000
    4.6814   -3.1504   -3.6263 C   0  0  0  0  0  0  0  0  0  0  0  0
    4.1309   -3.8267   -2.4367 N   0  0  2  0  0  0  0  0  0  0  0  0
    2.9155   -3.1783   -1.8937 C   0  0  0  0  0  0  0  0  0  0  0  0
    2.8199   -3.6805   -0.4554 C   0  0  0  0  0  0  0  0  0  0  0  0
    4.2625   -3.9772   -0.0770 C   0  0  1  0  0  0  0  0  0  0  0  0
    4.7582   -3.2551    1.2319 C   0  0  2  0  0  0  0  0  0  0  0  0
    6.1242   -2.5372    1.2742 C   0  0  0  0  0  0  0  0  0  0  0  0
    7.3793   -2.8189    0.8414 C   0  0  0  0  0  0  0  0  0  0  0  0
    8.0212   -4.0062    0.1229 C   0  0  1  0  0  0  0  0  0  0  0  0
    9.3852   -3.7306   -0.1483 O   0  0  0  0  0  0  0  0  0  0  0  0
    7.8910   -5.3875    0.8145 C   0  0  1  0  0  0  0  0  0  0  0  0
    8.9870   -5.6923    1.8736 C   0  0  0  0  0  0  0  0  0  0  0  0
    8.5130   -6.5483    3.0730 C   0  0  0  0  0  0  0  0  0  0  0  0
    7.2908   -5.8928    3.6838 C   0  0  0  0  0  0  0  0  0  0  0  0
    7.1881   -5.6545    5.0703 C   0  0  0  0  0  0  0  0  0  0  0  0
    6.1223   -4.8784    5.5575 C   0  0  0  0  0  0  0  0  0  0  0  0
    5.1670   -4.2988    4.6906 C   0  0  0  0  0  0  0  0  0  0  0  0
    4.1730   -3.5050    5.1762 O   0  0  0  0  0  0  0  0  0  0  0  0
    5.3243   -4.5534    3.3075 C   0  0  0  0  0  0  0  0  0  0  0  0
    6.3279   -5.4108    2.7831 C   0  0  0  0  0  0  0  0  0  0  0  0
    6.5071   -5.6713    1.3643 C   0  0  0  0  0  0  0  0  0  0  0  0
    5.3697   -5.8869    0.6969 C   0  0  0  0  0  0  0  0  0  0  0  0
    4.8885   -5.3013   -0.5499 C   0  0  2  0  0  0  0  0  0  0  0  0
    5.0802   -3.9918   -1.3172 C   0  0  1  0  0  0  0  0  0  0  0  0
    4.4040   -3.8885    2.4929 O   0  0  0  0  0  0  0  0  0  0  0  0
    5.0041   -2.1348   -3.3927 H   0  0  0  0  0  0  0  0  0  0  0  0
    3.9269   -3.0909   -4.4082 H   0  0  0  0  0  0  0  0  0  0  0  0
    5.5317   -3.7104   -4.0082 H   0  0  0  0  0  0  0  0  0  0  0  0
    3.0421   -2.0933   -1.8857 H   0  0  0  0  0  0  0  0  0  0  0  0
    2.0296   -3.4068   -2.4885 H   0  0  0  0  0  0  0  0  0  0  0  0
    2.3206   -2.9625    0.1992 H   0  0  0  0  0  0  0  0  0  0  0  0
    2.2588   -4.6157   -0.4290 H   0  0  0  0  0  0  0  0  0  0  0  0
    4.1225   -2.3672    1.2596 H   0  0  0  0  0  0  0  0  0  0  0  0
    6.0516   -1.5974    1.7995 H   0  0  0  0  0  0  0  0  0  0  0  0
    8.0954   -2.0456    1.0517 H   0  0  0  0  0  0  0  0  0  0  0  0
    7.6284   -4.0830   -0.8735 H   0  0  0  0  0  0  0  0  0  0  0  0
    9.4728   -3.1245   -0.8783 H   0  0  0  0  0  0  0  0  0  0  0  0
    8.0228   -6.1289    0.0279 H   0  0  0  0  0  0  0  0  0  0  0  0
    9.8099   -6.1845    1.3768 H   0  0  0  0  0  0  0  0  0  0  0  0
    9.3886   -4.7594    2.2637 H   0  0  0  0  0  0  0  0  0  0  0  0
    8.2430   -7.5546    2.7488 H   0  0  0  0  0  0  0  0  0  0  0  0
    9.3148   -6.6529    3.8059 H   0  0  0  0  0  0  0  0  0  0  0  0
    7.9514   -6.0137    5.7445 H   0  0  0  0  0  0  0  0  0  0  0  0
    6.0607   -4.6919    6.6216 H   0  0  0  0  0  0  0  0  0  0  0  0
    4.1885   -3.4378    6.1185 H   0  0  0  0  0  0  0  0  0  0  0  0
    4.5192   -6.1355    1.3154 H   0  0  0  0  0  0  0  0  0  0  0  0
    4.2462   -6.0427   -1.0128 H   0  0  0  0  0  0  0  0  0  0  0  0
    5.8989   -3.2925   -1.3396 H   0  0  0  0  0  0  0  0  0  0  0  0
    3.8280   -4.7743   -2.6928 H   0  0  0  0  0  0  0  0  0  0  0  0
  1  2  1  0
  1 26  1  0
  1 27  1  0
  1 28  1  0
  2 24  1  0
  2  3  1  0
  2 49  1  6
  3  4  1  0
  3 29  1  0
  3 30  1  0
  5  4  1  6
  4 31  1  0
  4 32  1  0
  5 23  1  0
  5 24  1  0
  5  6  1  0
  6 25  1  0
  6  7  1  0
  6 33  1  1
  7  8  2  3
  7 34  1  0
  8  9  1  0
  8 35  1  0
  9 10  1  0
  9 11  1  0
  9 36  1  6
 10 37  1  0
 11 21  1  0
 11 12  1  0
 11 38  1  6
 12 13  1  0
 12 39  1  0
 12 40  1  0
 13 14  1  0
 13 41  1  0
 13 42  1  0
 14 20  2  0
 14 15  1  0
 15 16  2  0
 15 43  1  0
 16 17  1  0
 16 44  1  0
 17 18  1  0
 17 19  2  0
 18 45  1  0
 19 20  1  0
 19 25  1  0
 20 21  1  0
 21 22  2  3
 22 23  1  0
 22 46  1  0
 23 24  1  0
 23 47  1  6
 24 48  1  1
M  CHG  1   2   1
M  END
>  <i_m_ct_stereo_status>  (178) 
1

>  <s_m_source_file>  (178) 
/var/tmp/pbs.5076255.sched01/tmpniar21pp/41tndis9zi.sdf

>  <i_m_source_file_index>  (178) 
37

>  <i_lp_mmshare_version>  (178) 
48012

>  <i_f3d_flags>  (178) 
0

>  <s_epik_input>  (178) 
W0NIMl0xW0NIMl1OKFtDSDNdKVtDQEBIXTJbQ0BIXTNcW0NIXT1DKFxbQ0BIXTRbQ0BIXShbT0hdKS9bQ0hdPVtDSF1cW0NASF01W0NAQF0xMjMpYzZjKFtDSDJdW0NIMl00KVtjSF1bY0hdYyhbT0hdKWM2TzU=

>  <s_epik_cmdline>  (178) 
J2VwaWtfcHl0aG9uJywgJy1waHQnLCAnMi4wJywgJy1waCcsICc3LjAnLCAnLXRuJywgJzgnLCAnLW1hJywgJzIwMCcsICctaW1hZScsICc8aW5maWxlLm1hZT4nLCAnLW9tYWUnLCAnPG91dGZpbGUubWFlPic=

>  <r_epik_Ionization_Penalty>  (178) 
0.00990519

>  <r_epik_Ionization_Penalty_Charging>  (178) 
0.00905413

>  <r_epik_Ionization_Penalty_Neutral>  (178) 
0.000851055

>  <r_epik_State_Penalty>  (178) 
0.006856

>  <r_epik_Charging_Adjusted_Penalty>  (178) 
0.0159101

>  <i_epik_Tot_Q>  (178) 
1

>  <i_epik_Tot_abs_Q>  (178) 
1

>  <s_lp_Force_Field>  (178) 
OPLS3e

>  <r_lp_Energy>  (178) 
104.027

>  <b_lp_Chiralities_Consistent>  (178) 
1

>  <s_lp_Variant>  (178) 
55:0-3

>  <s_i_glide_gridfile>  (178) 
pfpi4k_grid

>  <i_i_glide_lignum>  (178) 
37

>  <i_i_glide_rotatable_bonds>  (178) 
2

>  <r_i_docking_score>  (178) 
-4.56868

>  <r_i_glide_ligand_efficiency>  (178) 
-0.182747

>  <r_i_glide_ligand_efficiency_sa>  (178) 
-0.534357

>  <r_i_glide_ligand_efficiency_ln>  (178) 
-1.08292

>  <r_i_glide_gscore>  (178) 
-4.56868

>  <r_i_glide_lipo>  (178) 
-1.02373

>  <r_i_glide_hbond>  (178) 
-0.233702

>  <r_i_glide_metal>  (178) 
-0

>  <r_i_glide_rewards>  (178) 
-1.10168

>  <r_i_glide_evdw>  (178) 
-11.9028

>  <r_i_glide_ecoul>  (178) 
-10.4449

>  <r_i_glide_erotb>  (178) 
0

>  <r_i_glide_esite>  (178) 
-0.0476882

>  <r_i_glide_emodel>  (178) 
-28.079

>  <r_i_glide_energy>  (178) 
-22.3478

>  <r_i_glide_einternal>  (178) 
0.559724

>  <r_i_glide_intrahb_reward>  (178) 
-0

>  <i_i_glide_confnum>  (178) 
1

>  <i_i_glide_posenum>  (178) 
35

>  <r_i_glide_eff_state_penalty>  (178) 
0

>  <ligand_id>  (178) 
55

>  <original_smiles>  (178) 
CN1CCC23C4C=CC(O)C5CCc6ccc(O)c(c6C5=CC2C13)O4

>  <smiles>  (178) 
[H]Oc1c([H])c([H])c2c3c1OC1([H])C([H])=C([H])C([H])(O[H])C([H])(C3=C([H])C3([H])C14C([H])([H])C([H])([H])[N+]([H])(C([H])([H])[H])C34[H])C([H])([H])C2([H])[H]

$$$$
55:2:1
     RDKit          3D

 49 54  0  0  1  0  0  0  0  0999 V2000
    3.9285   -0.6378   -3.7087 C   0  0  0  0  0  0  0  0  0  0  0  0
    3.6299   -1.9905   -3.2109 N   0  0  2  0  0  0  0  0  0  0  0  0
    2.2261   -2.1859   -2.8642 C   0  0  0  0  0  0  0  0  0  0  0  0
    2.1738   -3.3385   -1.8950 C   0  0  0  0  0  0  0  0  0  0  0  0
    3.5344   -3.2873   -1.2406 C   0  0  1  0  0  0  0  0  0  0  0  0
    3.5023   -3.2708    0.3426 C   0  0  2  0  0  0  0  0  0  0  0  0
    4.4061   -2.3070    1.1523 C   0  0  0  0  0  0  0  0  0  0  0  0
    5.7063   -1.9147    1.1038 C   0  0  0  0  0  0  0  0  0  0  0  0
    6.8715   -2.2393    0.1581 C   0  0  1  0  0  0  0  0  0  0  0  0
    7.9959   -1.4345    0.4466 O   0  0  0  0  0  0  0  0  0  0  0  0
    7.2949   -3.7156    0.0504 C   0  0  1  0  0  0  0  0  0  0  0  0
    8.3179   -4.2215    1.1025 C   0  0  0  0  0  0  0  0  0  0  0  0
    8.1162   -5.6523    1.6400 C   0  0  0  0  0  0  0  0  0  0  0  0
    6.6663   -5.8209    2.0696 C   0  0  0  0  0  0  0  0  0  0  0  0
    6.3097   -6.4062    3.2976 C   0  0  0  0  0  0  0  0  0  0  0  0
    4.9561   -6.4223    3.6960 C   0  0  0  0  0  0  0  0  0  0  0  0
    3.9428   -5.8185    2.9139 C   0  0  0  0  0  0  0  0  0  0  0  0
    2.6407   -5.7965    3.3332 O   0  0  0  0  0  0  0  0  0  0  0  0
    4.3529   -5.2178    1.7109 C   0  0  0  0  0  0  0  0  0  0  0  0
    5.6941   -5.2601    1.2291 C   0  0  0  0  0  0  0  0  0  0  0  0
    6.1073   -4.6361   -0.0077 C   0  0  0  0  0  0  0  0  0  0  0  0
    5.2358   -4.7666   -1.0092 C   0  0  0  0  0  0  0  0  0  0  0  0
    4.7378   -3.8503   -2.0054 C   0  0  2  0  0  0  0  0  0  0  0  0
    4.4094   -2.3783   -2.0306 C   0  0  1  0  0  0  0  0  0  0  0  0
    3.3287   -4.5561    1.0155 O   0  0  0  0  0  0  0  0  0  0  0  0
    3.7619    0.1461   -2.9603 H   0  0  0  0  0  0  0  0  0  0  0  0
    3.3328   -0.3875   -4.5815 H   0  0  0  0  0  0  0  0  0  0  0  0
    4.9677   -0.6377   -4.0109 H   0  0  0  0  0  0  0  0  0  0  0  0
    1.9840   -1.2786   -2.3263 H   0  0  0  0  0  0  0  0  0  0  0  0
    1.5940   -2.3087   -3.7450 H   0  0  0  0  0  0  0  0  0  0  0  0
    1.3407   -3.2756   -1.1949 H   0  0  0  0  0  0  0  0  0  0  0  0
    2.0602   -4.2555   -2.4953 H   0  0  0  0  0  0  0  0  0  0  0  0
    2.5399   -2.8056    0.5474 H   0  0  0  0  0  0  0  0  0  0  0  0
    3.8554   -1.8922    1.9807 H   0  0  0  0  0  0  0  0  0  0  0  0
    5.9864   -1.2366    1.8940 H   0  0  0  0  0  0  0  0  0  0  0  0
    6.6406   -1.9033   -0.8378 H   0  0  0  0  0  0  0  0  0  0  0  0
    7.7087   -0.5740    0.7315 H   0  0  0  0  0  0  0  0  0  0  0  0
    7.8024   -3.8126   -0.9030 H   0  0  0  0  0  0  0  0  0  0  0  0
    9.3540   -4.0213    0.8152 H   0  0  0  0  0  0  0  0  0  0  0  0
    8.1091   -3.6343    1.9669 H   0  0  0  0  0  0  0  0  0  0  0  0
    8.3462   -6.3730    0.8609 H   0  0  0  0  0  0  0  0  0  0  0  0
    8.7829   -5.8488    2.4822 H   0  0  0  0  0  0  0  0  0  0  0  0
    7.0711   -6.8210    3.9458 H   0  0  0  0  0  0  0  0  0  0  0  0
    4.7024   -6.8839    4.6358 H   0  0  0  0  0  0  0  0  0  0  0  0
    2.5335   -6.2428    4.1603 H   0  0  0  0  0  0  0  0  0  0  0  0
    4.5531   -5.5877   -0.8949 H   0  0  0  0  0  0  0  0  0  0  0  0
    4.5669   -4.4072   -2.9231 H   0  0  0  0  0  0  0  0  0  0  0  0
    4.8268   -1.5623   -1.4632 H   0  0  0  0  0  0  0  0  0  0  0  0
    3.8372   -2.6581   -3.9383 H   0  0  0  0  0  0  0  0  0  0  0  0
  1  2  1  0
  1 26  1  0
  1 27  1  0
  1 28  1  0
  2 24  1  0
  2  3  1  0
  2 49  1  6
  3  4  1  0
  3 29  1  0
  3 30  1  0
  5  4  1  6
  4 31  1  0
  4 32  1  0
  5 23  1  0
  5 24  1  0
  5  6  1  0
  6 25  1  0
  6  7  1  0
  6 33  1  6
  7  8  2  3
  7 34  1  0
  8  9  1  0
  8 35  1  0
  9 10  1  0
  9 11  1  0
  9 36  1  6
 10 37  1  0
 11 21  1  0
 11 12  1  0
 11 38  1  6
 12 13  1  0
 12 39  1  0
 12 40  1  0
 13 14  1  0
 13 41  1  0
 13 42  1  0
 14 20  2  0
 14 15  1  0
 15 16  2  0
 15 43  1  0
 16 17  1  0
 16 44  1  0
 17 18  1  0
 17 19  2  0
 18 45  1  0
 19 20  1  0
 19 25  1  0
 20 21  1  0
 21 22  2  3
 22 23  1  0
 22 46  1  0
 23 24  1  0
 23 47  1  6
 24 48  1  1
M  CHG  1   2   1
M  END
>  <i_m_ct_stereo_status>  (179) 
1

>  <s_m_source_file>  (179) 
/var/tmp/pbs.5076255.sched01/tmpniar21pp/41tndis9zi.sdf

>  <i_m_source_file_index>  (179) 
37

>  <i_lp_mmshare_version>  (179) 
48012

>  <i_f3d_flags>  (179) 
0

>  <s_epik_input>  (179) 
W0NIMl0xW0NIMl1OKFtDSDNdKVtDQEBIXTJbQ0BIXTNcW0NIXT1DKFxbQ0BIXTRbQ0BIXShbT0hdKS9bQ0hdPVtDSF1cW0NASF01W0NAQF0xMjMpYzZjKFtDSDJdW0NIMl00KVtjSF1bY0hdYyhbT0hdKWM2TzU=

>  <s_epik_cmdline>  (179) 
J2VwaWtfcHl0aG9uJywgJy1waHQnLCAnMi4wJywgJy1waCcsICc3LjAnLCAnLXRuJywgJzgnLCAnLW1hJywgJzIwMCcsICctaW1hZScsICc8aW5maWxlLm1hZT4nLCAnLW9tYWUnLCAnPG91dGZpbGUubWFlPic=

>  <r_epik_Ionization_Penalty>  (179) 
0.00990519

>  <r_epik_Ionization_Penalty_Charging>  (179) 
0.00905413

>  <r_epik_Ionization_Penalty_Neutral>  (179) 
0.000851055

>  <r_epik_State_Penalty>  (179) 
0.006856

>  <r_epik_Charging_Adjusted_Penalty>  (179) 
0.0159101

>  <i_epik_Tot_Q>  (179) 
1

>  <i_epik_Tot_abs_Q>  (179) 
1

>  <s_lp_Force_Field>  (179) 
OPLS3e

>  <r_lp_Energy>  (179) 
104.027

>  <b_lp_Chiralities_Consistent>  (179) 
1

>  <s_lp_Variant>  (179) 
55:0-3

>  <s_i_glide_gridfile>  (179) 
pfpi4k_grid

>  <i_i_glide_lignum>  (179) 
37

>  <i_i_glide_rotatable_bonds>  (179) 
2

>  <r_i_docking_score>  (179) 
-3.7782

>  <r_i_glide_ligand_efficiency>  (179) 
-0.151128

>  <r_i_glide_ligand_efficiency_sa>  (179) 
-0.441901

>  <r_i_glide_ligand_efficiency_ln>  (179) 
-0.895547

>  <r_i_glide_gscore>  (179) 
-3.7782

>  <r_i_glide_lipo>  (179) 
-1.09682

>  <r_i_glide_hbond>  (179) 
-0.272583

>  <r_i_glide_metal>  (179) 
-0

>  <r_i_glide_rewards>  (179) 
-1.10168

>  <r_i_glide_evdw>  (179) 
-11.8061

>  <r_i_glide_ecoul>  (179) 
-4.77879

>  <r_i_glide_erotb>  (179) 
0

>  <r_i_glide_esite>  (179) 
0

>  <r_i_glide_emodel>  (179) 
-21.0345

>  <r_i_glide_energy>  (179) 
-16.5849

>  <r_i_glide_einternal>  (179) 
0.473672

>  <r_i_glide_intrahb_reward>  (179) 
-0

>  <i_i_glide_confnum>  (179) 
1

>  <i_i_glide_posenum>  (179) 
34

>  <r_i_glide_eff_state_penalty>  (179) 
0

>  <ligand_id>  (179) 
55

>  <original_smiles>  (179) 
CN1CCC23C4C=CC(O)C5CCc6ccc(O)c(c6C5=CC2C13)O4

>  <smiles>  (179) 
[H]Oc1c([H])c([H])c2c3c1OC1([H])C([H])=C([H])C([H])(O[H])C([H])(C3=C([H])C3([H])C14C([H])([H])C([H])([H])[N+]([H])(C([H])([H])[H])C34[H])C([H])([H])C2([H])[H]

$$$$
55:2:2
     RDKit          3D

 49 54  0  0  1  0  0  0  0  0999 V2000
    3.9861   -0.9973   -3.9286 C   0  0  0  0  0  0  0  0  0  0  0  0
    3.6229   -2.2522   -3.2292 N   0  0  2  0  0  0  0  0  0  0  0  0
    2.2492   -2.2550   -2.7489 C   0  0  0  0  0  0  0  0  0  0  0  0
    2.1864   -3.2809   -1.6295 C   0  0  0  0  0  0  0  0  0  0  0  0
    3.5898   -3.2669   -1.0868 C   0  0  1  0  0  0  0  0  0  0  0  0
    3.6733   -3.0260    0.4707 C   0  0  2  0  0  0  0  0  0  0  0  0
    4.7156   -2.0610    1.0654 C   0  0  0  0  0  0  0  0  0  0  0  0
    6.0381   -1.8190    0.8752 C   0  0  0  0  0  0  0  0  0  0  0  0
    7.0884   -2.3864   -0.0729 C   0  0  1  0  0  0  0  0  0  0  0  0
    8.2964   -1.6704    0.0796 O   0  0  0  0  0  0  0  0  0  0  0  0
    7.3574   -3.8952   -0.0252 C   0  0  1  0  0  0  0  0  0  0  0  0
    8.4221   -4.3489    0.9927 C   0  0  0  0  0  0  0  0  0  0  0  0
    8.1297   -5.6639    1.7534 C   0  0  0  0  0  0  0  0  0  0  0  0
    6.7118   -5.6305    2.2996 C   0  0  0  0  0  0  0  0  0  0  0  0
    6.4137   -6.0033    3.6245 C   0  0  0  0  0  0  0  0  0  0  0  0
    5.1074   -5.8185    4.1213 C   0  0  0  0  0  0  0  0  0  0  0  0
    4.0951   -5.2212    3.3443 C   0  0  0  0  0  0  0  0  0  0  0  0
    2.8431   -4.9965    3.8487 O   0  0  0  0  0  0  0  0  0  0  0  0
    4.4475   -4.8424    2.0276 C   0  0  0  0  0  0  0  0  0  0  0  0
    5.7256   -5.1035    1.4664 C   0  0  0  0  0  0  0  0  0  0  0  0
    6.0901   -4.7124    0.1156 C   0  0  0  0  0  0  0  0  0  0  0  0
    5.1370   -4.8924   -0.7790 C   0  0  0  0  0  0  0  0  0  0  0  0
    4.6723   -4.0305   -1.8493 C   0  0  2  0  0  0  0  0  0  0  0  0
    4.4612   -2.5438   -2.0483 C   0  0  1  0  0  0  0  0  0  0  0  0
    3.4331   -4.1785    1.3318 O   0  0  0  0  0  0  0  0  0  0  0  0
    3.9416   -0.1143   -3.2878 H   0  0  0  0  0  0  0  0  0  0  0  0
    3.3325   -0.8121   -4.7699 H   0  0  0  0  0  0  0  0  0  0  0  0
    5.0073   -1.0680   -4.3169 H   0  0  0  0  0  0  0  0  0  0  0  0
    2.1842   -1.2609   -2.3266 H   0  0  0  0  0  0  0  0  0  0  0  0
    1.5175   -2.4234   -3.5436 H   0  0  0  0  0  0  0  0  0  0  0  0
    1.4319   -3.0470   -0.8660 H   0  0  0  0  0  0  0  0  0  0  0  0
    1.9320   -4.2553   -2.0417 H   0  0  0  0  0  0  0  0  0  0  0  0
    2.7770   -2.4365    0.6687 H   0  0  0  0  0  0  0  0  0  0  0  0
    4.2821   -1.4704    1.8515 H   0  0  0  0  0  0  0  0  0  0  0  0
    6.4492   -1.0612    1.5213 H   0  0  0  0  0  0  0  0  0  0  0  0
    6.8296   -2.1459   -1.0878 H   0  0  0  0  0  0  0  0  0  0  0  0
    8.8951   -2.1856    0.5964 H   0  0  0  0  0  0  0  0  0  0  0  0
    7.7927   -4.1218   -0.9880 H   0  0  0  0  0  0  0  0  0  0  0  0
    9.4191   -4.3410    0.5609 H   0  0  0  0  0  0  0  0  0  0  0  0
    8.4424   -3.5634    1.7157 H   0  0  0  0  0  0  0  0  0  0  0  0
    8.2229   -6.5065    1.0711 H   0  0  0  0  0  0  0  0  0  0  0  0
    8.8447   -5.8109    2.5635 H   0  0  0  0  0  0  0  0  0  0  0  0
    7.1915   -6.4011    4.2616 H   0  0  0  0  0  0  0  0  0  0  0  0
    4.9005   -6.1207    5.1365 H   0  0  0  0  0  0  0  0  0  0  0  0
    2.7612   -5.2931    4.7455 H   0  0  0  0  0  0  0  0  0  0  0  0
    4.3503   -5.5808   -0.5043 H   0  0  0  0  0  0  0  0  0  0  0  0
    4.4298   -4.6522   -2.6966 H   0  0  0  0  0  0  0  0  0  0  0  0
    4.9926   -1.7030   -1.6443 H   0  0  0  0  0  0  0  0  0  0  0  0
    3.6835   -3.0322   -3.8651 H   0  0  0  0  0  0  0  0  0  0  0  0
  1  2  1  0
  1 26  1  0
  1 27  1  0
  1 28  1  0
  2 24  1  0
  2  3  1  0
  2 49  1  6
  3  4  1  0
  3 29  1  0
  3 30  1  0
  5  4  1  6
  4 31  1  0
  4 32  1  0
  5 23  1  0
  5 24  1  0
  5  6  1  0
  6 25  1  0
  6  7  1  0
  6 33  1  1
  7  8  2  3
  7 34  1  0
  8  9  1  0
  8 35  1  0
  9 10  1  0
  9 11  1  0
  9 36  1  6
 10 37  1  0
 11 21  1  0
 11 12  1  0
 11 38  1  6
 12 13  1  0
 12 39  1  0
 12 40  1  0
 13 14  1  0
 13 41  1  0
 13 42  1  0
 14 20  2  0
 14 15  1  0
 15 16  2  0
 15 43  1  0
 16 17  1  0
 16 44  1  0
 17 18  1  0
 17 19  2  0
 18 45  1  0
 19 20  1  0
 19 25  1  0
 20 21  1  0
 21 22  2  3
 22 23  1  0
 22 46  1  0
 23 24  1  0
 23 47  1  6
 24 48  1  1
M  CHG  1   2   1
M  END
>  <i_m_ct_stereo_status>  (180) 
1

>  <s_m_source_file>  (180) 
/var/tmp/pbs.5076255.sched01/tmpniar21pp/41tndis9zi.sdf

>  <i_m_source_file_index>  (180) 
37

>  <i_lp_mmshare_version>  (180) 
48012

>  <i_f3d_flags>  (180) 
0

>  <s_epik_input>  (180) 
W0NIMl0xW0NIMl1OKFtDSDNdKVtDQEBIXTJbQ0BIXTNcW0NIXT1DKFxbQ0BIXTRbQ0BIXShbT0hdKS9bQ0hdPVtDSF1cW0NASF01W0NAQF0xMjMpYzZjKFtDSDJdW0NIMl00KVtjSF1bY0hdYyhbT0hdKWM2TzU=

>  <s_epik_cmdline>  (180) 
J2VwaWtfcHl0aG9uJywgJy1waHQnLCAnMi4wJywgJy1waCcsICc3LjAnLCAnLXRuJywgJzgnLCAnLW1hJywgJzIwMCcsICctaW1hZScsICc8aW5maWxlLm1hZT4nLCAnLW9tYWUnLCAnPG91dGZpbGUubWFlPic=

>  <r_epik_Ionization_Penalty>  (180) 
0.00990519

>  <r_epik_Ionization_Penalty_Charging>  (180) 
0.00905413

>  <r_epik_Ionization_Penalty_Neutral>  (180) 
0.000851055

>  <r_epik_State_Penalty>  (180) 
0.006856

>  <r_epik_Charging_Adjusted_Penalty>  (180) 
0.0159101

>  <i_epik_Tot_Q>  (180) 
1

>  <i_epik_Tot_abs_Q>  (180) 
1

>  <s_lp_Force_Field>  (180) 
OPLS3e

>  <r_lp_Energy>  (180) 
104.027

>  <b_lp_Chiralities_Consistent>  (180) 
1

>  <s_lp_Variant>  (180) 
55:0-3

>  <s_i_glide_gridfile>  (180) 
pfpi4k_grid

>  <i_i_glide_lignum>  (180) 
37

>  <i_i_glide_rotatable_bonds>  (180) 
2

>  <r_i_docking_score>  (180) 
-3.32657

>  <r_i_glide_ligand_efficiency>  (180) 
-0.133063

>  <r_i_glide_ligand_efficiency_sa>  (180) 
-0.389078

>  <r_i_glide_ligand_efficiency_ln>  (180) 
-0.788498

>  <r_i_glide_gscore>  (180) 
-3.32657

>  <r_i_glide_lipo>  (180) 
-0.871934

>  <r_i_glide_hbond>  (180) 
-0.0715729

>  <r_i_glide_metal>  (180) 
-0

>  <r_i_glide_rewards>  (180) 
-1.10168

>  <r_i_glide_evdw>  (180) 
-16.882

>  <r_i_glide_ecoul>  (180) 
-2.91525

>  <r_i_glide_erotb>  (180) 
0

>  <r_i_glide_esite>  (180) 
0

>  <r_i_glide_emodel>  (180) 
-23.4659

>  <r_i_glide_energy>  (180) 
-19.7972

>  <r_i_glide_einternal>  (180) 
0.554478

>  <r_i_glide_intrahb_reward>  (180) 
-0

>  <i_i_glide_confnum>  (180) 
1

>  <i_i_glide_posenum>  (180) 
5

>  <r_i_glide_eff_state_penalty>  (180) 
0

>  <ligand_id>  (180) 
55

>  <original_smiles>  (180) 
CN1CCC23C4C=CC(O)C5CCc6ccc(O)c(c6C5=CC2C13)O4

>  <smiles>  (180) 
[H]Oc1c([H])c([H])c2c3c1OC1([H])C([H])=C([H])C([H])(O[H])C([H])(C3=C([H])C3([H])C14C([H])([H])C([H])([H])[N+]([H])(C([H])([H])[H])C34[H])C([H])([H])C2([H])[H]

$$$$
55:3:0
     RDKit          3D

 49 54  0  0  1  0  0  0  0  0999 V2000
    2.9259   -2.6777   -2.6973 C   0  0  0  0  0  0  0  0  0  0  0  0
    3.0200   -2.2615   -1.2818 N   0  0  2  0  0  0  0  0  0  0  0  0
    4.1085   -1.3032   -1.0224 C   0  0  0  0  0  0  0  0  0  0  0  0
    4.4770   -1.4470    0.4612 C   0  0  0  0  0  0  0  0  0  0  0  0
    4.1088   -2.8779    0.8008 C   0  0  1  0  0  0  0  0  0  0  0  0
    5.2190   -3.6294    1.6726 C   0  0  2  0  0  0  0  0  0  0  0  0
    5.6989   -5.0145    1.2263 C   0  0  0  0  0  0  0  0  0  0  0  0
    5.1279   -5.7242    0.2461 C   0  0  0  0  0  0  0  0  0  0  0  0
    4.3337   -6.9677    0.5875 C   0  0  1  0  0  0  0  0  0  0  0  0
    5.0725   -7.8213    1.4464 O   0  0  0  0  0  0  0  0  0  0  0  0
    2.9018   -6.5856    1.1408 C   0  0  1  0  0  0  0  0  0  0  0  0
    2.2115   -7.8054    1.8345 C   0  0  0  0  0  0  0  0  0  0  0  0
    2.3556   -7.8853    3.3973 C   0  0  0  0  0  0  0  0  0  0  0  0
    3.3578   -6.9053    4.0054 C   0  0  0  0  0  0  0  0  0  0  0  0
    4.0751   -7.2015    5.1807 C   0  0  0  0  0  0  0  0  0  0  0  0
    5.0097   -6.2779    5.6826 C   0  0  0  0  0  0  0  0  0  0  0  0
    5.2841   -5.0555    5.0261 C   0  0  0  0  0  0  0  0  0  0  0  0
    6.2034   -4.1863    5.5319 O   0  0  0  0  0  0  0  0  0  0  0  0
    4.5736   -4.8068    3.8298 C   0  0  0  0  0  0  0  0  0  0  0  0
    3.5653   -5.6842    3.3474 C   0  0  0  0  0  0  0  0  0  0  0  0
    2.8159   -5.4301    2.1501 C   0  0  0  0  0  0  0  0  0  0  0  0
    2.4057   -4.1470    2.0573 C   0  0  0  0  0  0  0  0  0  0  0  0
    2.6128   -3.1757    0.9819 C   0  0  2  0  0  0  0  0  0  0  0  0
    3.2288   -3.3949   -0.3535 C   0  0  1  0  0  0  0  0  0  0  0  0
    4.9512   -3.6437    3.1214 O   0  0  0  0  0  0  0  0  0  0  0  0
    3.8382   -3.1919   -3.0317 H   0  0  0  0  0  0  0  0  0  0  0  0
    2.7749   -1.8078   -3.3406 H   0  0  0  0  0  0  0  0  0  0  0  0
    2.0864   -3.3562   -2.8516 H   0  0  0  0  0  0  0  0  0  0  0  0
    4.9906   -1.5712   -1.6173 H   0  0  0  0  0  0  0  0  0  0  0  0
    3.8436   -0.2872   -1.3092 H   0  0  0  0  0  0  0  0  0  0  0  0
    5.5219   -1.1879    0.6537 H   0  0  0  0  0  0  0  0  0  0  0  0
    3.8576   -0.7766    1.0572 H   0  0  0  0  0  0  0  0  0  0  0  0
    6.1340   -3.0402    1.5949 H   0  0  0  0  0  0  0  0  0  0  0  0
    6.0534   -5.5913    2.0659 H   0  0  0  0  0  0  0  0  0  0  0  0
    4.8049   -5.2508   -0.6569 H   0  0  0  0  0  0  0  0  0  0  0  0
    4.2173   -7.5270   -0.3385 H   0  0  0  0  0  0  0  0  0  0  0  0
    4.6943   -8.6892    1.4131 H   0  0  0  0  0  0  0  0  0  0  0  0
    2.2980   -6.2883    0.2841 H   0  0  0  0  0  0  0  0  0  0  0  0
    1.1448   -7.7877    1.6033 H   0  0  0  0  0  0  0  0  0  0  0  0
    2.5687   -8.7382    1.3915 H   0  0  0  0  0  0  0  0  0  0  0  0
    1.3918   -7.6503    3.8511 H   0  0  0  0  0  0  0  0  0  0  0  0
    2.5879   -8.9043    3.7081 H   0  0  0  0  0  0  0  0  0  0  0  0
    3.9120   -8.1363    5.6988 H   0  0  0  0  0  0  0  0  0  0  0  0
    5.5417   -6.5176    6.5916 H   0  0  0  0  0  0  0  0  0  0  0  0
    6.6561   -4.5324    6.2858 H   0  0  0  0  0  0  0  0  0  0  0  0
    2.3998   -3.6014    2.9886 H   0  0  0  0  0  0  0  0  0  0  0  0
    1.9266   -2.3342    1.0768 H   0  0  0  0  0  0  0  0  0  0  0  0
    3.0493   -4.3913   -0.7390 H   0  0  0  0  0  0  0  0  0  0  0  0
    2.1215   -1.8046   -1.0525 H   0  0  0  0  0  0  0  0  0  0  0  0
  1  2  1  0
  1 26  1  0
  1 27  1  0
  1 28  1  0
  2 24  1  0
  2  3  1  0
  2 49  1  1
  3  4  1  0
  3 29  1  0
  3 30  1  0
  5  4  1  6
  4 31  1  0
  4 32  1  0
  5 23  1  0
  5 24  1  0
  5  6  1  0
  6 25  1  0
  6  7  1  0
  6 33  1  1
  7  8  2  3
  7 34  1  0
  8  9  1  0
  8 35  1  0
  9 10  1  0
  9 11  1  0
  9 36  1  6
 10 37  1  0
 11 21  1  0
 11 12  1  0
 11 38  1  6
 12 13  1  0
 12 39  1  0
 12 40  1  0
 13 14  1  0
 13 41  1  0
 13 42  1  0
 14 20  2  0
 14 15  1  0
 15 16  2  0
 15 43  1  0
 16 17  1  0
 16 44  1  0
 17 18  1  0
 17 19  2  0
 18 45  1  0
 19 20  1  0
 19 25  1  0
 20 21  1  0
 21 22  2  3
 22 23  1  0
 22 46  1  0
 23 24  1  0
 23 47  1  6
 24 48  1  6
M  CHG  1   2   1
M  END
>  <i_m_ct_stereo_status>  (181) 
1

>  <s_m_source_file>  (181) 
/var/tmp/pbs.5076255.sched01/tmpniar21pp/41tndis9zi.sdf

>  <i_m_source_file_index>  (181) 
38

>  <i_lp_mmshare_version>  (181) 
48012

>  <i_f3d_flags>  (181) 
0

>  <s_epik_input>  (181) 
W0NIMl0xW0NIMl1OKFtDSDNdKVtDQEBIXTJbQ0BIXTNcW0NIXT1DKFxbQ0BIXTRbQ0BIXShbT0hdKS9bQ0hdPVtDSF1cW0NASF01W0NAQF0xMjMpYzZjKFtDSDJdW0NIMl00KVtjSF1bY0hdYyhbT0hdKWM2TzU=

>  <s_epik_cmdline>  (181) 
J2VwaWtfcHl0aG9uJywgJy1waHQnLCAnMi4wJywgJy1waCcsICc3LjAnLCAnLXRuJywgJzgnLCAnLW1hJywgJzIwMCcsICctaW1hZScsICc8aW5maWxlLm1hZT4nLCAnLW9tYWUnLCAnPG91dGZpbGUubWFlPic=

>  <r_epik_Ionization_Penalty>  (181) 
0.00990519

>  <r_epik_Ionization_Penalty_Charging>  (181) 
0.00905413

>  <r_epik_Ionization_Penalty_Neutral>  (181) 
0.000851055

>  <r_epik_State_Penalty>  (181) 
0.006856

>  <r_epik_Charging_Adjusted_Penalty>  (181) 
0.0159101

>  <i_epik_Tot_Q>  (181) 
1

>  <i_epik_Tot_abs_Q>  (181) 
1

>  <s_lp_Force_Field>  (181) 
OPLS3e

>  <r_lp_Energy>  (181) 
124.766

>  <b_lp_Chiralities_Consistent>  (181) 
1

>  <s_lp_Variant>  (181) 
55:0-4

>  <s_i_glide_gridfile>  (181) 
pfpi4k_grid

>  <i_i_glide_lignum>  (181) 
38

>  <i_i_glide_rotatable_bonds>  (181) 
2

>  <r_i_docking_score>  (181) 
-3.75194

>  <r_i_glide_ligand_efficiency>  (181) 
-0.150078

>  <r_i_glide_ligand_efficiency_sa>  (181) 
-0.43883

>  <r_i_glide_ligand_efficiency_ln>  (181) 
-0.889323

>  <r_i_glide_gscore>  (181) 
-3.75194

>  <r_i_glide_lipo>  (181) 
-0.405865

>  <r_i_glide_hbond>  (181) 
-0.2

>  <r_i_glide_metal>  (181) 
-0

>  <r_i_glide_rewards>  (181) 
-1.10168

>  <r_i_glide_evdw>  (181) 
-16.9053

>  <r_i_glide_ecoul>  (181) 
-7.45696

>  <r_i_glide_erotb>  (181) 
0

>  <r_i_glide_esite>  (181) 
-0.0805897

>  <r_i_glide_emodel>  (181) 
-31.0842

>  <r_i_glide_energy>  (181) 
-24.3623

>  <r_i_glide_einternal>  (181) 
0.532635

>  <r_i_glide_intrahb_reward>  (181) 
-0

>  <i_i_glide_confnum>  (181) 
2

>  <i_i_glide_posenum>  (181) 
22

>  <r_i_glide_eff_state_penalty>  (181) 
0

>  <ligand_id>  (181) 
55

>  <original_smiles>  (181) 
CN1CCC23C4C=CC(O)C5CCc6ccc(O)c(c6C5=CC2C13)O4

>  <smiles>  (181) 
[H]Oc1c([H])c([H])c2c3c1OC1([H])C([H])=C([H])C([H])(O[H])C([H])(C3=C([H])C3([H])C14C([H])([H])C([H])([H])[N+]([H])(C([H])([H])[H])C34[H])C([H])([H])C2([H])[H]

$$$$
55:3:1
     RDKit          3D

 49 54  0  0  1  0  0  0  0  0999 V2000
    6.1787   -0.9319    1.3054 C   0  0  0  0  0  0  0  0  0  0  0  0
    5.1025   -1.7177    0.6654 N   0  0  2  0  0  0  0  0  0  0  0  0
    3.7594   -1.1076    0.7936 C   0  0  0  0  0  0  0  0  0  0  0  0
    2.7625   -2.2573    0.6366 C   0  0  0  0  0  0  0  0  0  0  0  0
    3.5173   -3.4944    1.0893 C   0  0  1  0  0  0  0  0  0  0  0  0
    2.6587   -4.4379    2.0459 C   0  0  2  0  0  0  0  0  0  0  0  0
    3.2749   -4.9133    3.3656 C   0  0  0  0  0  0  0  0  0  0  0  0
    4.5563   -4.7294    3.7039 C   0  0  0  0  0  0  0  0  0  0  0  0
    5.5004   -5.9161    3.7268 C   0  0  1  0  0  0  0  0  0  0  0  0
    4.9378   -6.9895    4.4606 O   0  0  0  0  0  0  0  0  0  0  0  0
    5.9440   -6.3234    2.2630 C   0  0  1  0  0  0  0  0  0  0  0  0
    6.6003   -7.7406    2.2331 C   0  0  0  0  0  0  0  0  0  0  0  0
    5.6530   -8.9365    1.8528 C   0  0  0  0  0  0  0  0  0  0  0  0
    4.1629   -8.5897    1.8083 C   0  0  0  0  0  0  0  0  0  0  0  0
    3.1668   -9.5375    2.1048 C   0  0  0  0  0  0  0  0  0  0  0  0
    1.8102   -9.1577    2.0800 C   0  0  0  0  0  0  0  0  0  0  0  0
    1.4005   -7.8336    1.7968 C   0  0  0  0  0  0  0  0  0  0  0  0
    0.0827   -7.4845    1.7940 O   0  0  0  0  0  0  0  0  0  0  0  0
    2.4305   -6.9041    1.5307 C   0  0  0  0  0  0  0  0  0  0  0  0
    3.8030   -7.2779    1.4689 C   0  0  0  0  0  0  0  0  0  0  0  0
    4.8594   -6.3451    1.1762 C   0  0  0  0  0  0  0  0  0  0  0  0
    4.5667   -5.5228    0.1475 C   0  0  0  0  0  0  0  0  0  0  0  0
    4.5559   -4.0636    0.1043 C   0  0  2  0  0  0  0  0  0  0  0  0
    4.9988   -3.1101    1.1551 C   0  0  1  0  0  0  0  0  0  0  0  0
    2.0156   -5.5689    1.3595 O   0  0  0  0  0  0  0  0  0  0  0  0
    6.0272   -0.8549    2.3823 H   0  0  0  0  0  0  0  0  0  0  0  0
    6.2044    0.0724    0.8838 H   0  0  0  0  0  0  0  0  0  0  0  0
    7.1509   -1.3911    1.1292 H   0  0  0  0  0  0  0  0  0  0  0  0
    3.6522   -0.6830    1.7925 H   0  0  0  0  0  0  0  0  0  0  0  0
    3.6116   -0.3005    0.0749 H   0  0  0  0  0  0  0  0  0  0  0  0
    1.8373   -2.0638    1.1813 H   0  0  0  0  0  0  0  0  0  0  0  0
    2.5231   -2.3849   -0.4187 H   0  0  0  0  0  0  0  0  0  0  0  0
    1.8134   -3.8468    2.3983 H   0  0  0  0  0  0  0  0  0  0  0  0
    2.8395   -5.8484    3.6751 H   0  0  0  0  0  0  0  0  0  0  0  0
    5.0492   -3.8055    3.4908 H   0  0  0  0  0  0  0  0  0  0  0  0
    6.3814   -5.6109    4.2888 H   0  0  0  0  0  0  0  0  0  0  0  0
    4.2579   -7.3940    3.9428 H   0  0  0  0  0  0  0  0  0  0  0  0
    6.6945   -5.5990    1.9458 H   0  0  0  0  0  0  0  0  0  0  0  0
    7.4252   -7.7324    1.5184 H   0  0  0  0  0  0  0  0  0  0  0  0
    7.0717   -7.9476    3.1950 H   0  0  0  0  0  0  0  0  0  0  0  0
    5.9171   -9.2890    0.8550 H   0  0  0  0  0  0  0  0  0  0  0  0
    5.8262   -9.7843    2.5172 H   0  0  0  0  0  0  0  0  0  0  0  0
    3.4382  -10.5554    2.3436 H   0  0  0  0  0  0  0  0  0  0  0  0
    1.0662   -9.9145    2.2945 H   0  0  0  0  0  0  0  0  0  0  0  0
   -0.4650   -8.2545    1.8546 H   0  0  0  0  0  0  0  0  0  0  0  0
    3.7726   -5.8722   -0.4922 H   0  0  0  0  0  0  0  0  0  0  0  0
    4.5311   -3.7077   -0.9264 H   0  0  0  0  0  0  0  0  0  0  0  0
    5.8367   -3.4871    1.7269 H   0  0  0  0  0  0  0  0  0  0  0  0
    5.3072   -1.7759   -0.3259 H   0  0  0  0  0  0  0  0  0  0  0  0
  1  2  1  0
  1 26  1  0
  1 27  1  0
  1 28  1  0
  2 24  1  0
  2  3  1  0
  2 49  1  6
  3  4  1  0
  3 29  1  0
  3 30  1  0
  5  4  1  6
  4 31  1  0
  4 32  1  0
  5 23  1  0
  5 24  1  0
  5  6  1  0
  6 25  1  0
  6  7  1  0
  6 33  1  1
  7  8  2  3
  7 34  1  0
  8  9  1  0
  8 35  1  0
  9 10  1  0
  9 11  1  0
  9 36  1  1
 10 37  1  0
 11 21  1  0
 11 12  1  0
 11 38  1  6
 12 13  1  0
 12 39  1  0
 12 40  1  0
 13 14  1  0
 13 41  1  0
 13 42  1  0
 14 20  2  0
 14 15  1  0
 15 16  2  0
 15 43  1  0
 16 17  1  0
 16 44  1  0
 17 18  1  0
 17 19  2  0
 18 45  1  0
 19 20  1  0
 19 25  1  0
 20 21  1  0
 21 22  2  3
 22 23  1  0
 22 46  1  0
 23 24  1  0
 23 47  1  6
 24 48  1  1
M  CHG  1   2   1
M  END
>  <i_m_ct_stereo_status>  (182) 
1

>  <s_m_source_file>  (182) 
/var/tmp/pbs.5076255.sched01/tmpniar21pp/41tndis9zi.sdf

>  <i_m_source_file_index>  (182) 
38

>  <i_lp_mmshare_version>  (182) 
48012

>  <i_f3d_flags>  (182) 
0

>  <s_epik_input>  (182) 
W0NIMl0xW0NIMl1OKFtDSDNdKVtDQEBIXTJbQ0BIXTNcW0NIXT1DKFxbQ0BIXTRbQ0BIXShbT0hdKS9bQ0hdPVtDSF1cW0NASF01W0NAQF0xMjMpYzZjKFtDSDJdW0NIMl00KVtjSF1bY0hdYyhbT0hdKWM2TzU=

>  <s_epik_cmdline>  (182) 
J2VwaWtfcHl0aG9uJywgJy1waHQnLCAnMi4wJywgJy1waCcsICc3LjAnLCAnLXRuJywgJzgnLCAnLW1hJywgJzIwMCcsICctaW1hZScsICc8aW5maWxlLm1hZT4nLCAnLW9tYWUnLCAnPG91dGZpbGUubWFlPic=

>  <r_epik_Ionization_Penalty>  (182) 
0.00990519

>  <r_epik_Ionization_Penalty_Charging>  (182) 
0.00905413

>  <r_epik_Ionization_Penalty_Neutral>  (182) 
0.000851055

>  <r_epik_State_Penalty>  (182) 
0.006856

>  <r_epik_Charging_Adjusted_Penalty>  (182) 
0.0159101

>  <i_epik_Tot_Q>  (182) 
1

>  <i_epik_Tot_abs_Q>  (182) 
1

>  <s_lp_Force_Field>  (182) 
OPLS3e

>  <r_lp_Energy>  (182) 
124.766

>  <b_lp_Chiralities_Consistent>  (182) 
1

>  <s_lp_Variant>  (182) 
55:0-4

>  <s_i_glide_gridfile>  (182) 
pfpi4k_grid

>  <i_i_glide_lignum>  (182) 
38

>  <i_i_glide_rotatable_bonds>  (182) 
2

>  <r_i_docking_score>  (182) 
-3.55842

>  <r_i_glide_ligand_efficiency>  (182) 
-0.142337

>  <r_i_glide_ligand_efficiency_sa>  (182) 
-0.416195

>  <r_i_glide_ligand_efficiency_ln>  (182) 
-0.843452

>  <r_i_glide_gscore>  (182) 
-3.55842

>  <r_i_glide_lipo>  (182) 
-0.489045

>  <r_i_glide_hbond>  (182) 
-0.0178568

>  <r_i_glide_metal>  (182) 
-0

>  <r_i_glide_rewards>  (182) 
-1.10168

>  <r_i_glide_evdw>  (182) 
-21.3431

>  <r_i_glide_ecoul>  (182) 
-5.88457

>  <r_i_glide_erotb>  (182) 
0

>  <r_i_glide_esite>  (182) 
0

>  <r_i_glide_emodel>  (182) 
-33.7738

>  <r_i_glide_energy>  (182) 
-27.2276

>  <r_i_glide_einternal>  (182) 
0.122811

>  <r_i_glide_intrahb_reward>  (182) 
-0

>  <i_i_glide_confnum>  (182) 
1

>  <i_i_glide_posenum>  (182) 
1

>  <r_i_glide_eff_state_penalty>  (182) 
0

>  <ligand_id>  (182) 
55

>  <original_smiles>  (182) 
CN1CCC23C4C=CC(O)C5CCc6ccc(O)c(c6C5=CC2C13)O4

>  <smiles>  (182) 
[H]Oc1c([H])c([H])c2c3c1OC1([H])C([H])=C([H])C([H])(O[H])C([H])(C3=C([H])C3([H])C14C([H])([H])C([H])([H])[N+]([H])(C([H])([H])[H])C34[H])C([H])([H])C2([H])[H]

$$$$
55:3:2
     RDKit          3D

 49 54  0  0  1  0  0  0  0  0999 V2000
    5.8994   -1.6758    1.6363 C   0  0  0  0  0  0  0  0  0  0  0  0
    4.5519   -2.1573    1.2581 N   0  0  2  0  0  0  0  0  0  0  0  0
    3.4489   -1.3451    1.8210 C   0  0  0  0  0  0  0  0  0  0  0  0
    2.2244   -2.2646    1.8573 C   0  0  0  0  0  0  0  0  0  0  0  0
    2.7947   -3.6702    1.9600 C   0  0  1  0  0  0  0  0  0  0  0  0
    2.0414   -4.5823    3.0326 C   0  0  2  0  0  0  0  0  0  0  0  0
    2.8715   -5.3458    4.0695 C   0  0  0  0  0  0  0  0  0  0  0  0
    4.2064   -5.4376    4.0433 C   0  0  0  0  0  0  0  0  0  0  0  0
    4.8543   -6.7626    3.6893 C   0  0  1  0  0  0  0  0  0  0  0  0
    4.2868   -7.8147    4.4503 O   0  0  0  0  0  0  0  0  0  0  0  0
    4.7979   -7.0231    2.1290 C   0  0  1  0  0  0  0  0  0  0  0  0
    5.1131   -8.5139    1.7862 C   0  0  0  0  0  0  0  0  0  0  0  0
    3.8709   -9.4553    1.5850 C   0  0  0  0  0  0  0  0  0  0  0  0
    2.5261   -8.8545    1.9964 C   0  0  0  0  0  0  0  0  0  0  0  0
    1.4687   -9.6472    2.4822 C   0  0  0  0  0  0  0  0  0  0  0  0
    0.2599   -9.0397    2.8772 C   0  0  0  0  0  0  0  0  0  0  0  0
    0.0756   -7.6369    2.8361 C   0  0  0  0  0  0  0  0  0  0  0  0
   -1.0911   -7.0665    3.2482 O   0  0  0  0  0  0  0  0  0  0  0  0
    1.1710   -6.8721    2.3744 C   0  0  0  0  0  0  0  0  0  0  0  0
    2.3711   -7.4651    1.8916 C   0  0  0  0  0  0  0  0  0  0  0  0
    3.4848   -6.6954    1.3994 C   0  0  0  0  0  0  0  0  0  0  0  0
    3.1072   -5.6925    0.5794 C   0  0  0  0  0  0  0  0  0  0  0  0
    3.3937   -4.2637    0.6710 C   0  0  2  0  0  0  0  0  0  0  0  0
    4.2888   -3.5662    1.6307 C   0  0  1  0  0  0  0  0  0  0  0  0
    1.0171   -5.4733    2.4622 O   0  0  0  0  0  0  0  0  0  0  0  0
    6.0500   -1.7332    2.7142 H   0  0  0  0  0  0  0  0  0  0  0  0
    6.0375   -0.6397    1.3272 H   0  0  0  0  0  0  0  0  0  0  0  0
    6.6712   -2.2736    1.1511 H   0  0  0  0  0  0  0  0  0  0  0  0
    3.7007   -1.0594    2.8422 H   0  0  0  0  0  0  0  0  0  0  0  0
    3.2873   -0.4305    1.2480 H   0  0  0  0  0  0  0  0  0  0  0  0
    1.5361   -1.9944    2.6600 H   0  0  0  0  0  0  0  0  0  0  0  0
    1.6915   -2.1874    0.9102 H   0  0  0  0  0  0  0  0  0  0  0  0
    1.4585   -3.9101    3.6629 H   0  0  0  0  0  0  0  0  0  0  0  0
    2.3552   -6.2328    4.3989 H   0  0  0  0  0  0  0  0  0  0  0  0
    4.8066   -4.5928    3.7833 H   0  0  0  0  0  0  0  0  0  0  0  0
    5.8975   -6.7022    3.9965 H   0  0  0  0  0  0  0  0  0  0  0  0
    4.7253   -8.6222    4.2262 H   0  0  0  0  0  0  0  0  0  0  0  0
    5.5728   -6.4043    1.6753 H   0  0  0  0  0  0  0  0  0  0  0  0
    5.7013   -8.5473    0.8689 H   0  0  0  0  0  0  0  0  0  0  0  0
    5.7719   -8.9417    2.5428 H   0  0  0  0  0  0  0  0  0  0  0  0
    3.7864   -9.7005    0.5252 H   0  0  0  0  0  0  0  0  0  0  0  0
    4.0310  -10.4066    2.0940 H   0  0  0  0  0  0  0  0  0  0  0  0
    1.5818  -10.7181    2.5493 H   0  0  0  0  0  0  0  0  0  0  0  0
   -0.5383   -9.6767    3.2384 H   0  0  0  0  0  0  0  0  0  0  0  0
   -1.6722   -7.7214    3.6077 H   0  0  0  0  0  0  0  0  0  0  0  0
    2.1207   -5.8028    0.1553 H   0  0  0  0  0  0  0  0  0  0  0  0
    3.1802   -3.7636   -0.2742 H   0  0  0  0  0  0  0  0  0  0  0  0
    5.1489   -4.1645    1.9030 H   0  0  0  0  0  0  0  0  0  0  0  0
    4.4759   -2.1056    0.2478 H   0  0  0  0  0  0  0  0  0  0  0  0
  1  2  1  0
  1 26  1  0
  1 27  1  0
  1 28  1  0
  2 24  1  0
  2  3  1  0
  2 49  1  6
  3  4  1  0
  3 29  1  0
  3 30  1  0
  5  4  1  6
  4 31  1  0
  4 32  1  0
  5 23  1  0
  5 24  1  0
  5  6  1  0
  6 25  1  0
  6  7  1  0
  6 33  1  1
  7  8  2  3
  7 34  1  0
  8  9  1  0
  8 35  1  0
  9 10  1  0
  9 11  1  0
  9 36  1  1
 10 37  1  0
 11 21  1  0
 11 12  1  0
 11 38  1  6
 12 13  1  0
 12 39  1  0
 12 40  1  0
 13 14  1  0
 13 41  1  0
 13 42  1  0
 14 20  2  0
 14 15  1  0
 15 16  2  0
 15 43  1  0
 16 17  1  0
 16 44  1  0
 17 18  1  0
 17 19  2  0
 18 45  1  0
 19 20  1  0
 19 25  1  0
 20 21  1  0
 21 22  2  3
 22 23  1  0
 22 46  1  0
 23 24  1  0
 23 47  1  6
 24 48  1  1
M  CHG  1   2   1
M  END
>  <i_m_ct_stereo_status>  (183) 
1

>  <s_m_source_file>  (183) 
/var/tmp/pbs.5076255.sched01/tmpniar21pp/41tndis9zi.sdf

>  <i_m_source_file_index>  (183) 
38

>  <i_lp_mmshare_version>  (183) 
48012

>  <i_f3d_flags>  (183) 
0

>  <s_epik_input>  (183) 
W0NIMl0xW0NIMl1OKFtDSDNdKVtDQEBIXTJbQ0BIXTNcW0NIXT1DKFxbQ0BIXTRbQ0BIXShbT0hdKS9bQ0hdPVtDSF1cW0NASF01W0NAQF0xMjMpYzZjKFtDSDJdW0NIMl00KVtjSF1bY0hdYyhbT0hdKWM2TzU=

>  <s_epik_cmdline>  (183) 
J2VwaWtfcHl0aG9uJywgJy1waHQnLCAnMi4wJywgJy1waCcsICc3LjAnLCAnLXRuJywgJzgnLCAnLW1hJywgJzIwMCcsICctaW1hZScsICc8aW5maWxlLm1hZT4nLCAnLW9tYWUnLCAnPG91dGZpbGUubWFlPic=

>  <r_epik_Ionization_Penalty>  (183) 
0.00990519

>  <r_epik_Ionization_Penalty_Charging>  (183) 
0.00905413

>  <r_epik_Ionization_Penalty_Neutral>  (183) 
0.000851055

>  <r_epik_State_Penalty>  (183) 
0.006856

>  <r_epik_Charging_Adjusted_Penalty>  (183) 
0.0159101

>  <i_epik_Tot_Q>  (183) 
1

>  <i_epik_Tot_abs_Q>  (183) 
1

>  <s_lp_Force_Field>  (183) 
OPLS3e

>  <r_lp_Energy>  (183) 
124.766

>  <b_lp_Chiralities_Consistent>  (183) 
1

>  <s_lp_Variant>  (183) 
55:0-4

>  <s_i_glide_gridfile>  (183) 
pfpi4k_grid

>  <i_i_glide_lignum>  (183) 
38

>  <i_i_glide_rotatable_bonds>  (183) 
2

>  <r_i_docking_score>  (183) 
-3.28414

>  <r_i_glide_ligand_efficiency>  (183) 
-0.131366

>  <r_i_glide_ligand_efficiency_sa>  (183) 
-0.384115

>  <r_i_glide_ligand_efficiency_ln>  (183) 
-0.77844

>  <r_i_glide_gscore>  (183) 
-3.28414

>  <r_i_glide_lipo>  (183) 
-0.355131

>  <r_i_glide_hbond>  (183) 
-0.0393898

>  <r_i_glide_metal>  (183) 
-0

>  <r_i_glide_rewards>  (183) 
-1.10168

>  <r_i_glide_evdw>  (183) 
-21.1156

>  <r_i_glide_ecoul>  (183) 
-4.88107

>  <r_i_glide_erotb>  (183) 
0

>  <r_i_glide_esite>  (183) 
0

>  <r_i_glide_emodel>  (183) 
-31.8711

>  <r_i_glide_energy>  (183) 
-25.9967

>  <r_i_glide_einternal>  (183) 
0.508162

>  <r_i_glide_intrahb_reward>  (183) 
-0

>  <i_i_glide_confnum>  (183) 
1

>  <i_i_glide_posenum>  (183) 
36

>  <r_i_glide_eff_state_penalty>  (183) 
0

>  <ligand_id>  (183) 
55

>  <original_smiles>  (183) 
CN1CCC23C4C=CC(O)C5CCc6ccc(O)c(c6C5=CC2C13)O4

>  <smiles>  (183) 
[H]Oc1c([H])c([H])c2c3c1OC1([H])C([H])=C([H])C([H])(O[H])C([H])(C3=C([H])C3([H])C14C([H])([H])C([H])([H])[N+]([H])(C([H])([H])[H])C34[H])C([H])([H])C2([H])[H]

$$$$
55:4:0
     RDKit          3D

 48 53  0  0  1  0  0  0  0  0999 V2000
    2.7298   -9.2247    2.3963 C   0  0  0  0  0  0  0  0  0  0  0  0
    3.7540   -8.4686    1.6926 N   0  0  0  0  0  0  0  0  0  0  0  0
    5.0794   -8.6599    2.2810 C   0  0  0  0  0  0  0  0  0  0  0  0
    5.8785   -7.4098    1.8758 C   0  0  0  0  0  0  0  0  0  0  0  0
    4.8388   -6.3196    1.7465 C   0  0  1  0  0  0  0  0  0  0  0  0
    5.1261   -5.0372    2.5589 C   0  0  2  0  0  0  0  0  0  0  0  0
    3.9240   -4.1966    3.0744 C   0  0  0  0  0  0  0  0  0  0  0  0
    3.3693   -2.9982    2.7315 C   0  0  0  0  0  0  0  0  0  0  0  0
    3.7095   -1.9720    1.6403 C   0  0  1  0  0  0  0  0  0  0  0  0
    5.0301   -1.5043    1.8340 O   0  0  0  0  0  0  0  0  0  0  0  0
    3.4021   -2.4608    0.1850 C   0  0  1  0  0  0  0  0  0  0  0  0
    3.8727   -1.5267   -0.9821 C   0  0  0  0  0  0  0  0  0  0  0  0
    4.7677   -2.2449   -2.0366 C   0  0  0  0  0  0  0  0  0  0  0  0
    5.8562   -3.0255   -1.3080 C   0  0  0  0  0  0  0  0  0  0  0  0
    7.2076   -2.9133   -1.6785 C   0  0  0  0  0  0  0  0  0  0  0  0
    8.2066   -3.4324   -0.8355 C   0  0  0  0  0  0  0  0  0  0  0  0
    7.8719   -3.9738    0.4196 C   0  0  0  0  0  0  0  0  0  0  0  0
    8.8504   -4.3733    1.2791 O   0  0  0  0  0  0  0  0  0  0  0  0
    6.5018   -4.0639    0.7421 C   0  0  0  0  0  0  0  0  0  0  0  0
    5.4571   -3.7448   -0.1629 C   0  0  0  0  0  0  0  0  0  0  0  0
    4.0160   -3.8227    0.0512 C   0  0  0  0  0  0  0  0  0  0  0  0
    3.3133   -4.9544    0.2350 C   0  0  0  0  0  0  0  0  0  0  0  0
    3.9429   -6.2505    0.5215 C   0  0  2  0  0  0  0  0  0  0  0  0
    3.5175   -7.0336    1.7352 C   0  0  1  0  0  0  0  0  0  0  0  0
    6.2763   -4.3479    2.0767 O   0  0  0  0  0  0  0  0  0  0  0  0
    2.9442  -10.2921    2.3454 H   0  0  0  0  0  0  0  0  0  0  0  0
    1.7569   -9.0643    1.9356 H   0  0  0  0  0  0  0  0  0  0  0  0
    2.6596   -8.9410    3.4461 H   0  0  0  0  0  0  0  0  0  0  0  0
    5.0034   -8.6961    3.3695 H   0  0  0  0  0  0  0  0  0  0  0  0
    5.5370   -9.5921    1.9410 H   0  0  0  0  0  0  0  0  0  0  0  0
    6.6689   -7.1654    2.5905 H   0  0  0  0  0  0  0  0  0  0  0  0
    6.3377   -7.5566    0.9004 H   0  0  0  0  0  0  0  0  0  0  0  0
    5.5058   -5.4026    3.5124 H   0  0  0  0  0  0  0  0  0  0  0  0
    3.4148   -4.6964    3.8867 H   0  0  0  0  0  0  0  0  0  0  0  0
    2.5027   -2.7073    3.3078 H   0  0  0  0  0  0  0  0  0  0  0  0
    3.0748   -1.1063    1.8326 H   0  0  0  0  0  0  0  0  0  0  0  0
    5.1561   -0.7322    1.3031 H   0  0  0  0  0  0  0  0  0  0  0  0
    2.3218   -2.5853    0.1059 H   0  0  0  0  0  0  0  0  0  0  0  0
    3.0148   -1.0717   -1.4800 H   0  0  0  0  0  0  0  0  0  0  0  0
    4.4353   -0.6857   -0.5764 H   0  0  0  0  0  0  0  0  0  0  0  0
    4.1693   -2.9370   -2.6335 H   0  0  0  0  0  0  0  0  0  0  0  0
    5.2002   -1.5166   -2.7256 H   0  0  0  0  0  0  0  0  0  0  0  0
    7.4843   -2.4115   -2.5939 H   0  0  0  0  0  0  0  0  0  0  0  0
    9.2424   -3.3554   -1.1285 H   0  0  0  0  0  0  0  0  0  0  0  0
    8.4859   -4.6152    2.1198 H   0  0  0  0  0  0  0  0  0  0  0  0
    2.2441   -4.9095    0.3835 H   0  0  0  0  0  0  0  0  0  0  0  0
    4.2410   -6.7998   -0.3695 H   0  0  0  0  0  0  0  0  0  0  0  0
    2.7183   -6.6117    2.3407 H   0  0  0  0  0  0  0  0  0  0  0  0
  1  2  1  0
  1 26  1  0
  1 27  1  0
  1 28  1  0
  2 24  1  0
  2  3  1  0
  3  4  1  0
  3 29  1  0
  3 30  1  0
  5  4  1  6
  4 31  1  0
  4 32  1  0
  5 23  1  0
  5 24  1  0
  5  6  1  0
  6 25  1  0
  6  7  1  0
  6 33  1  1
  7  8  2  3
  7 34  1  0
  8  9  1  0
  8 35  1  0
  9 10  1  0
  9 11  1  0
  9 36  1  1
 10 37  1  0
 11 21  1  0
 11 12  1  0
 11 38  1  1
 12 13  1  0
 12 39  1  0
 12 40  1  0
 13 14  1  0
 13 41  1  0
 13 42  1  0
 14 20  2  0
 14 15  1  0
 15 16  2  0
 15 43  1  0
 16 17  1  0
 16 44  1  0
 17 18  1  0
 17 19  2  0
 18 45  1  0
 19 20  1  0
 19 25  1  0
 20 21  1  0
 21 22  2  3
 22 23  1  0
 22 46  1  0
 23 24  1  0
 23 47  1  6
 24 48  1  1
M  END
>  <i_m_ct_stereo_status>  (184) 
1

>  <s_m_source_file>  (184) 
/var/tmp/pbs.5076255.sched01/tmpniar21pp/41tndis9zi.sdf

>  <i_m_source_file_index>  (184) 
39

>  <i_lp_mmshare_version>  (184) 
48012

>  <i_f3d_flags>  (184) 
0

>  <s_epik_input>  (184) 
W0NIMl0xW0NIMl1OKFtDSDNdKVtDQEBIXTJbQ0BIXTNcW0NIXT1DKFxbQ0BIXTRbQ0BIXShbT0hdKS9bQ0hdPVtDSF1cW0NASF01W0NAQF0xMjMpYzZjKFtDSDJdW0NIMl00KVtjSF1bY0hdYyhbT0hdKWM2TzU=

>  <s_epik_cmdline>  (184) 
J2VwaWtfcHl0aG9uJywgJy1waHQnLCAnMi4wJywgJy1waCcsICc3LjAnLCAnLXRuJywgJzgnLCAnLW1hJywgJzIwMCcsICctaW1hZScsICc8aW5maWxlLm1hZT4nLCAnLW9tYWUnLCAnPG91dGZpbGUubWFlPic=

>  <r_epik_Ionization_Penalty>  (184) 
2.48197

>  <r_epik_Ionization_Penalty_Charging>  (184) 
0

>  <r_epik_Ionization_Penalty_Neutral>  (184) 
2.48197

>  <r_epik_State_Penalty>  (184) 
2.64544

>  <r_epik_Charging_Adjusted_Penalty>  (184) 
2.64544

>  <i_epik_Tot_Q>  (184) 
0

>  <i_epik_Tot_abs_Q>  (184) 
0

>  <s_lp_Force_Field>  (184) 
OPLS3e

>  <r_lp_Energy>  (184) 
72.0707

>  <b_lp_Chiralities_Consistent>  (184) 
1

>  <s_lp_Variant>  (184) 
55:0-5

>  <s_i_glide_gridfile>  (184) 
pfpi4k_grid

>  <i_i_glide_lignum>  (184) 
39

>  <i_i_glide_rotatable_bonds>  (184) 
2

>  <r_i_docking_score>  (184) 
-3.42933

>  <r_i_glide_ligand_efficiency>  (184) 
-0.137173

>  <r_i_glide_ligand_efficiency_sa>  (184) 
-0.401097

>  <r_i_glide_ligand_efficiency_ln>  (184) 
-0.812854

>  <r_i_glide_gscore>  (184) 
-3.42933

>  <r_i_glide_lipo>  (184) 
-0.751334

>  <r_i_glide_hbond>  (184) 
0

>  <r_i_glide_metal>  (184) 
-0

>  <r_i_glide_rewards>  (184) 
-1.10855

>  <r_i_glide_evdw>  (184) 
-23.4335

>  <r_i_glide_ecoul>  (184) 
-2.65178

>  <r_i_glide_erotb>  (184) 
0

>  <r_i_glide_esite>  (184) 
0

>  <r_i_glide_emodel>  (184) 
-31.4439

>  <r_i_glide_energy>  (184) 
-26.0853

>  <r_i_glide_einternal>  (184) 
0.477537

>  <r_i_glide_intrahb_reward>  (184) 
-0

>  <i_i_glide_confnum>  (184) 
2

>  <i_i_glide_posenum>  (184) 
37

>  <r_i_glide_eff_state_penalty>  (184) 
0

>  <ligand_id>  (184) 
55

>  <original_smiles>  (184) 
CN1CCC23C4C=CC(O)C5CCc6ccc(O)c(c6C5=CC2C13)O4

>  <smiles>  (184) 
[H]Oc1c([H])c([H])c2c3c1OC1([H])C([H])=C([H])C([H])(O[H])C([H])(C3=C([H])C3([H])C4([H])N(C([H])([H])[H])C([H])([H])C([H])([H])C134)C([H])([H])C2([H])[H]

$$$$
55:4:1
     RDKit          3D

 48 53  0  0  1  0  0  0  0  0999 V2000
    2.7252   -9.1891    2.3942 C   0  0  0  0  0  0  0  0  0  0  0  0
    3.7511   -8.4348    1.6899 N   0  0  0  0  0  0  0  0  0  0  0  0
    5.0745   -8.6229    2.2827 C   0  0  0  0  0  0  0  0  0  0  0  0
    5.8750   -7.3743    1.8757 C   0  0  0  0  0  0  0  0  0  0  0  0
    4.8354   -6.2830    1.7402 C   0  0  1  0  0  0  0  0  0  0  0  0
    5.1195   -4.9970    2.5515 C   0  0  2  0  0  0  0  0  0  0  0  0
    3.9150   -4.1597    3.0614 C   0  0  0  0  0  0  0  0  0  0  0  0
    3.3612   -2.9633    2.7114 C   0  0  0  0  0  0  0  0  0  0  0  0
    3.7036   -1.9392    1.6161 C   0  0  1  0  0  0  0  0  0  0  0  0
    5.0301   -1.4842    1.8018 O   0  0  0  0  0  0  0  0  0  0  0  0
    3.3981   -2.4336    0.1619 C   0  0  1  0  0  0  0  0  0  0  0  0
    3.8707   -1.5024   -1.0044 C   0  0  0  0  0  0  0  0  0  0  0  0
    4.7706   -2.2224   -2.0540 C   0  0  0  0  0  0  0  0  0  0  0  0
    5.8558   -3.0026   -1.3246 C   0  0  0  0  0  0  0  0  0  0  0  0
    7.2105   -2.8894   -1.6917 C   0  0  0  0  0  0  0  0  0  0  0  0
    8.2031   -3.4047   -0.8430 C   0  0  0  0  0  0  0  0  0  0  0  0
    7.8693   -3.9442    0.4129 C   0  0  0  0  0  0  0  0  0  0  0  0
    8.8444   -4.3374    1.2775 O   0  0  0  0  0  0  0  0  0  0  0  0
    6.4943   -4.0292    0.7304 C   0  0  0  0  0  0  0  0  0  0  0  0
    5.4579   -3.7195   -0.1773 C   0  0  0  0  0  0  0  0  0  0  0  0
    4.0131   -3.7960    0.0342 C   0  0  0  0  0  0  0  0  0  0  0  0
    3.3117   -4.9274    0.2193 C   0  0  0  0  0  0  0  0  0  0  0  0
    3.9423   -6.2202    0.5130 C   0  0  2  0  0  0  0  0  0  0  0  0
    3.5148   -6.9997    1.7285 C   0  0  1  0  0  0  0  0  0  0  0  0
    6.2594   -4.2881    2.0693 O   0  0  0  0  0  0  0  0  0  0  0  0
    2.9418  -10.2559    2.3506 H   0  0  0  0  0  0  0  0  0  0  0  0
    1.7528   -9.0322    1.9301 H   0  0  0  0  0  0  0  0  0  0  0  0
    2.6506   -8.8986    3.4422 H   0  0  0  0  0  0  0  0  0  0  0  0
    4.9948   -8.6559    3.3717 H   0  0  0  0  0  0  0  0  0  0  0  0
    5.5324   -9.5566    1.9486 H   0  0  0  0  0  0  0  0  0  0  0  0
    6.6624   -7.1283    2.5924 H   0  0  0  0  0  0  0  0  0  0  0  0
    6.3372   -7.5263    0.9016 H   0  0  0  0  0  0  0  0  0  0  0  0
    5.5000   -5.3614    3.5051 H   0  0  0  0  0  0  0  0  0  0  0  0
    3.4047   -4.6578    3.8739 H   0  0  0  0  0  0  0  0  0  0  0  0
    2.4937   -2.6688    3.2849 H   0  0  0  0  0  0  0  0  0  0  0  0
    3.0786   -1.0663    1.8054 H   0  0  0  0  0  0  0  0  0  0  0  0
    5.6164   -2.2130    1.6528 H   0  0  0  0  0  0  0  0  0  0  0  0
    2.3192   -2.5572    0.0851 H   0  0  0  0  0  0  0  0  0  0  0  0
    3.0134   -1.0565   -1.5054 H   0  0  0  0  0  0  0  0  0  0  0  0
    4.4306   -0.6591   -0.5962 H   0  0  0  0  0  0  0  0  0  0  0  0
    4.1731   -2.9152   -2.6519 H   0  0  0  0  0  0  0  0  0  0  0  0
    5.2028   -1.4938   -2.7427 H   0  0  0  0  0  0  0  0  0  0  0  0
    7.4868   -2.3886   -2.6063 H   0  0  0  0  0  0  0  0  0  0  0  0
    9.2427   -3.3263   -1.1275 H   0  0  0  0  0  0  0  0  0  0  0  0
    8.4840   -4.5995    2.1086 H   0  0  0  0  0  0  0  0  0  0  0  0
    2.2416   -4.8809    0.3663 H   0  0  0  0  0  0  0  0  0  0  0  0
    4.2414   -6.7731   -0.3770 H   0  0  0  0  0  0  0  0  0  0  0  0
    2.7131   -6.5761    2.3294 H   0  0  0  0  0  0  0  0  0  0  0  0
  1  2  1  0
  1 26  1  0
  1 27  1  0
  1 28  1  0
  2 24  1  0
  2  3  1  0
  3  4  1  0
  3 29  1  0
  3 30  1  0
  5  4  1  6
  4 31  1  0
  4 32  1  0
  5 23  1  0
  5 24  1  0
  5  6  1  0
  6 25  1  0
  6  7  1  0
  6 33  1  1
  7  8  2  3
  7 34  1  0
  8  9  1  0
  8 35  1  0
  9 10  1  0
  9 11  1  0
  9 36  1  1
 10 37  1  0
 11 21  1  0
 11 12  1  0
 11 38  1  1
 12 13  1  0
 12 39  1  0
 12 40  1  0
 13 14  1  0
 13 41  1  0
 13 42  1  0
 14 20  2  0
 14 15  1  0
 15 16  2  0
 15 43  1  0
 16 17  1  0
 16 44  1  0
 17 18  1  0
 17 19  2  0
 18 45  1  0
 19 20  1  0
 19 25  1  0
 20 21  1  0
 21 22  2  3
 22 23  1  0
 22 46  1  0
 23 24  1  0
 23 47  1  6
 24 48  1  1
M  END
>  <i_m_ct_stereo_status>  (185) 
1

>  <s_m_source_file>  (185) 
/var/tmp/pbs.5076255.sched01/tmpniar21pp/41tndis9zi.sdf

>  <i_m_source_file_index>  (185) 
39

>  <i_lp_mmshare_version>  (185) 
48012

>  <i_f3d_flags>  (185) 
0

>  <s_epik_input>  (185) 
W0NIMl0xW0NIMl1OKFtDSDNdKVtDQEBIXTJbQ0BIXTNcW0NIXT1DKFxbQ0BIXTRbQ0BIXShbT0hdKS9bQ0hdPVtDSF1cW0NASF01W0NAQF0xMjMpYzZjKFtDSDJdW0NIMl00KVtjSF1bY0hdYyhbT0hdKWM2TzU=

>  <s_epik_cmdline>  (185) 
J2VwaWtfcHl0aG9uJywgJy1waHQnLCAnMi4wJywgJy1waCcsICc3LjAnLCAnLXRuJywgJzgnLCAnLW1hJywgJzIwMCcsICctaW1hZScsICc8aW5maWxlLm1hZT4nLCAnLW9tYWUnLCAnPG91dGZpbGUubWFlPic=

>  <r_epik_Ionization_Penalty>  (185) 
2.48197

>  <r_epik_Ionization_Penalty_Charging>  (185) 
0

>  <r_epik_Ionization_Penalty_Neutral>  (185) 
2.48197

>  <r_epik_State_Penalty>  (185) 
2.64544

>  <r_epik_Charging_Adjusted_Penalty>  (185) 
2.64544

>  <i_epik_Tot_Q>  (185) 
0

>  <i_epik_Tot_abs_Q>  (185) 
0

>  <s_lp_Force_Field>  (185) 
OPLS3e

>  <r_lp_Energy>  (185) 
72.0707

>  <b_lp_Chiralities_Consistent>  (185) 
1

>  <s_lp_Variant>  (185) 
55:0-5

>  <s_i_glide_gridfile>  (185) 
pfpi4k_grid

>  <i_i_glide_lignum>  (185) 
39

>  <i_i_glide_rotatable_bonds>  (185) 
2

>  <r_i_docking_score>  (185) 
-3.37943

>  <r_i_glide_ligand_efficiency>  (185) 
-0.135177

>  <r_i_glide_ligand_efficiency_sa>  (185) 
-0.39526

>  <r_i_glide_ligand_efficiency_ln>  (185) 
-0.801025

>  <r_i_glide_gscore>  (185) 
-3.37943

>  <r_i_glide_lipo>  (185) 
-0.747069

>  <r_i_glide_hbond>  (185) 
0

>  <r_i_glide_metal>  (185) 
-0

>  <r_i_glide_rewards>  (185) 
-1.10855

>  <r_i_glide_evdw>  (185) 
-23.3439

>  <r_i_glide_ecoul>  (185) 
-2.37741

>  <r_i_glide_erotb>  (185) 
0

>  <r_i_glide_esite>  (185) 
0

>  <r_i_glide_emodel>  (185) 
-31.2465

>  <r_i_glide_energy>  (185) 
-25.7213

>  <r_i_glide_einternal>  (185) 
0.00220744

>  <r_i_glide_intrahb_reward>  (185) 
-0

>  <i_i_glide_confnum>  (185) 
1

>  <i_i_glide_posenum>  (185) 
16

>  <r_i_glide_eff_state_penalty>  (185) 
0

>  <ligand_id>  (185) 
55

>  <original_smiles>  (185) 
CN1CCC23C4C=CC(O)C5CCc6ccc(O)c(c6C5=CC2C13)O4

>  <smiles>  (185) 
[H]Oc1c([H])c([H])c2c3c1OC1([H])C([H])=C([H])C([H])(O[H])C([H])(C3=C([H])C3([H])C4([H])N(C([H])([H])[H])C([H])([H])C([H])([H])C134)C([H])([H])C2([H])[H]

$$$$
55:4:2
     RDKit          3D

 48 53  0  0  1  0  0  0  0  0999 V2000
    0.1748   -7.4476    1.9042 C   0  0  0  0  0  0  0  0  0  0  0  0
    1.5091   -7.1278    1.4222 N   0  0  0  0  0  0  0  0  0  0  0  0
    2.5420   -7.9005    2.1159 C   0  0  0  0  0  0  0  0  0  0  0  0
    3.8293   -7.0704    1.9744 C   0  0  0  0  0  0  0  0  0  0  0  0
    3.3530   -5.6401    1.8746 C   0  0  1  0  0  0  0  0  0  0  0  0
    3.9977   -4.6550    2.8785 C   0  0  2  0  0  0  0  0  0  0  0  0
    3.1641   -3.4375    3.3632 C   0  0  0  0  0  0  0  0  0  0  0  0
    3.1979   -2.0965    3.1205 C   0  0  0  0  0  0  0  0  0  0  0  0
    4.0841   -1.2252    2.2183 C   0  0  1  0  0  0  0  0  0  0  0  0
    5.4345   -1.3701    2.6002 O   0  0  0  0  0  0  0  0  0  0  0  0
    3.8374   -1.4337    0.6889 C   0  0  1  0  0  0  0  0  0  0  0  0
    4.8163   -0.6978   -0.2810 C   0  0  0  0  0  0  0  0  0  0  0  0
    5.4840   -1.6463   -1.3227 C   0  0  0  0  0  0  0  0  0  0  0  0
    6.0653   -2.8530   -0.5915 C   0  0  0  0  0  0  0  0  0  0  0  0
    7.3934   -3.2766   -0.7885 C   0  0  0  0  0  0  0  0  0  0  0  0
    7.9492   -4.2262    0.0881 C   0  0  0  0  0  0  0  0  0  0  0  0
    7.2365   -4.6741    1.2174 C   0  0  0  0  0  0  0  0  0  0  0  0
    7.8192   -5.5008    2.1359 O   0  0  0  0  0  0  0  0  0  0  0  0
    5.9137   -4.2097    1.3689 C   0  0  0  0  0  0  0  0  0  0  0  0
    5.2441   -3.4265    0.3977 C   0  0  0  0  0  0  0  0  0  0  0  0
    3.8839   -2.9144    0.4436 C   0  0  0  0  0  0  0  0  0  0  0  0
    2.7738   -3.6621    0.3889 C   0  0  0  0  0  0  0  0  0  0  0  0
    2.7595   -5.1177    0.5806 C   0  0  2  0  0  0  0  0  0  0  0  0
    1.8740   -5.7349    1.6290 C   0  0  1  0  0  0  0  0  0  0  0  0
    5.3847   -4.4370    2.6269 O   0  0  0  0  0  0  0  0  0  0  0  0
   -0.0455   -8.5020    1.7350 H   0  0  0  0  0  0  0  0  0  0  0  0
   -0.5696   -6.8695    1.3597 H   0  0  0  0  0  0  0  0  0  0  0  0
    0.0653   -7.2426    2.9696 H   0  0  0  0  0  0  0  0  0  0  0  0
    2.2936   -7.9845    3.1752 H   0  0  0  0  0  0  0  0  0  0  0  0
    2.6351   -8.9117    1.7089 H   0  0  0  0  0  0  0  0  0  0  0  0
    4.5312   -7.2322    2.7968 H   0  0  0  0  0  0  0  0  0  0  0  0
    4.3331   -7.3198    1.0427 H   0  0  0  0  0  0  0  0  0  0  0  0
    4.0516   -5.2195    3.8083 H   0  0  0  0  0  0  0  0  0  0  0  0
    2.3816   -3.7406    4.0419 H   0  0  0  0  0  0  0  0  0  0  0  0
    2.4448   -1.5147    3.6292 H   0  0  0  0  0  0  0  0  0  0  0  0
    3.8407   -0.1892    2.4554 H   0  0  0  0  0  0  0  0  0  0  0  0
    5.7038   -2.2576    2.4051 H   0  0  0  0  0  0  0  0  0  0  0  0
    2.8244   -1.0864    0.4781 H   0  0  0  0  0  0  0  0  0  0  0  0
    4.2926    0.1031   -0.7990 H   0  0  0  0  0  0  0  0  0  0  0  0
    5.6031   -0.2053    0.2955 H   0  0  0  0  0  0  0  0  0  0  0  0
    4.7525   -1.9865   -2.0576 H   0  0  0  0  0  0  0  0  0  0  0  0
    6.2359   -1.1078   -1.8855 H   0  0  0  0  0  0  0  0  0  0  0  0
    7.9950   -2.8734   -1.5901 H   0  0  0  0  0  0  0  0  0  0  0  0
    8.9592   -4.5659   -0.0786 H   0  0  0  0  0  0  0  0  0  0  0  0
    8.6875   -5.7893    1.9048 H   0  0  0  0  0  0  0  0  0  0  0  0
    1.8210   -3.1589    0.4216 H   0  0  0  0  0  0  0  0  0  0  0  0
    2.9485   -5.6719   -0.3285 H   0  0  0  0  0  0  0  0  0  0  0  0
    1.2396   -5.0623    2.2008 H   0  0  0  0  0  0  0  0  0  0  0  0
  1  2  1  0
  1 26  1  0
  1 27  1  0
  1 28  1  0
  2 24  1  0
  2  3  1  0
  3  4  1  0
  3 29  1  0
  3 30  1  0
  5  4  1  6
  4 31  1  0
  4 32  1  0
  5 23  1  0
  5 24  1  0
  5  6  1  0
  6 25  1  0
  6  7  1  0
  6 33  1  1
  7  8  2  3
  7 34  1  0
  8  9  1  0
  8 35  1  0
  9 10  1  0
  9 11  1  0
  9 36  1  1
 10 37  1  0
 11 21  1  0
 11 12  1  0
 11 38  1  6
 12 13  1  0
 12 39  1  0
 12 40  1  0
 13 14  1  0
 13 41  1  0
 13 42  1  0
 14 20  2  0
 14 15  1  0
 15 16  2  0
 15 43  1  0
 16 17  1  0
 16 44  1  0
 17 18  1  0
 17 19  2  0
 18 45  1  0
 19 20  1  0
 19 25  1  0
 20 21  1  0
 21 22  2  3
 22 23  1  0
 22 46  1  0
 23 24  1  0
 23 47  1  6
 24 48  1  1
M  END
>  <i_m_ct_stereo_status>  (186) 
1

>  <s_m_source_file>  (186) 
/var/tmp/pbs.5076255.sched01/tmpniar21pp/41tndis9zi.sdf

>  <i_m_source_file_index>  (186) 
39

>  <i_lp_mmshare_version>  (186) 
48012

>  <i_f3d_flags>  (186) 
0

>  <s_epik_input>  (186) 
W0NIMl0xW0NIMl1OKFtDSDNdKVtDQEBIXTJbQ0BIXTNcW0NIXT1DKFxbQ0BIXTRbQ0BIXShbT0hdKS9bQ0hdPVtDSF1cW0NASF01W0NAQF0xMjMpYzZjKFtDSDJdW0NIMl00KVtjSF1bY0hdYyhbT0hdKWM2TzU=

>  <s_epik_cmdline>  (186) 
J2VwaWtfcHl0aG9uJywgJy1waHQnLCAnMi4wJywgJy1waCcsICc3LjAnLCAnLXRuJywgJzgnLCAnLW1hJywgJzIwMCcsICctaW1hZScsICc8aW5maWxlLm1hZT4nLCAnLW9tYWUnLCAnPG91dGZpbGUubWFlPic=

>  <r_epik_Ionization_Penalty>  (186) 
2.48197

>  <r_epik_Ionization_Penalty_Charging>  (186) 
0

>  <r_epik_Ionization_Penalty_Neutral>  (186) 
2.48197

>  <r_epik_State_Penalty>  (186) 
2.64544

>  <r_epik_Charging_Adjusted_Penalty>  (186) 
2.64544

>  <i_epik_Tot_Q>  (186) 
0

>  <i_epik_Tot_abs_Q>  (186) 
0

>  <s_lp_Force_Field>  (186) 
OPLS3e

>  <r_lp_Energy>  (186) 
72.0707

>  <b_lp_Chiralities_Consistent>  (186) 
1

>  <s_lp_Variant>  (186) 
55:0-5

>  <s_i_glide_gridfile>  (186) 
pfpi4k_grid

>  <i_i_glide_lignum>  (186) 
39

>  <i_i_glide_rotatable_bonds>  (186) 
2

>  <r_i_docking_score>  (186) 
-2.94481

>  <r_i_glide_ligand_efficiency>  (186) 
-0.117792

>  <r_i_glide_ligand_efficiency_sa>  (186) 
-0.344427

>  <r_i_glide_ligand_efficiency_ln>  (186) 
-0.698009

>  <r_i_glide_gscore>  (186) 
-2.94481

>  <r_i_glide_lipo>  (186) 
-0.561005

>  <r_i_glide_hbond>  (186) 
0

>  <r_i_glide_metal>  (186) 
-0

>  <r_i_glide_rewards>  (186) 
-1.10855

>  <r_i_glide_evdw>  (186) 
-22.1364

>  <r_i_glide_ecoul>  (186) 
-1.12288

>  <r_i_glide_erotb>  (186) 
0

>  <r_i_glide_esite>  (186) 
0

>  <r_i_glide_emodel>  (186) 
-28.0086

>  <r_i_glide_energy>  (186) 
-23.2593

>  <r_i_glide_einternal>  (186) 
0.0264193

>  <r_i_glide_intrahb_reward>  (186) 
-0

>  <i_i_glide_confnum>  (186) 
2

>  <i_i_glide_posenum>  (186) 
27

>  <r_i_glide_eff_state_penalty>  (186) 
0

>  <ligand_id>  (186) 
55

>  <original_smiles>  (186) 
CN1CCC23C4C=CC(O)C5CCc6ccc(O)c(c6C5=CC2C13)O4

>  <smiles>  (186) 
[H]Oc1c([H])c([H])c2c3c1OC1([H])C([H])=C([H])C([H])(O[H])C([H])(C3=C([H])C3([H])C4([H])N(C([H])([H])[H])C([H])([H])C([H])([H])C134)C([H])([H])C2([H])[H]

$$$$
55:5:0
     RDKit          3D

 48 53  0  0  1  0  0  0  0  0999 V2000
    8.1750   -6.9323    1.4083 C   0  0  0  0  0  0  0  0  0  0  0  0
    6.7287   -7.0343    1.2813 N   0  0  0  0  0  0  0  0  0  0  0  0
    6.0819   -5.7301    1.1527 C   0  0  0  0  0  0  0  0  0  0  0  0
    4.6383   -5.9632    1.6271 C   0  0  0  0  0  0  0  0  0  0  0  0
    4.7255   -7.1018    2.6185 C   0  0  1  0  0  0  0  0  0  0  0  0
    4.0568   -6.8058    3.9821 C   0  0  2  0  0  0  0  0  0  0  0  0
    4.4390   -7.7096    5.1703 C   0  0  0  0  0  0  0  0  0  0  0  0
    3.5309   -8.3923    5.9021 C   0  0  0  0  0  0  0  0  0  0  0  0
    3.7022   -9.8878    6.1694 C   0  0  1  0  0  0  0  0  0  0  0  0
    3.0159  -10.2546    7.3573 O   0  0  0  0  0  0  0  0  0  0  0  0
    3.3162  -10.7453    4.8922 C   0  0  1  0  0  0  0  0  0  0  0  0
    1.9472  -11.4872    4.9297 C   0  0  0  0  0  0  0  0  0  0  0  0
    1.2182  -11.4766    3.5651 C   0  0  0  0  0  0  0  0  0  0  0  0
    1.0506  -10.0277    3.1279 C   0  0  0  0  0  0  0  0  0  0  0  0
   -0.2036   -9.5595    2.6996 C   0  0  0  0  0  0  0  0  0  0  0  0
   -0.4043   -8.1876    2.4890 C   0  0  0  0  0  0  0  0  0  0  0  0
    0.6098   -7.2605    2.8041 C   0  0  0  0  0  0  0  0  0  0  0  0
    0.3920   -5.9155    2.7164 O   0  0  0  0  0  0  0  0  0  0  0  0
    1.8529   -7.7693    3.2421 C   0  0  0  0  0  0  0  0  0  0  0  0
    2.1632   -9.1674    3.2914 C   0  0  0  0  0  0  0  0  0  0  0  0
    3.4202   -9.8774    3.6319 C   0  0  0  0  0  0  0  0  0  0  0  0
    4.6053   -9.6687    3.0334 C   0  0  0  0  0  0  0  0  0  0  0  0
    4.8948   -8.5397    2.1290 C   0  0  2  0  0  0  0  0  0  0  0  0
    6.1004   -7.6742    2.4221 C   0  0  1  0  0  0  0  0  0  0  0  0
    2.6507   -6.7279    3.7202 O   0  0  0  0  0  0  0  0  0  0  0  0
    8.6048   -6.4592    0.5267 H   0  0  0  0  0  0  0  0  0  0  0  0
    8.6045   -7.9284    1.4849 H   0  0  0  0  0  0  0  0  0  0  0  0
    8.4730   -6.3612    2.2873 H   0  0  0  0  0  0  0  0  0  0  0  0
    6.5707   -5.0170    1.8166 H   0  0  0  0  0  0  0  0  0  0  0  0
    6.1429   -5.3521    0.1291 H   0  0  0  0  0  0  0  0  0  0  0  0
    4.1932   -5.0609    2.0544 H   0  0  0  0  0  0  0  0  0  0  0  0
    4.0193   -6.2955    0.7960 H   0  0  0  0  0  0  0  0  0  0  0  0
    4.3840   -5.8087    4.2793 H   0  0  0  0  0  0  0  0  0  0  0  0
    5.4390   -8.1136    5.1018 H   0  0  0  0  0  0  0  0  0  0  0  0
    2.5005   -8.0759    5.8830 H   0  0  0  0  0  0  0  0  0  0  0  0
    4.7616  -10.0560    6.3645 H   0  0  0  0  0  0  0  0  0  0  0  0
    2.5251  -11.0672    7.2501 H   0  0  0  0  0  0  0  0  0  0  0  0
    4.0828  -11.5167    4.7901 H   0  0  0  0  0  0  0  0  0  0  0  0
    2.0951  -12.5123    5.2768 H   0  0  0  0  0  0  0  0  0  0  0  0
    1.2760  -11.0141    5.6492 H   0  0  0  0  0  0  0  0  0  0  0  0
    1.8031  -12.0322    2.8307 H   0  0  0  0  0  0  0  0  0  0  0  0
    0.2505  -11.9743    3.6563 H   0  0  0  0  0  0  0  0  0  0  0  0
   -1.0171  -10.2552    2.5464 H   0  0  0  0  0  0  0  0  0  0  0  0
   -1.3727   -7.8500    2.1431 H   0  0  0  0  0  0  0  0  0  0  0  0
    1.1336   -5.4402    3.0635 H   0  0  0  0  0  0  0  0  0  0  0  0
    5.4735  -10.2289    3.3594 H   0  0  0  0  0  0  0  0  0  0  0  0
    4.6600   -8.7633    1.0887 H   0  0  0  0  0  0  0  0  0  0  0  0
    6.6774   -7.9258    3.3150 H   0  0  0  0  0  0  0  0  0  0  0  0
  1  2  1  0
  1 26  1  0
  1 27  1  0
  1 28  1  0
  2 24  1  0
  2  3  1  0
  3  4  1  0
  3 29  1  0
  3 30  1  0
  5  4  1  6
  4 31  1  0
  4 32  1  0
  5 23  1  0
  5 24  1  0
  5  6  1  0
  6 25  1  0
  6  7  1  0
  6 33  1  1
  7  8  2  3
  7 34  1  0
  8  9  1  0
  8 35  1  0
  9 10  1  0
  9 11  1  0
  9 36  1  1
 10 37  1  0
 11 21  1  0
 11 12  1  0
 11 38  1  6
 12 13  1  0
 12 39  1  0
 12 40  1  0
 13 14  1  0
 13 41  1  0
 13 42  1  0
 14 20  2  0
 14 15  1  0
 15 16  2  0
 15 43  1  0
 16 17  1  0
 16 44  1  0
 17 18  1  0
 17 19  2  0
 18 45  1  0
 19 20  1  0
 19 25  1  0
 20 21  1  0
 21 22  2  3
 22 23  1  0
 22 46  1  0
 23 24  1  0
 23 47  1  6
 24 48  1  1
M  END
>  <i_m_ct_stereo_status>  (187) 
1

>  <s_m_source_file>  (187) 
/var/tmp/pbs.5076255.sched01/tmpniar21pp/41tndis9zi.sdf

>  <i_m_source_file_index>  (187) 
40

>  <i_lp_mmshare_version>  (187) 
48012

>  <i_f3d_flags>  (187) 
0

>  <s_epik_input>  (187) 
W0NIMl0xW0NIMl1OKFtDSDNdKVtDQEBIXTJbQ0BIXTNcW0NIXT1DKFxbQ0BIXTRbQ0BIXShbT0hdKS9bQ0hdPVtDSF1cW0NASF01W0NAQF0xMjMpYzZjKFtDSDJdW0NIMl00KVtjSF1bY0hdYyhbT0hdKWM2TzU=

>  <s_epik_cmdline>  (187) 
J2VwaWtfcHl0aG9uJywgJy1waHQnLCAnMi4wJywgJy1waCcsICc3LjAnLCAnLXRuJywgJzgnLCAnLW1hJywgJzIwMCcsICctaW1hZScsICc8aW5maWxlLm1hZT4nLCAnLW9tYWUnLCAnPG91dGZpbGUubWFlPic=

>  <r_epik_Ionization_Penalty>  (187) 
2.48197

>  <r_epik_Ionization_Penalty_Charging>  (187) 
0

>  <r_epik_Ionization_Penalty_Neutral>  (187) 
2.48197

>  <r_epik_State_Penalty>  (187) 
2.64544

>  <r_epik_Charging_Adjusted_Penalty>  (187) 
2.64544

>  <i_epik_Tot_Q>  (187) 
0

>  <i_epik_Tot_abs_Q>  (187) 
0

>  <s_lp_Force_Field>  (187) 
OPLS3e

>  <r_lp_Energy>  (187) 
82.4142

>  <b_lp_Chiralities_Consistent>  (187) 
1

>  <s_lp_Variant>  (187) 
55:0-6

>  <s_i_glide_gridfile>  (187) 
pfpi4k_grid

>  <i_i_glide_lignum>  (187) 
40

>  <i_i_glide_rotatable_bonds>  (187) 
2

>  <r_i_docking_score>  (187) 
-3.59901

>  <r_i_glide_ligand_efficiency>  (187) 
-0.143961

>  <r_i_glide_ligand_efficiency_sa>  (187) 
-0.420943

>  <r_i_glide_ligand_efficiency_ln>  (187) 
-0.853074

>  <r_i_glide_gscore>  (187) 
-3.59901

>  <r_i_glide_lipo>  (187) 
-0.436358

>  <r_i_glide_hbond>  (187) 
-0.16

>  <r_i_glide_metal>  (187) 
-0

>  <r_i_glide_rewards>  (187) 
-1.10855

>  <r_i_glide_evdw>  (187) 
-18.116

>  <r_i_glide_ecoul>  (187) 
-6.58867

>  <r_i_glide_erotb>  (187) 
0

>  <r_i_glide_esite>  (187) 
0

>  <r_i_glide_emodel>  (187) 
-30.6925

>  <r_i_glide_energy>  (187) 
-24.7047

>  <r_i_glide_einternal>  (187) 
1.05284

>  <r_i_glide_intrahb_reward>  (187) 
-0

>  <i_i_glide_confnum>  (187) 
2

>  <i_i_glide_posenum>  (187) 
1

>  <r_i_glide_eff_state_penalty>  (187) 
0

>  <ligand_id>  (187) 
55

>  <original_smiles>  (187) 
CN1CCC23C4C=CC(O)C5CCc6ccc(O)c(c6C5=CC2C13)O4

>  <smiles>  (187) 
[H]Oc1c([H])c([H])c2c3c1OC1([H])C([H])=C([H])C([H])(O[H])C([H])(C3=C([H])C3([H])C4([H])N(C([H])([H])[H])C([H])([H])C([H])([H])C134)C([H])([H])C2([H])[H]

$$$$
55:5:1
     RDKit          3D

 48 53  0  0  1  0  0  0  0  0999 V2000
    7.9298   -7.4562    1.5563 C   0  0  0  0  0  0  0  0  0  0  0  0
    6.7653   -6.9101    2.2366 N   0  0  0  0  0  0  0  0  0  0  0  0
    7.1037   -6.4305    3.5735 C   0  0  0  0  0  0  0  0  0  0  0  0
    5.7817   -6.4611    4.3569 C   0  0  0  0  0  0  0  0  0  0  0  0
    4.9917   -7.5890    3.7320 C   0  0  1  0  0  0  0  0  0  0  0  0
    4.4553   -8.6259    4.7524 C   0  0  2  0  0  0  0  0  0  0  0  0
    4.0103   -9.9940    4.2076 C   0  0  0  0  0  0  0  0  0  0  0  0
    2.7807  -10.5102    4.4149 C   0  0  0  0  0  0  0  0  0  0  0  0
    1.9577  -11.0170    3.2293 C   0  0  1  0  0  0  0  0  0  0  0  0
    0.9873  -11.9383    3.6548 O   0  0  0  0  0  0  0  0  0  0  0  0
    1.3041   -9.8295    2.4159 C   0  0  1  0  0  0  0  0  0  0  0  0
   -0.2244   -9.5702    2.6266 C   0  0  0  0  0  0  0  0  0  0  0  0
   -0.5697   -8.0595    2.6237 C   0  0  0  0  0  0  0  0  0  0  0  0
    0.2703   -7.3781    3.6976 C   0  0  0  0  0  0  0  0  0  0  0  0
   -0.3409   -6.5221    4.6333 C   0  0  0  0  0  0  0  0  0  0  0  0
    0.3911   -6.0670    5.7413 C   0  0  0  0  0  0  0  0  0  0  0  0
    1.6959   -6.5397    5.9870 C   0  0  0  0  0  0  0  0  0  0  0  0
    2.3594   -6.2008    7.1284 O   0  0  0  0  0  0  0  0  0  0  0  0
    2.2716   -7.4039    5.0265 C   0  0  0  0  0  0  0  0  0  0  0  0
    1.6351   -7.7441    3.7890 C   0  0  0  0  0  0  0  0  0  0  0  0
    2.1097   -8.5526    2.6423 C   0  0  0  0  0  0  0  0  0  0  0  0
    3.2428   -8.3207    1.9528 C   0  0  0  0  0  0  0  0  0  0  0  0
    4.2997   -7.3898    2.3834 C   0  0  2  0  0  0  0  0  0  0  0  0
    5.7194   -7.8998    2.4515 C   0  0  1  0  0  0  0  0  0  0  0  0
    3.4614   -7.9391    5.5209 O   0  0  0  0  0  0  0  0  0  0  0  0
    8.6908   -6.6903    1.4254 H   0  0  0  0  0  0  0  0  0  0  0  0
    7.6667   -7.8246    0.5691 H   0  0  0  0  0  0  0  0  0  0  0  0
    8.3748   -8.2752    2.1145 H   0  0  0  0  0  0  0  0  0  0  0  0
    7.8205   -7.1030    4.0492 H   0  0  0  0  0  0  0  0  0  0  0  0
    7.5579   -5.4422    3.5305 H   0  0  0  0  0  0  0  0  0  0  0  0
    5.9353   -6.5947    5.4317 H   0  0  0  0  0  0  0  0  0  0  0  0
    5.2268   -5.5364    4.2030 H   0  0  0  0  0  0  0  0  0  0  0  0
    5.2799   -8.8564    5.4267 H   0  0  0  0  0  0  0  0  0  0  0  0
    4.5331  -10.2938    3.3085 H   0  0  0  0  0  0  0  0  0  0  0  0
    2.1812  -10.1382    5.2320 H   0  0  0  0  0  0  0  0  0  0  0  0
    2.6332  -11.5600    2.5651 H   0  0  0  0  0  0  0  0  0  0  0  0
    1.3848  -12.8045    3.6781 H   0  0  0  0  0  0  0  0  0  0  0  0
    1.4407  -10.0784    1.3665 H   0  0  0  0  0  0  0  0  0  0  0  0
   -0.8089  -10.1056    1.8752 H   0  0  0  0  0  0  0  0  0  0  0  0
   -0.5530   -9.9713    3.5884 H   0  0  0  0  0  0  0  0  0  0  0  0
   -0.3515   -7.6216    1.6467 H   0  0  0  0  0  0  0  0  0  0  0  0
   -1.6359   -7.9203    2.8136 H   0  0  0  0  0  0  0  0  0  0  0  0
   -1.3811   -6.2569    4.5161 H   0  0  0  0  0  0  0  0  0  0  0  0
   -0.0821   -5.4040    6.4535 H   0  0  0  0  0  0  0  0  0  0  0  0
    3.1936   -6.6420    7.1798 H   0  0  0  0  0  0  0  0  0  0  0  0
    3.5115   -8.9841    1.1400 H   0  0  0  0  0  0  0  0  0  0  0  0
    4.1380   -6.3720    2.0323 H   0  0  0  0  0  0  0  0  0  0  0  0
    5.8813   -8.9469    2.2112 H   0  0  0  0  0  0  0  0  0  0  0  0
  1  2  1  0
  1 26  1  0
  1 27  1  0
  1 28  1  0
  2 24  1  0
  2  3  1  0
  3  4  1  0
  3 29  1  0
  3 30  1  0
  5  4  1  1
  4 31  1  0
  4 32  1  0
  5 23  1  0
  5 24  1  0
  5  6  1  0
  6 25  1  0
  6  7  1  0
  6 33  1  1
  7  8  2  3
  7 34  1  0
  8  9  1  0
  8 35  1  0
  9 10  1  0
  9 11  1  0
  9 36  1  6
 10 37  1  0
 11 21  1  0
 11 12  1  0
 11 38  1  6
 12 13  1  0
 12 39  1  0
 12 40  1  0
 13 14  1  0
 13 41  1  0
 13 42  1  0
 14 20  2  0
 14 15  1  0
 15 16  2  0
 15 43  1  0
 16 17  1  0
 16 44  1  0
 17 18  1  0
 17 19  2  0
 18 45  1  0
 19 20  1  0
 19 25  1  0
 20 21  1  0
 21 22  2  3
 22 23  1  0
 22 46  1  0
 23 24  1  0
 23 47  1  6
 24 48  1  1
M  END
>  <i_m_ct_stereo_status>  (188) 
1

>  <s_m_source_file>  (188) 
/var/tmp/pbs.5076255.sched01/tmpniar21pp/41tndis9zi.sdf

>  <i_m_source_file_index>  (188) 
40

>  <i_lp_mmshare_version>  (188) 
48012

>  <i_f3d_flags>  (188) 
0

>  <s_epik_input>  (188) 
W0NIMl0xW0NIMl1OKFtDSDNdKVtDQEBIXTJbQ0BIXTNcW0NIXT1DKFxbQ0BIXTRbQ0BIXShbT0hdKS9bQ0hdPVtDSF1cW0NASF01W0NAQF0xMjMpYzZjKFtDSDJdW0NIMl00KVtjSF1bY0hdYyhbT0hdKWM2TzU=

>  <s_epik_cmdline>  (188) 
J2VwaWtfcHl0aG9uJywgJy1waHQnLCAnMi4wJywgJy1waCcsICc3LjAnLCAnLXRuJywgJzgnLCAnLW1hJywgJzIwMCcsICctaW1hZScsICc8aW5maWxlLm1hZT4nLCAnLW9tYWUnLCAnPG91dGZpbGUubWFlPic=

>  <r_epik_Ionization_Penalty>  (188) 
2.48197

>  <r_epik_Ionization_Penalty_Charging>  (188) 
0

>  <r_epik_Ionization_Penalty_Neutral>  (188) 
2.48197

>  <r_epik_State_Penalty>  (188) 
2.64544

>  <r_epik_Charging_Adjusted_Penalty>  (188) 
2.64544

>  <i_epik_Tot_Q>  (188) 
0

>  <i_epik_Tot_abs_Q>  (188) 
0

>  <s_lp_Force_Field>  (188) 
OPLS3e

>  <r_lp_Energy>  (188) 
82.4142

>  <b_lp_Chiralities_Consistent>  (188) 
1

>  <s_lp_Variant>  (188) 
55:0-6

>  <s_i_glide_gridfile>  (188) 
pfpi4k_grid

>  <i_i_glide_lignum>  (188) 
40

>  <i_i_glide_rotatable_bonds>  (188) 
2

>  <r_i_docking_score>  (188) 
-3.17262

>  <r_i_glide_ligand_efficiency>  (188) 
-0.126905

>  <r_i_glide_ligand_efficiency_sa>  (188) 
-0.371071

>  <r_i_glide_ligand_efficiency_ln>  (188) 
-0.752005

>  <r_i_glide_gscore>  (188) 
-3.17262

>  <r_i_glide_lipo>  (188) 
-0.252888

>  <r_i_glide_hbond>  (188) 
-0.32

>  <r_i_glide_metal>  (188) 
-0

>  <r_i_glide_rewards>  (188) 
-1.10855

>  <r_i_glide_evdw>  (188) 
-18.5579

>  <r_i_glide_ecoul>  (188) 
-3.75522

>  <r_i_glide_erotb>  (188) 
0

>  <r_i_glide_esite>  (188) 
0

>  <r_i_glide_emodel>  (188) 
-27.6193

>  <r_i_glide_energy>  (188) 
-22.3131

>  <r_i_glide_einternal>  (188) 
0.684629

>  <r_i_glide_intrahb_reward>  (188) 
-0

>  <i_i_glide_confnum>  (188) 
1

>  <i_i_glide_posenum>  (188) 
12

>  <r_i_glide_eff_state_penalty>  (188) 
0

>  <ligand_id>  (188) 
55

>  <original_smiles>  (188) 
CN1CCC23C4C=CC(O)C5CCc6ccc(O)c(c6C5=CC2C13)O4

>  <smiles>  (188) 
[H]Oc1c([H])c([H])c2c3c1OC1([H])C([H])=C([H])C([H])(O[H])C([H])(C3=C([H])C3([H])C4([H])N(C([H])([H])[H])C([H])([H])C([H])([H])C134)C([H])([H])C2([H])[H]

$$$$
55:5:2
     RDKit          3D

 48 53  0  0  1  0  0  0  0  0999 V2000
   -0.0508   -9.3598    6.6154 C   0  0  0  0  0  0  0  0  0  0  0  0
    0.3023   -8.2887    5.6909 N   0  0  0  0  0  0  0  0  0  0  0  0
   -0.7448   -8.0521    4.6973 C   0  0  0  0  0  0  0  0  0  0  0  0
   -0.0191   -7.4269    3.4955 C   0  0  0  0  0  0  0  0  0  0  0  0
    1.3776   -7.9996    3.5457 C   0  0  1  0  0  0  0  0  0  0  0  0
    1.8474   -8.6339    2.2148 C   0  0  2  0  0  0  0  0  0  0  0  0
    3.0574   -9.5794    2.2634 C   0  0  0  0  0  0  0  0  0  0  0  0
    4.1686   -9.3984    1.5201 C   0  0  0  0  0  0  0  0  0  0  0  0
    5.5478   -9.4309    2.1764 C   0  0  1  0  0  0  0  0  0  0  0  0
    6.5352   -9.8067    1.2405 O   0  0  0  0  0  0  0  0  0  0  0  0
    5.8626   -8.0744    2.9360 C   0  0  1  0  0  0  0  0  0  0  0  0
    6.8430   -7.0760    2.2412 C   0  0  0  0  0  0  0  0  0  0  0  0
    6.4152   -5.5951    2.4257 C   0  0  0  0  0  0  0  0  0  0  0  0
    4.9960   -5.4398    1.8982 C   0  0  0  0  0  0  0  0  0  0  0  0
    4.6887   -4.3911    1.0126 C   0  0  0  0  0  0  0  0  0  0  0  0
    3.4495   -4.3773    0.3611 C   0  0  0  0  0  0  0  0  0  0  0  0
    2.5467   -5.4500    0.4981 C   0  0  0  0  0  0  0  0  0  0  0  0
    1.4165   -5.5019   -0.2766 O   0  0  0  0  0  0  0  0  0  0  0  0
    2.8814   -6.4753    1.4234 C   0  0  0  0  0  0  0  0  0  0  0  0
    4.0589   -6.4419    2.2416 C   0  0  0  0  0  0  0  0  0  0  0  0
    4.5457   -7.3734    3.2900 C   0  0  0  0  0  0  0  0  0  0  0  0
    3.8338   -7.7424    4.3722 C   0  0  0  0  0  0  0  0  0  0  0  0
    2.3955   -7.4685    4.5557 C   0  0  2  0  0  0  0  0  0  0  0  0
    1.4862   -8.6201    4.9095 C   0  0  1  0  0  0  0  0  0  0  0  0
    1.9887   -7.5403    1.3031 O   0  0  0  0  0  0  0  0  0  0  0  0
   -0.9490   -9.1046    7.1759 H   0  0  0  0  0  0  0  0  0  0  0  0
    0.7461   -9.5222    7.3375 H   0  0  0  0  0  0  0  0  0  0  0  0
   -0.2231  -10.3045    6.1035 H   0  0  0  0  0  0  0  0  0  0  0  0
   -1.1962   -8.9995    4.3965 H   0  0  0  0  0  0  0  0  0  0  0  0
   -1.5301   -7.4012    5.0871 H   0  0  0  0  0  0  0  0  0  0  0  0
   -0.5254   -7.6284    2.5472 H   0  0  0  0  0  0  0  0  0  0  0  0
    0.0634   -6.3495    3.6252 H   0  0  0  0  0  0  0  0  0  0  0  0
    1.0260   -9.2511    1.8509 H   0  0  0  0  0  0  0  0  0  0  0  0
    3.1563  -10.1023    3.2040 H   0  0  0  0  0  0  0  0  0  0  0  0
    4.1183   -8.7774    0.6401 H   0  0  0  0  0  0  0  0  0  0  0  0
    5.5324  -10.2339    2.9138 H   0  0  0  0  0  0  0  0  0  0  0  0
    6.2133  -10.5816    0.7987 H   0  0  0  0  0  0  0  0  0  0  0  0
    6.3221   -8.3542    3.8854 H   0  0  0  0  0  0  0  0  0  0  0  0
    7.8615   -7.2354    2.6081 H   0  0  0  0  0  0  0  0  0  0  0  0
    6.8780   -7.2730    1.1678 H   0  0  0  0  0  0  0  0  0  0  0  0
    6.4448   -5.3166    3.4803 H   0  0  0  0  0  0  0  0  0  0  0  0
    7.1048   -4.9352    1.8956 H   0  0  0  0  0  0  0  0  0  0  0  0
    5.4120   -3.6188    0.8020 H   0  0  0  0  0  0  0  0  0  0  0  0
    3.2188   -3.5723   -0.3248 H   0  0  0  0  0  0  0  0  0  0  0  0
    1.5359   -4.9963   -1.0711 H   0  0  0  0  0  0  0  0  0  0  0  0
    4.2650   -8.4424    5.0759 H   0  0  0  0  0  0  0  0  0  0  0  0
    2.2061   -6.5064    5.0262 H   0  0  0  0  0  0  0  0  0  0  0  0
    1.9367   -9.6083    4.9723 H   0  0  0  0  0  0  0  0  0  0  0  0
  1  2  1  0
  1 26  1  0
  1 27  1  0
  1 28  1  0
  2 24  1  0
  2  3  1  0
  3  4  1  0
  3 29  1  0
  3 30  1  0
  5  4  1  6
  4 31  1  0
  4 32  1  0
  5 23  1  0
  5 24  1  0
  5  6  1  0
  6 25  1  0
  6  7  1  0
  6 33  1  6
  7  8  2  3
  7 34  1  0
  8  9  1  0
  8 35  1  0
  9 10  1  0
  9 11  1  0
  9 36  1  1
 10 37  1  0
 11 21  1  0
 11 12  1  0
 11 38  1  1
 12 13  1  0
 12 39  1  0
 12 40  1  0
 13 14  1  0
 13 41  1  0
 13 42  1  0
 14 20  2  0
 14 15  1  0
 15 16  2  0
 15 43  1  0
 16 17  1  0
 16 44  1  0
 17 18  1  0
 17 19  2  0
 18 45  1  0
 19 20  1  0
 19 25  1  0
 20 21  1  0
 21 22  2  3
 22 23  1  0
 22 46  1  0
 23 24  1  0
 23 47  1  1
 24 48  1  6
M  END
>  <i_m_ct_stereo_status>  (189) 
1

>  <s_m_source_file>  (189) 
/var/tmp/pbs.5076255.sched01/tmpniar21pp/41tndis9zi.sdf

>  <i_m_source_file_index>  (189) 
40

>  <i_lp_mmshare_version>  (189) 
48012

>  <i_f3d_flags>  (189) 
0

>  <s_epik_input>  (189) 
W0NIMl0xW0NIMl1OKFtDSDNdKVtDQEBIXTJbQ0BIXTNcW0NIXT1DKFxbQ0BIXTRbQ0BIXShbT0hdKS9bQ0hdPVtDSF1cW0NASF01W0NAQF0xMjMpYzZjKFtDSDJdW0NIMl00KVtjSF1bY0hdYyhbT0hdKWM2TzU=

>  <s_epik_cmdline>  (189) 
J2VwaWtfcHl0aG9uJywgJy1waHQnLCAnMi4wJywgJy1waCcsICc3LjAnLCAnLXRuJywgJzgnLCAnLW1hJywgJzIwMCcsICctaW1hZScsICc8aW5maWxlLm1hZT4nLCAnLW9tYWUnLCAnPG91dGZpbGUubWFlPic=

>  <r_epik_Ionization_Penalty>  (189) 
2.48197

>  <r_epik_Ionization_Penalty_Charging>  (189) 
0

>  <r_epik_Ionization_Penalty_Neutral>  (189) 
2.48197

>  <r_epik_State_Penalty>  (189) 
2.64544

>  <r_epik_Charging_Adjusted_Penalty>  (189) 
2.64544

>  <i_epik_Tot_Q>  (189) 
0

>  <i_epik_Tot_abs_Q>  (189) 
0

>  <s_lp_Force_Field>  (189) 
OPLS3e

>  <r_lp_Energy>  (189) 
82.4142

>  <b_lp_Chiralities_Consistent>  (189) 
1

>  <s_lp_Variant>  (189) 
55:0-6

>  <s_i_glide_gridfile>  (189) 
pfpi4k_grid

>  <i_i_glide_lignum>  (189) 
40

>  <i_i_glide_rotatable_bonds>  (189) 
2

>  <r_i_docking_score>  (189) 
-3.17124

>  <r_i_glide_ligand_efficiency>  (189) 
-0.126849

>  <r_i_glide_ligand_efficiency_sa>  (189) 
-0.37091

>  <r_i_glide_ligand_efficiency_ln>  (189) 
-0.751678

>  <r_i_glide_gscore>  (189) 
-3.17124

>  <r_i_glide_lipo>  (189) 
-0.159297

>  <r_i_glide_hbond>  (189) 
0

>  <r_i_glide_metal>  (189) 
-0

>  <r_i_glide_rewards>  (189) 
-1.10855

>  <r_i_glide_evdw>  (189) 
-20.1309

>  <r_i_glide_ecoul>  (189) 
-5.97895

>  <r_i_glide_erotb>  (189) 
0

>  <r_i_glide_esite>  (189) 
0

>  <r_i_glide_emodel>  (189) 
-31.1172

>  <r_i_glide_energy>  (189) 
-26.1098

>  <r_i_glide_einternal>  (189) 
1.25417

>  <r_i_glide_intrahb_reward>  (189) 
-0

>  <i_i_glide_confnum>  (189) 
2

>  <i_i_glide_posenum>  (189) 
20

>  <r_i_glide_eff_state_penalty>  (189) 
0

>  <ligand_id>  (189) 
55

>  <original_smiles>  (189) 
CN1CCC23C4C=CC(O)C5CCc6ccc(O)c(c6C5=CC2C13)O4

>  <smiles>  (189) 
[H]Oc1c([H])c([H])c2c3c1OC1([H])C([H])=C([H])C([H])(O[H])C([H])(C3=C([H])C3([H])C4([H])N(C([H])([H])[H])C([H])([H])C([H])([H])C134)C([H])([H])C2([H])[H]

$$$$
55:6:0
     RDKit          3D

 48 53  0  0  1  0  0  0  0  0999 V2000
    4.3895   -0.3104   -3.0928 C   0  0  0  0  0  0  0  0  0  0  0  0
    4.0875   -1.7254   -3.1923 N   0  0  0  0  0  0  0  0  0  0  0  0
    2.6766   -1.9384   -3.4651 C   0  0  0  0  0  0  0  0  0  0  0  0
    2.3625   -3.3335   -2.9288 C   0  0  0  0  0  0  0  0  0  0  0  0
    3.2970   -3.4667   -1.7493 C   0  0  1  0  0  0  0  0  0  0  0  0
    2.6006   -3.7857   -0.3683 C   0  0  2  0  0  0  0  0  0  0  0  0
    2.8968   -2.9786    0.9132 C   0  0  0  0  0  0  0  0  0  0  0  0
    4.0197   -2.5117    1.5123 C   0  0  0  0  0  0  0  0  0  0  0  0
    5.5068   -2.5438    1.1464 C   0  0  1  0  0  0  0  0  0  0  0  0
    6.2076   -1.7578    2.0686 O   0  0  0  0  0  0  0  0  0  0  0  0
    6.1506   -3.9385    0.9998 C   0  0  1  0  0  0  0  0  0  0  0  0
    6.6556   -4.6444    2.2925 C   0  0  0  0  0  0  0  0  0  0  0  0
    6.4853   -6.1751    2.3648 C   0  0  0  0  0  0  0  0  0  0  0  0
    5.0462   -6.5061    2.0688 C   0  0  0  0  0  0  0  0  0  0  0  0
    4.2990   -7.3763    2.8755 C   0  0  0  0  0  0  0  0  0  0  0  0
    2.9272   -7.5498    2.6269 C   0  0  0  0  0  0  0  0  0  0  0  0
    2.2770   -6.8277    1.6034 C   0  0  0  0  0  0  0  0  0  0  0  0
    0.9404   -6.9965    1.3510 O   0  0  0  0  0  0  0  0  0  0  0  0
    3.0522   -5.9260    0.8483 C   0  0  0  0  0  0  0  0  0  0  0  0
    4.4597   -5.7930    1.0095 C   0  0  0  0  0  0  0  0  0  0  0  0
    5.2882   -4.8873    0.2369 C   0  0  0  0  0  0  0  0  0  0  0  0
    5.0310   -4.8665   -1.0638 C   0  0  0  0  0  0  0  0  0  0  0  0
    4.7739   -3.7808   -2.0042 C   0  0  2  0  0  0  0  0  0  0  0  0
    4.2683   -2.3557   -1.8994 C   0  0  1  0  0  0  0  0  0  0  0  0
    2.3228   -5.1775   -0.0742 O   0  0  0  0  0  0  0  0  0  0  0  0
    4.2307    0.1973   -4.0498 H   0  0  0  0  0  0  0  0  0  0  0  0
    5.4109   -0.2241   -2.7463 H   0  0  0  0  0  0  0  0  0  0  0  0
    3.8065    0.1946   -2.3332 H   0  0  0  0  0  0  0  0  0  0  0  0
    2.1635   -1.2326   -2.8224 H   0  0  0  0  0  0  0  0  0  0  0  0
    2.4115   -1.7915   -4.5157 H   0  0  0  0  0  0  0  0  0  0  0  0
    1.3094   -3.4354   -2.6628 H   0  0  0  0  0  0  0  0  0  0  0  0
    2.6023   -4.0855   -3.6794 H   0  0  0  0  0  0  0  0  0  0  0  0
    1.5912   -3.4227   -0.5508 H   0  0  0  0  0  0  0  0  0  0  0  0
    1.9927   -2.7905    1.4712 H   0  0  0  0  0  0  0  0  0  0  0  0
    3.8239   -2.0140    2.4524 H   0  0  0  0  0  0  0  0  0  0  0  0
    5.7021   -1.9998    0.2398 H   0  0  0  0  0  0  0  0  0  0  0  0
    5.8936   -1.9772    2.9349 H   0  0  0  0  0  0  0  0  0  0  0  0
    7.0259   -3.7893    0.3642 H   0  0  0  0  0  0  0  0  0  0  0  0
    7.7306   -4.5016    2.3303 H   0  0  0  0  0  0  0  0  0  0  0  0
    6.1497   -4.1996    3.1558 H   0  0  0  0  0  0  0  0  0  0  0  0
    7.1361   -6.6547    1.6324 H   0  0  0  0  0  0  0  0  0  0  0  0
    6.7878   -6.5242    3.3531 H   0  0  0  0  0  0  0  0  0  0  0  0
    4.7758   -7.8864    3.7005 H   0  0  0  0  0  0  0  0  0  0  0  0
    2.3709   -8.2360    3.2519 H   0  0  0  0  0  0  0  0  0  0  0  0
    0.6624   -7.8897    1.4787 H   0  0  0  0  0  0  0  0  0  0  0  0
    4.6356   -5.7938   -1.4323 H   0  0  0  0  0  0  0  0  0  0  0  0
    5.0466   -4.0990   -3.0103 H   0  0  0  0  0  0  0  0  0  0  0  0
    4.2851   -1.7342   -1.0184 H   0  0  0  0  0  0  0  0  0  0  0  0
  1  2  1  0
  1 26  1  0
  1 27  1  0
  1 28  1  0
  2 24  1  0
  2  3  1  0
  3  4  1  0
  3 29  1  0
  3 30  1  0
  5  4  1  6
  4 31  1  0
  4 32  1  0
  5 23  1  0
  5 24  1  0
  5  6  1  0
  6 25  1  0
  6  7  1  0
  6 33  1  6
  7  8  2  3
  7 34  1  0
  8  9  1  0
  8 35  1  0
  9 10  1  0
  9 11  1  0
  9 36  1  6
 10 37  1  0
 11 21  1  0
 11 12  1  0
 11 38  1  6
 12 13  1  0
 12 39  1  0
 12 40  1  0
 13 14  1  0
 13 41  1  0
 13 42  1  0
 14 20  2  0
 14 15  1  0
 15 16  2  0
 15 43  1  0
 16 17  1  0
 16 44  1  0
 17 18  1  0
 17 19  2  0
 18 45  1  0
 19 20  1  0
 19 25  1  0
 20 21  1  0
 21 22  2  3
 22 23  1  0
 22 46  1  0
 23 24  1  0
 23 47  1  6
 24 48  1  1
M  END
>  <i_m_ct_stereo_status>  (190) 
1

>  <s_m_source_file>  (190) 
/var/tmp/pbs.5076255.sched01/tmpniar21pp/41tndis9zi.sdf

>  <i_m_source_file_index>  (190) 
41

>  <i_lp_mmshare_version>  (190) 
48012

>  <i_f3d_flags>  (190) 
0

>  <s_epik_input>  (190) 
W0NIMl0xW0NIMl1OKFtDSDNdKVtDQEBIXTJbQ0BIXTNcW0NIXT1DKFxbQ0BIXTRbQ0BIXShbT0hdKS9bQ0hdPVtDSF1cW0NASF01W0NAQF0xMjMpYzZjKFtDSDJdW0NIMl00KVtjSF1bY0hdYyhbT0hdKWM2TzU=

>  <s_epik_cmdline>  (190) 
J2VwaWtfcHl0aG9uJywgJy1waHQnLCAnMi4wJywgJy1waCcsICc3LjAnLCAnLXRuJywgJzgnLCAnLW1hJywgJzIwMCcsICctaW1hZScsICc8aW5maWxlLm1hZT4nLCAnLW9tYWUnLCAnPG91dGZpbGUubWFlPic=

>  <r_epik_Ionization_Penalty>  (190) 
2.48197

>  <r_epik_Ionization_Penalty_Charging>  (190) 
0

>  <r_epik_Ionization_Penalty_Neutral>  (190) 
2.48197

>  <r_epik_State_Penalty>  (190) 
2.64544

>  <r_epik_Charging_Adjusted_Penalty>  (190) 
2.64544

>  <i_epik_Tot_Q>  (190) 
0

>  <i_epik_Tot_abs_Q>  (190) 
0

>  <s_lp_Force_Field>  (190) 
OPLS3e

>  <r_lp_Energy>  (190) 
96.6517

>  <b_lp_Chiralities_Consistent>  (190) 
1

>  <s_lp_Variant>  (190) 
55:0-7

>  <s_i_glide_gridfile>  (190) 
pfpi4k_grid

>  <i_i_glide_lignum>  (190) 
41

>  <i_i_glide_rotatable_bonds>  (190) 
2

>  <r_i_docking_score>  (190) 
-3.52223

>  <r_i_glide_ligand_efficiency>  (190) 
-0.140889

>  <r_i_glide_ligand_efficiency_sa>  (190) 
-0.411963

>  <r_i_glide_ligand_efficiency_ln>  (190) 
-0.834875

>  <r_i_glide_gscore>  (190) 
-3.52223

>  <r_i_glide_lipo>  (190) 
-0.907647

>  <r_i_glide_hbond>  (190) 
0

>  <r_i_glide_metal>  (190) 
-0

>  <r_i_glide_rewards>  (190) 
-1.10855

>  <r_i_glide_evdw>  (190) 
-16.3316

>  <r_i_glide_ecoul>  (190) 
-4.59636

>  <r_i_glide_erotb>  (190) 
0

>  <r_i_glide_esite>  (190) 
0

>  <r_i_glide_emodel>  (190) 
-19.4696

>  <r_i_glide_energy>  (190) 
-20.928

>  <r_i_glide_einternal>  (190) 
2.16484

>  <r_i_glide_intrahb_reward>  (190) 
-0

>  <i_i_glide_confnum>  (190) 
2

>  <i_i_glide_posenum>  (190) 
7

>  <r_i_glide_eff_state_penalty>  (190) 
0

>  <ligand_id>  (190) 
55

>  <original_smiles>  (190) 
CN1CCC23C4C=CC(O)C5CCc6ccc(O)c(c6C5=CC2C13)O4

>  <smiles>  (190) 
[H]Oc1c([H])c([H])c2c3c1OC1([H])C([H])=C([H])C([H])(O[H])C([H])(C3=C([H])C3([H])C4([H])N(C([H])([H])[H])C([H])([H])C([H])([H])C134)C([H])([H])C2([H])[H]

$$$$
55:6:1
     RDKit          3D

 48 53  0  0  1  0  0  0  0  0999 V2000
    4.3734    0.6038   -3.1745 C   0  0  0  0  0  0  0  0  0  0  0  0
    4.1000   -0.7970   -3.3921 N   0  0  0  0  0  0  0  0  0  0  0  0
    2.6744   -0.9991   -3.5666 C   0  0  0  0  0  0  0  0  0  0  0  0
    2.4323   -2.4593   -3.1549 C   0  0  0  0  0  0  0  0  0  0  0  0
    3.4528   -2.6862   -2.0660 C   0  0  1  0  0  0  0  0  0  0  0  0
    2.8830   -3.1589   -0.6715 C   0  0  2  0  0  0  0  0  0  0  0  0
    3.2744   -2.4825    0.6598 C   0  0  0  0  0  0  0  0  0  0  0  0
    4.4323   -2.0459    1.2093 C   0  0  0  0  0  0  0  0  0  0  0  0
    5.8817   -1.9905    0.7201 C   0  0  1  0  0  0  0  0  0  0  0  0
    6.6073   -1.2904    1.6859 O   0  0  0  0  0  0  0  0  0  0  0  0
    6.5588   -3.3462    0.3581 C   0  0  1  0  0  0  0  0  0  0  0  0
    7.1769   -4.1139    1.5662 C   0  0  0  0  0  0  0  0  0  0  0  0
    7.0687   -5.6531    1.4870 C   0  0  0  0  0  0  0  0  0  0  0  0
    5.6181   -6.0243    1.2745 C   0  0  0  0  0  0  0  0  0  0  0  0
    4.9557   -6.9942    2.0305 C   0  0  0  0  0  0  0  0  0  0  0  0
    3.5776   -7.1920    1.8756 C   0  0  0  0  0  0  0  0  0  0  0  0
    2.8083   -6.3805    1.0053 C   0  0  0  0  0  0  0  0  0  0  0  0
    1.4650   -6.5671    0.8964 O   0  0  0  0  0  0  0  0  0  0  0  0
    3.5069   -5.3975    0.2868 C   0  0  0  0  0  0  0  0  0  0  0  0
    4.9126   -5.2414    0.3271 C   0  0  0  0  0  0  0  0  0  0  0  0
    5.6503   -4.2573   -0.4440 C   0  0  0  0  0  0  0  0  0  0  0  0
    5.2526   -4.1235   -1.7106 C   0  0  0  0  0  0  0  0  0  0  0  0
    4.9166   -2.9321   -2.4766 C   0  0  2  0  0  0  0  0  0  0  0  0
    4.3814   -1.5454   -2.1789 C   0  0  1  0  0  0  0  0  0  0  0  0
    2.6694   -4.5776   -0.4931 O   0  0  0  0  0  0  0  0  0  0  0  0
    4.1227    1.2247   -4.0573 H   0  0  0  0  0  0  0  0  0  0  0  0
    5.3200    0.7756   -2.7150 H   0  0  0  0  0  0  0  0  0  0  0  0
    3.8207    0.9524   -2.3534 H   0  0  0  0  0  0  0  0  0  0  0  0
    2.2352   -0.3159   -2.8439 H   0  0  0  0  0  0  0  0  0  0  0  0
    2.3450   -0.7580   -4.5807 H   0  0  0  0  0  0  0  0  0  0  0  0
    1.4115   -2.6584   -2.8455 H   0  0  0  0  0  0  0  0  0  0  0  0
    2.6525   -3.1058   -4.0075 H   0  0  0  0  0  0  0  0  0  0  0  0
    1.8509   -2.8426   -0.7143 H   0  0  0  0  0  0  0  0  0  0  0  0
    2.4192   -2.3838    1.3147 H   0  0  0  0  0  0  0  0  0  0  0  0
    4.3246   -1.6530    2.2058 H   0  0  0  0  0  0  0  0  0  0  0  0
    5.9939   -1.3283   -0.1313 H   0  0  0  0  0  0  0  0  0  0  0  0
    7.1394   -0.6237    1.2793 H   0  0  0  0  0  0  0  0  0  0  0  0
    7.3868   -3.0957   -0.3223 H   0  0  0  0  0  0  0  0  0  0  0  0
    8.2206   -3.8431    1.6921 H   0  0  0  0  0  0  0  0  0  0  0  0
    6.6234   -3.8263    2.4480 H   0  0  0  0  0  0  0  0  0  0  0  0
    7.6677   -6.0527    0.6549 H   0  0  0  0  0  0  0  0  0  0  0  0
    7.4574   -6.1180    2.3979 H   0  0  0  0  0  0  0  0  0  0  0  0
    5.5000   -7.5784    2.7556 H   0  0  0  0  0  0  0  0  0  0  0  0
    3.0848   -7.9528    2.4594 H   0  0  0  0  0  0  0  0  0  0  0  0
    1.1870   -7.3757    1.2902 H   0  0  0  0  0  0  0  0  0  0  0  0
    4.6751   -4.9433   -2.0961 H   0  0  0  0  0  0  0  0  0  0  0  0
    5.1303   -3.0929   -3.5387 H   0  0  0  0  0  0  0  0  0  0  0  0
    4.4709   -1.0152   -1.2385 H   0  0  0  0  0  0  0  0  0  0  0  0
  1  2  1  0
  1 26  1  0
  1 27  1  0
  1 28  1  0
  2 24  1  0
  2  3  1  0
  3  4  1  0
  3 29  1  0
  3 30  1  0
  5  4  1  6
  4 31  1  0
  4 32  1  0
  5 23  1  0
  5 24  1  0
  5  6  1  0
  6 25  1  0
  6  7  1  0
  6 33  1  6
  7  8  2  3
  7 34  1  0
  8  9  1  0
  8 35  1  0
  9 10  1  0
  9 11  1  0
  9 36  1  6
 10 37  1  0
 11 21  1  0
 11 12  1  0
 11 38  1  6
 12 13  1  0
 12 39  1  0
 12 40  1  0
 13 14  1  0
 13 41  1  0
 13 42  1  0
 14 20  2  0
 14 15  1  0
 15 16  2  0
 15 43  1  0
 16 17  1  0
 16 44  1  0
 17 18  1  0
 17 19  2  0
 18 45  1  0
 19 20  1  0
 19 25  1  0
 20 21  1  0
 21 22  2  3
 22 23  1  0
 22 46  1  0
 23 24  1  0
 23 47  1  6
 24 48  1  1
M  END
>  <i_m_ct_stereo_status>  (191) 
1

>  <s_m_source_file>  (191) 
/var/tmp/pbs.5076255.sched01/tmpniar21pp/41tndis9zi.sdf

>  <i_m_source_file_index>  (191) 
41

>  <i_lp_mmshare_version>  (191) 
48012

>  <i_f3d_flags>  (191) 
0

>  <s_epik_input>  (191) 
W0NIMl0xW0NIMl1OKFtDSDNdKVtDQEBIXTJbQ0BIXTNcW0NIXT1DKFxbQ0BIXTRbQ0BIXShbT0hdKS9bQ0hdPVtDSF1cW0NASF01W0NAQF0xMjMpYzZjKFtDSDJdW0NIMl00KVtjSF1bY0hdYyhbT0hdKWM2TzU=

>  <s_epik_cmdline>  (191) 
J2VwaWtfcHl0aG9uJywgJy1waHQnLCAnMi4wJywgJy1waCcsICc3LjAnLCAnLXRuJywgJzgnLCAnLW1hJywgJzIwMCcsICctaW1hZScsICc8aW5maWxlLm1hZT4nLCAnLW9tYWUnLCAnPG91dGZpbGUubWFlPic=

>  <r_epik_Ionization_Penalty>  (191) 
2.48197

>  <r_epik_Ionization_Penalty_Charging>  (191) 
0

>  <r_epik_Ionization_Penalty_Neutral>  (191) 
2.48197

>  <r_epik_State_Penalty>  (191) 
2.64544

>  <r_epik_Charging_Adjusted_Penalty>  (191) 
2.64544

>  <i_epik_Tot_Q>  (191) 
0

>  <i_epik_Tot_abs_Q>  (191) 
0

>  <s_lp_Force_Field>  (191) 
OPLS3e

>  <r_lp_Energy>  (191) 
96.6517

>  <b_lp_Chiralities_Consistent>  (191) 
1

>  <s_lp_Variant>  (191) 
55:0-7

>  <s_i_glide_gridfile>  (191) 
pfpi4k_grid

>  <i_i_glide_lignum>  (191) 
41

>  <i_i_glide_rotatable_bonds>  (191) 
2

>  <r_i_docking_score>  (191) 
-3.49842

>  <r_i_glide_ligand_efficiency>  (191) 
-0.139937

>  <r_i_glide_ligand_efficiency_sa>  (191) 
-0.409177

>  <r_i_glide_ligand_efficiency_ln>  (191) 
-0.82923

>  <r_i_glide_gscore>  (191) 
-3.49842

>  <r_i_glide_lipo>  (191) 
-0.967531

>  <r_i_glide_hbond>  (191) 
-0.191807

>  <r_i_glide_metal>  (191) 
-0

>  <r_i_glide_rewards>  (191) 
-1.10855

>  <r_i_glide_evdw>  (191) 
-9.0275

>  <r_i_glide_ecoul>  (191) 
-5.19434

>  <r_i_glide_erotb>  (191) 
0

>  <r_i_glide_esite>  (191) 
0

>  <r_i_glide_emodel>  (191) 
-14.2412

>  <r_i_glide_energy>  (191) 
-14.2218

>  <r_i_glide_einternal>  (191) 
0.994638

>  <r_i_glide_intrahb_reward>  (191) 
-0

>  <i_i_glide_confnum>  (191) 
2

>  <i_i_glide_posenum>  (191) 
14

>  <r_i_glide_eff_state_penalty>  (191) 
0

>  <ligand_id>  (191) 
55

>  <original_smiles>  (191) 
CN1CCC23C4C=CC(O)C5CCc6ccc(O)c(c6C5=CC2C13)O4

>  <smiles>  (191) 
[H]Oc1c([H])c([H])c2c3c1OC1([H])C([H])=C([H])C([H])(O[H])C([H])(C3=C([H])C3([H])C4([H])N(C([H])([H])[H])C([H])([H])C([H])([H])C134)C([H])([H])C2([H])[H]

$$$$
55:6:2
     RDKit          3D

 48 53  0  0  1  0  0  0  0  0999 V2000
    4.3148    0.9340   -3.4685 C   0  0  0  0  0  0  0  0  0  0  0  0
    4.1182   -0.4992   -3.5654 N   0  0  0  0  0  0  0  0  0  0  0  0
    2.6883   -0.7070   -3.7076 C   0  0  0  0  0  0  0  0  0  0  0  0
    2.4401   -2.1725   -3.2842 C   0  0  0  0  0  0  0  0  0  0  0  0
    3.4817   -2.4135   -2.2183 C   0  0  1  0  0  0  0  0  0  0  0  0
    2.9195   -2.9424   -0.8337 C   0  0  2  0  0  0  0  0  0  0  0  0
    3.2823   -2.2512    0.4996 C   0  0  0  0  0  0  0  0  0  0  0  0
    4.4311   -1.8090    1.0647 C   0  0  0  0  0  0  0  0  0  0  0  0
    5.8793   -1.7503    0.5781 C   0  0  1  0  0  0  0  0  0  0  0  0
    6.6425   -1.1068    1.5742 O   0  0  0  0  0  0  0  0  0  0  0  0
    6.5631   -3.0801    0.1968 C   0  0  1  0  0  0  0  0  0  0  0  0
    7.1757   -3.8701    1.3949 C   0  0  0  0  0  0  0  0  0  0  0  0
    7.0808   -5.4096    1.3023 C   0  0  0  0  0  0  0  0  0  0  0  0
    5.6326   -5.7820    1.0827 C   0  0  0  0  0  0  0  0  0  0  0  0
    4.9668   -6.7577    1.8264 C   0  0  0  0  0  0  0  0  0  0  0  0
    3.5866   -6.9575    1.6838 C   0  0  0  0  0  0  0  0  0  0  0  0
    2.8187   -6.1310    0.8261 C   0  0  0  0  0  0  0  0  0  0  0  0
    1.4658   -6.3029    0.7057 O   0  0  0  0  0  0  0  0  0  0  0  0
    3.5330   -5.1590    0.1130 C   0  0  0  0  0  0  0  0  0  0  0  0
    4.9326   -4.9934    0.1438 C   0  0  0  0  0  0  0  0  0  0  0  0
    5.6688   -3.9898   -0.6004 C   0  0  0  0  0  0  0  0  0  0  0  0
    5.2856   -3.8376   -1.8842 C   0  0  0  0  0  0  0  0  0  0  0  0
    4.9483   -2.6358   -2.6285 C   0  0  2  0  0  0  0  0  0  0  0  0
    4.3980   -1.2523   -2.3381 C   0  0  1  0  0  0  0  0  0  0  0  0
    2.7178   -4.3513   -0.6856 O   0  0  0  0  0  0  0  0  0  0  0  0
    3.9913    1.5355   -4.2922 H   0  0  0  0  0  0  0  0  0  0  0  0
    5.2176    1.3302   -3.0931 H   0  0  0  0  0  0  0  0  0  0  0  0
    3.8139    1.2511   -2.5807 H   0  0  0  0  0  0  0  0  0  0  0  0
    2.2649   -0.0027   -2.9879 H   0  0  0  0  0  0  0  0  0  0  0  0
    2.3343   -0.4696   -4.7155 H   0  0  0  0  0  0  0  0  0  0  0  0
    1.4191   -2.4040   -2.9632 H   0  0  0  0  0  0  0  0  0  0  0  0
    2.6785   -2.8115   -4.1294 H   0  0  0  0  0  0  0  0  0  0  0  0
    1.8540   -2.7328   -0.9044 H   0  0  0  0  0  0  0  0  0  0  0  0
    2.4178   -2.1450    1.1350 H   0  0  0  0  0  0  0  0  0  0  0  0
    4.3148   -1.4204    2.0695 H   0  0  0  0  0  0  0  0  0  0  0  0
    5.9927   -1.0660   -0.2490 H   0  0  0  0  0  0  0  0  0  0  0  0
    6.3644   -0.2053    1.6504 H   0  0  0  0  0  0  0  0  0  0  0  0
    7.3861   -2.8239   -0.4669 H   0  0  0  0  0  0  0  0  0  0  0  0
    8.2211   -3.5811    1.5312 H   0  0  0  0  0  0  0  0  0  0  0  0
    6.5934   -3.5894    2.2725 H   0  0  0  0  0  0  0  0  0  0  0  0
    7.6766   -5.7921    0.4773 H   0  0  0  0  0  0  0  0  0  0  0  0
    7.4558   -5.8730    2.2144 H   0  0  0  0  0  0  0  0  0  0  0  0
    5.5212   -7.3473    2.5451 H   0  0  0  0  0  0  0  0  0  0  0  0
    3.1066   -7.7300    2.2487 H   0  0  0  0  0  0  0  0  0  0  0  0
    1.2047   -7.1670    0.9984 H   0  0  0  0  0  0  0  0  0  0  0  0
    4.6905   -4.6357   -2.2743 H   0  0  0  0  0  0  0  0  0  0  0  0
    5.1395   -2.8292   -3.6767 H   0  0  0  0  0  0  0  0  0  0  0  0
    4.4722   -0.7484   -1.3917 H   0  0  0  0  0  0  0  0  0  0  0  0
  1  2  1  0
  1 26  1  0
  1 27  1  0
  1 28  1  0
  2 24  1  0
  2  3  1  0
  3  4  1  0
  3 29  1  0
  3 30  1  0
  5  4  1  6
  4 31  1  0
  4 32  1  0
  5 23  1  0
  5 24  1  0
  5  6  1  0
  6 25  1  0
  6  7  1  0
  6 33  1  6
  7  8  2  3
  7 34  1  0
  8  9  1  0
  8 35  1  0
  9 10  1  0
  9 11  1  0
  9 36  1  6
 10 37  1  0
 11 21  1  0
 11 12  1  0
 11 38  1  6
 12 13  1  0
 12 39  1  0
 12 40  1  0
 13 14  1  0
 13 41  1  0
 13 42  1  0
 14 20  2  0
 14 15  1  0
 15 16  2  0
 15 43  1  0
 16 17  1  0
 16 44  1  0
 17 18  1  0
 17 19  2  0
 18 45  1  0
 19 20  1  0
 19 25  1  0
 20 21  1  0
 21 22  2  3
 22 23  1  0
 22 46  1  0
 23 24  1  0
 23 47  1  6
 24 48  1  1
M  END
>  <i_m_ct_stereo_status>  (192) 
1

>  <s_m_source_file>  (192) 
/var/tmp/pbs.5076255.sched01/tmpniar21pp/41tndis9zi.sdf

>  <i_m_source_file_index>  (192) 
41

>  <i_lp_mmshare_version>  (192) 
48012

>  <i_f3d_flags>  (192) 
0

>  <s_epik_input>  (192) 
W0NIMl0xW0NIMl1OKFtDSDNdKVtDQEBIXTJbQ0BIXTNcW0NIXT1DKFxbQ0BIXTRbQ0BIXShbT0hdKS9bQ0hdPVtDSF1cW0NASF01W0NAQF0xMjMpYzZjKFtDSDJdW0NIMl00KVtjSF1bY0hdYyhbT0hdKWM2TzU=

>  <s_epik_cmdline>  (192) 
J2VwaWtfcHl0aG9uJywgJy1waHQnLCAnMi4wJywgJy1waCcsICc3LjAnLCAnLXRuJywgJzgnLCAnLW1hJywgJzIwMCcsICctaW1hZScsICc8aW5maWxlLm1hZT4nLCAnLW9tYWUnLCAnPG91dGZpbGUubWFlPic=

>  <r_epik_Ionization_Penalty>  (192) 
2.48197

>  <r_epik_Ionization_Penalty_Charging>  (192) 
0

>  <r_epik_Ionization_Penalty_Neutral>  (192) 
2.48197

>  <r_epik_State_Penalty>  (192) 
2.64544

>  <r_epik_Charging_Adjusted_Penalty>  (192) 
2.64544

>  <i_epik_Tot_Q>  (192) 
0

>  <i_epik_Tot_abs_Q>  (192) 
0

>  <s_lp_Force_Field>  (192) 
OPLS3e

>  <r_lp_Energy>  (192) 
96.6517

>  <b_lp_Chiralities_Consistent>  (192) 
1

>  <s_lp_Variant>  (192) 
55:0-7

>  <s_i_glide_gridfile>  (192) 
pfpi4k_grid

>  <i_i_glide_lignum>  (192) 
41

>  <i_i_glide_rotatable_bonds>  (192) 
2

>  <r_i_docking_score>  (192) 
-3.16644

>  <r_i_glide_ligand_efficiency>  (192) 
-0.126658

>  <r_i_glide_ligand_efficiency_sa>  (192) 
-0.370349

>  <r_i_glide_ligand_efficiency_ln>  (192) 
-0.750541

>  <r_i_glide_gscore>  (192) 
-3.16644

>  <r_i_glide_lipo>  (192) 
-1.04775

>  <r_i_glide_hbond>  (192) 
-0.0726052

>  <r_i_glide_metal>  (192) 
-0

>  <r_i_glide_rewards>  (192) 
-1.10855

>  <r_i_glide_evdw>  (192) 
-7.13562

>  <r_i_glide_ecoul>  (192) 
-3.87166

>  <r_i_glide_erotb>  (192) 
0

>  <r_i_glide_esite>  (192) 
0

>  <r_i_glide_emodel>  (192) 
-10.1286

>  <r_i_glide_energy>  (192) 
-11.0073

>  <r_i_glide_einternal>  (192) 
0.734917

>  <r_i_glide_intrahb_reward>  (192) 
-0

>  <i_i_glide_confnum>  (192) 
2

>  <i_i_glide_posenum>  (192) 
10

>  <r_i_glide_eff_state_penalty>  (192) 
0

>  <ligand_id>  (192) 
55

>  <original_smiles>  (192) 
CN1CCC23C4C=CC(O)C5CCc6ccc(O)c(c6C5=CC2C13)O4

>  <smiles>  (192) 
[H]Oc1c([H])c([H])c2c3c1OC1([H])C([H])=C([H])C([H])(O[H])C([H])(C3=C([H])C3([H])C4([H])N(C([H])([H])[H])C([H])([H])C([H])([H])C134)C([H])([H])C2([H])[H]

$$$$
55:7:0
     RDKit          3D

 48 53  0  0  1  0  0  0  0  0999 V2000
    3.9946    0.4999   -4.8640 C   0  0  0  0  0  0  0  0  0  0  0  0
    3.7207   -0.9043   -4.6438 N   0  0  0  0  0  0  0  0  0  0  0  0
    2.3282   -1.0077   -4.2868 C   0  0  0  0  0  0  0  0  0  0  0  0
    2.1682   -2.2693   -3.3950 C   0  0  0  0  0  0  0  0  0  0  0  0
    3.4554   -2.3827   -2.6738 C   0  0  1  0  0  0  0  0  0  0  0  0
    3.3113   -2.6879   -1.1007 C   0  0  2  0  0  0  0  0  0  0  0  0
    3.9948   -1.7585   -0.0862 C   0  0  0  0  0  0  0  0  0  0  0  0
    4.8639   -0.8126   -0.4360 C   0  0  0  0  0  0  0  0  0  0  0  0
    6.3302   -1.0222   -0.1399 C   0  0  1  0  0  0  0  0  0  0  0  0
    6.5528   -1.3791    1.2047 O   0  0  0  0  0  0  0  0  0  0  0  0
    6.9899   -2.0344   -1.1789 C   0  0  1  0  0  0  0  0  0  0  0  0
    8.4138   -2.5036   -0.7411 C   0  0  0  0  0  0  0  0  0  0  0  0
    8.4467   -3.8788    0.0342 C   0  0  0  0  0  0  0  0  0  0  0  0
    7.0839   -4.4470    0.4310 C   0  0  0  0  0  0  0  0  0  0  0  0
    6.8855   -5.2545    1.5519 C   0  0  0  0  0  0  0  0  0  0  0  0
    5.5990   -5.7095    1.8673 C   0  0  0  0  0  0  0  0  0  0  0  0
    4.4768   -5.3514    1.1034 C   0  0  0  0  0  0  0  0  0  0  0  0
    3.2300   -5.7767    1.4547 O   0  0  0  0  0  0  0  0  0  0  0  0
    4.6729   -4.5304   -0.0106 C   0  0  0  0  0  0  0  0  0  0  0  0
    5.9755   -4.1197   -0.3771 C   0  0  0  0  0  0  0  0  0  0  0  0
    6.2135   -3.2944   -1.5160 C   0  0  0  0  0  0  0  0  0  0  0  0
    5.5425   -3.6710   -2.6155 C   0  0  0  0  0  0  0  0  0  0  0  0
    4.6513   -2.8944   -3.4829 C   0  0  2  0  0  0  0  0  0  0  0  0
    4.3776   -1.4196   -3.4409 C   0  0  1  0  0  0  0  0  0  0  0  0
    3.5283   -4.0930   -0.7091 O   0  0  0  0  0  0  0  0  0  0  0  0
    3.3719    0.8712   -5.6722 H   0  0  0  0  0  0  0  0  0  0  0  0
    5.0043    0.6161   -5.1088 H   0  0  0  0  0  0  0  0  0  0  0  0
    3.8104    1.1128   -4.0083 H   0  0  0  0  0  0  0  0  0  0  0  0
    2.2424   -0.1044   -3.6707 H   0  0  0  0  0  0  0  0  0  0  0  0
    1.5951   -0.9539   -5.1228 H   0  0  0  0  0  0  0  0  0  0  0  0
    1.3674   -2.2707   -2.6765 H   0  0  0  0  0  0  0  0  0  0  0  0
    2.0313   -3.1597   -4.0091 H   0  0  0  0  0  0  0  0  0  0  0  0
    2.2702   -2.5718   -0.8246 H   0  0  0  0  0  0  0  0  0  0  0  0
    4.2712   -2.2884    0.8090 H   0  0  0  0  0  0  0  0  0  0  0  0
    4.7073   -0.2327   -1.3195 H   0  0  0  0  0  0  0  0  0  0  0  0
    6.7545   -0.0312   -0.2130 H   0  0  0  0  0  0  0  0  0  0  0  0
    6.8016   -0.5831    1.6634 H   0  0  0  0  0  0  0  0  0  0  0  0
    7.0566   -1.5603   -2.1606 H   0  0  0  0  0  0  0  0  0  0  0  0
    9.0143   -2.6137   -1.6497 H   0  0  0  0  0  0  0  0  0  0  0  0
    8.8999   -1.7405   -0.1318 H   0  0  0  0  0  0  0  0  0  0  0  0
    8.9098   -4.6072   -0.6341 H   0  0  0  0  0  0  0  0  0  0  0  0
    9.0964   -3.8127    0.9136 H   0  0  0  0  0  0  0  0  0  0  0  0
    7.7309   -5.5097    2.1603 H   0  0  0  0  0  0  0  0  0  0  0  0
    5.4793   -6.3349    2.7379 H   0  0  0  0  0  0  0  0  0  0  0  0
    3.2209   -6.3491    2.1893 H   0  0  0  0  0  0  0  0  0  0  0  0
    5.1218   -4.6640   -2.5984 H   0  0  0  0  0  0  0  0  0  0  0  0
    4.4367   -3.4223   -4.4217 H   0  0  0  0  0  0  0  0  0  0  0  0
    5.2130   -0.8955   -3.0267 H   0  0  0  0  0  0  0  0  0  0  0  0
  1  2  1  0
  1 26  1  0
  1 27  1  0
  1 28  1  0
  2 24  1  0
  2  3  1  0
  3  4  1  0
  3 29  1  0
  3 30  1  0
  5  4  1  6
  4 31  1  0
  4 32  1  0
  5 23  1  0
  5 24  1  0
  5  6  1  0
  6 25  1  0
  6  7  1  0
  6 33  1  1
  7  8  2  3
  7 34  1  0
  8  9  1  0
  8 35  1  0
  9 10  1  0
  9 11  1  0
  9 36  1  1
 10 37  1  0
 11 21  1  0
 11 12  1  0
 11 38  1  6
 12 13  1  0
 12 39  1  0
 12 40  1  0
 13 14  1  0
 13 41  1  0
 13 42  1  0
 14 20  2  0
 14 15  1  0
 15 16  2  0
 15 43  1  0
 16 17  1  0
 16 44  1  0
 17 18  1  0
 17 19  2  0
 18 45  1  0
 19 20  1  0
 19 25  1  0
 20 21  1  0
 21 22  2  3
 22 23  1  0
 22 46  1  0
 23 24  1  0
 23 47  1  6
 24 48  1  1
M  END
>  <i_m_ct_stereo_status>  (193) 
1

>  <s_m_source_file>  (193) 
/var/tmp/pbs.5076255.sched01/tmpm261n1hm/82shs6bvht.sdf

>  <i_m_source_file_index>  (193) 
1

>  <i_lp_mmshare_version>  (193) 
48012

>  <i_f3d_flags>  (193) 
0

>  <s_epik_input>  (193) 
W0NIMl0xW0NIMl1OKFtDSDNdKVtDQEBIXTJbQ0BIXTNcW0NIXT1DKFxbQ0BIXTRbQ0BIXShbT0hdKS9bQ0hdPVtDSF1cW0NASF01W0NAQF0xMjMpYzZjKFtDSDJdW0NIMl00KVtjSF1bY0hdYyhbT0hdKWM2TzU=

>  <s_epik_cmdline>  (193) 
J2VwaWtfcHl0aG9uJywgJy1waHQnLCAnMi4wJywgJy1waCcsICc3LjAnLCAnLXRuJywgJzgnLCAnLW1hJywgJzIwMCcsICctaW1hZScsICc8aW5maWxlLm1hZT4nLCAnLW9tYWUnLCAnPG91dGZpbGUubWFlPic=

>  <r_epik_Ionization_Penalty>  (193) 
2.48197

>  <r_epik_Ionization_Penalty_Charging>  (193) 
0

>  <r_epik_Ionization_Penalty_Neutral>  (193) 
2.48197

>  <r_epik_State_Penalty>  (193) 
2.64544

>  <r_epik_Charging_Adjusted_Penalty>  (193) 
2.64544

>  <i_epik_Tot_Q>  (193) 
0

>  <i_epik_Tot_abs_Q>  (193) 
0

>  <s_lp_Force_Field>  (193) 
OPLS3e

>  <r_lp_Energy>  (193) 
117.153

>  <b_lp_Chiralities_Consistent>  (193) 
1

>  <s_lp_Variant>  (193) 
55:0-8

>  <s_i_glide_gridfile>  (193) 
pfpi4k_grid

>  <i_i_glide_lignum>  (193) 
1

>  <i_i_glide_rotatable_bonds>  (193) 
2

>  <r_i_docking_score>  (193) 
-4.22395

>  <r_i_glide_ligand_efficiency>  (193) 
-0.168958

>  <r_i_glide_ligand_efficiency_sa>  (193) 
-0.494036

>  <r_i_glide_ligand_efficiency_ln>  (193) 
-1.0012

>  <r_i_glide_gscore>  (193) 
-4.22395

>  <r_i_glide_lipo>  (193) 
-1.37646

>  <r_i_glide_hbond>  (193) 
-0.402685

>  <r_i_glide_metal>  (193) 
-0

>  <r_i_glide_rewards>  (193) 
-1.10855

>  <r_i_glide_evdw>  (193) 
-17.7731

>  <r_i_glide_ecoul>  (193) 
-2.98398

>  <r_i_glide_erotb>  (193) 
0

>  <r_i_glide_esite>  (193) 
0

>  <r_i_glide_emodel>  (193) 
-27.3899

>  <r_i_glide_energy>  (193) 
-20.7571

>  <r_i_glide_einternal>  (193) 
0.769141

>  <r_i_glide_intrahb_reward>  (193) 
-0

>  <i_i_glide_confnum>  (193) 
1

>  <i_i_glide_posenum>  (193) 
16

>  <r_i_glide_eff_state_penalty>  (193) 
0

>  <ligand_id>  (193) 
55

>  <original_smiles>  (193) 
CN1CCC23C4C=CC(O)C5CCc6ccc(O)c(c6C5=CC2C13)O4

>  <smiles>  (193) 
[H]Oc1c([H])c([H])c2c3c1OC1([H])C([H])=C([H])C([H])(O[H])C([H])(C3=C([H])C3([H])C4([H])N(C([H])([H])[H])C([H])([H])C([H])([H])C134)C([H])([H])C2([H])[H]

$$$$
55:7:1
     RDKit          3D

 48 53  0  0  1  0  0  0  0  0999 V2000
    7.0005   -1.2070    0.8952 C   0  0  0  0  0  0  0  0  0  0  0  0
    5.9233   -1.8270    0.1475 N   0  0  0  0  0  0  0  0  0  0  0  0
    4.7128   -1.0022    0.1484 C   0  0  0  0  0  0  0  0  0  0  0  0
    3.5386   -1.9762   -0.0390 C   0  0  0  0  0  0  0  0  0  0  0  0
    4.0125   -3.2725    0.5765 C   0  0  1  0  0  0  0  0  0  0  0  0
    2.9490   -3.9538    1.5506 C   0  0  2  0  0  0  0  0  0  0  0  0
    3.3766   -4.3337    2.9740 C   0  0  0  0  0  0  0  0  0  0  0  0
    4.6395   -4.2794    3.4177 C   0  0  0  0  0  0  0  0  0  0  0  0
    5.3941   -5.5711    3.6714 C   0  0  1  0  0  0  0  0  0  0  0  0
    4.6157   -6.4547    4.4625 O   0  0  0  0  0  0  0  0  0  0  0  0
    5.8873   -6.2252    2.3180 C   0  0  1  0  0  0  0  0  0  0  0  0
    6.3271   -7.7122    2.5194 C   0  0  0  0  0  0  0  0  0  0  0  0
    5.2485   -8.8080    2.1804 C   0  0  0  0  0  0  0  0  0  0  0  0
    3.8341   -8.2699    1.9499 C   0  0  0  0  0  0  0  0  0  0  0  0
    2.6880   -9.0259    2.2568 C   0  0  0  0  0  0  0  0  0  0  0  0
    1.4092   -8.4707    2.0639 C   0  0  0  0  0  0  0  0  0  0  0  0
    1.2243   -7.1550    1.5773 C   0  0  0  0  0  0  0  0  0  0  0  0
   -0.0313   -6.6524    1.3896 O   0  0  0  0  0  0  0  0  0  0  0  0
    2.3982   -6.4142    1.3067 C   0  0  0  0  0  0  0  0  0  0  0  0
    3.6991   -6.9750    1.4299 C   0  0  0  0  0  0  0  0  0  0  0  0
    4.9030   -6.2438    1.1402 C   0  0  0  0  0  0  0  0  0  0  0  0
    4.8185   -5.5363   -0.0024 C   0  0  0  0  0  0  0  0  0  0  0  0
    5.0228   -4.1089   -0.2221 C   0  0  2  0  0  0  0  0  0  0  0  0
    5.5189   -3.0909    0.7371 C   0  0  1  0  0  0  0  0  0  0  0  0
    2.2092   -5.0675    0.9376 O   0  0  0  0  0  0  0  0  0  0  0  0
    7.2586   -0.2587    0.4372 H   0  0  0  0  0  0  0  0  0  0  0  0
    7.8862   -1.8356    0.8693 H   0  0  0  0  0  0  0  0  0  0  0  0
    6.7307   -1.0226    1.9337 H   0  0  0  0  0  0  0  0  0  0  0  0
    4.5950   -0.5035    1.1121 H   0  0  0  0  0  0  0  0  0  0  0  0
    4.7487   -0.2381   -0.6309 H   0  0  0  0  0  0  0  0  0  0  0  0
    2.6218   -1.5900    0.4058 H   0  0  0  0  0  0  0  0  0  0  0  0
    3.3585   -2.1470   -1.1016 H   0  0  0  0  0  0  0  0  0  0  0  0
    2.1708   -3.2116    1.7382 H   0  0  0  0  0  0  0  0  0  0  0  0
    2.7961   -5.1636    3.3437 H   0  0  0  0  0  0  0  0  0  0  0  0
    5.2771   -3.4664    3.1448 H   0  0  0  0  0  0  0  0  0  0  0  0
    6.2642   -5.3186    4.2760 H   0  0  0  0  0  0  0  0  0  0  0  0
    5.1258   -7.2341    4.6303 H   0  0  0  0  0  0  0  0  0  0  0  0
    6.7581   -5.6588    1.9912 H   0  0  0  0  0  0  0  0  0  0  0  0
    7.2020   -7.9045    1.8933 H   0  0  0  0  0  0  0  0  0  0  0  0
    6.6880   -7.8555    3.5397 H   0  0  0  0  0  0  0  0  0  0  0  0
    5.5407   -9.3104    1.2577 H   0  0  0  0  0  0  0  0  0  0  0  0
    5.2394   -9.5807    2.9515 H   0  0  0  0  0  0  0  0  0  0  0  0
    2.7864  -10.0317    2.6375 H   0  0  0  0  0  0  0  0  0  0  0  0
    0.5450   -9.0816    2.2832 H   0  0  0  0  0  0  0  0  0  0  0  0
   -0.6747   -7.3434    1.4664 H   0  0  0  0  0  0  0  0  0  0  0  0
    4.0436   -5.8514   -0.6805 H   0  0  0  0  0  0  0  0  0  0  0  0
    5.1429   -3.8892   -1.2801 H   0  0  0  0  0  0  0  0  0  0  0  0
    6.1605   -3.5797    1.4534 H   0  0  0  0  0  0  0  0  0  0  0  0
  1  2  1  0
  1 26  1  0
  1 27  1  0
  1 28  1  0
  2 24  1  0
  2  3  1  0
  3  4  1  0
  3 29  1  0
  3 30  1  0
  5  4  1  6
  4 31  1  0
  4 32  1  0
  5 23  1  0
  5 24  1  0
  5  6  1  0
  6 25  1  0
  6  7  1  0
  6 33  1  1
  7  8  2  3
  7 34  1  0
  8  9  1  0
  8 35  1  0
  9 10  1  0
  9 11  1  0
  9 36  1  1
 10 37  1  0
 11 21  1  0
 11 12  1  0
 11 38  1  6
 12 13  1  0
 12 39  1  0
 12 40  1  0
 13 14  1  0
 13 41  1  0
 13 42  1  0
 14 20  2  0
 14 15  1  0
 15 16  2  0
 15 43  1  0
 16 17  1  0
 16 44  1  0
 17 18  1  0
 17 19  2  0
 18 45  1  0
 19 20  1  0
 19 25  1  0
 20 21  1  0
 21 22  2  3
 22 23  1  0
 22 46  1  0
 23 24  1  0
 23 47  1  6
 24 48  1  1
M  END
>  <i_m_ct_stereo_status>  (194) 
1

>  <s_m_source_file>  (194) 
/var/tmp/pbs.5076255.sched01/tmpm261n1hm/82shs6bvht.sdf

>  <i_m_source_file_index>  (194) 
1

>  <i_lp_mmshare_version>  (194) 
48012

>  <i_f3d_flags>  (194) 
0

>  <s_epik_input>  (194) 
W0NIMl0xW0NIMl1OKFtDSDNdKVtDQEBIXTJbQ0BIXTNcW0NIXT1DKFxbQ0BIXTRbQ0BIXShbT0hdKS9bQ0hdPVtDSF1cW0NASF01W0NAQF0xMjMpYzZjKFtDSDJdW0NIMl00KVtjSF1bY0hdYyhbT0hdKWM2TzU=

>  <s_epik_cmdline>  (194) 
J2VwaWtfcHl0aG9uJywgJy1waHQnLCAnMi4wJywgJy1waCcsICc3LjAnLCAnLXRuJywgJzgnLCAnLW1hJywgJzIwMCcsICctaW1hZScsICc8aW5maWxlLm1hZT4nLCAnLW9tYWUnLCAnPG91dGZpbGUubWFlPic=

>  <r_epik_Ionization_Penalty>  (194) 
2.48197

>  <r_epik_Ionization_Penalty_Charging>  (194) 
0

>  <r_epik_Ionization_Penalty_Neutral>  (194) 
2.48197

>  <r_epik_State_Penalty>  (194) 
2.64544

>  <r_epik_Charging_Adjusted_Penalty>  (194) 
2.64544

>  <i_epik_Tot_Q>  (194) 
0

>  <i_epik_Tot_abs_Q>  (194) 
0

>  <s_lp_Force_Field>  (194) 
OPLS3e

>  <r_lp_Energy>  (194) 
117.153

>  <b_lp_Chiralities_Consistent>  (194) 
1

>  <s_lp_Variant>  (194) 
55:0-8

>  <s_i_glide_gridfile>  (194) 
pfpi4k_grid

>  <i_i_glide_lignum>  (194) 
1

>  <i_i_glide_rotatable_bonds>  (194) 
2

>  <r_i_docking_score>  (194) 
-3.38846

>  <r_i_glide_ligand_efficiency>  (194) 
-0.135539

>  <r_i_glide_ligand_efficiency_sa>  (194) 
-0.396317

>  <r_i_glide_ligand_efficiency_ln>  (194) 
-0.803168

>  <r_i_glide_gscore>  (194) 
-3.38846

>  <r_i_glide_lipo>  (194) 
-0.367086

>  <r_i_glide_hbond>  (194) 
-0.0195965

>  <r_i_glide_metal>  (194) 
-0

>  <r_i_glide_rewards>  (194) 
-1.10855

>  <r_i_glide_evdw>  (194) 
-21.9507

>  <r_i_glide_ecoul>  (194) 
-5.30461

>  <r_i_glide_erotb>  (194) 
0

>  <r_i_glide_esite>  (194) 
0

>  <r_i_glide_emodel>  (194) 
-33.1261

>  <r_i_glide_energy>  (194) 
-27.2553

>  <r_i_glide_einternal>  (194) 
0.626841

>  <r_i_glide_intrahb_reward>  (194) 
-0

>  <i_i_glide_confnum>  (194) 
2

>  <i_i_glide_posenum>  (194) 
3

>  <r_i_glide_eff_state_penalty>  (194) 
0

>  <ligand_id>  (194) 
55

>  <original_smiles>  (194) 
CN1CCC23C4C=CC(O)C5CCc6ccc(O)c(c6C5=CC2C13)O4

>  <smiles>  (194) 
[H]Oc1c([H])c([H])c2c3c1OC1([H])C([H])=C([H])C([H])(O[H])C([H])(C3=C([H])C3([H])C4([H])N(C([H])([H])[H])C([H])([H])C([H])([H])C134)C([H])([H])C2([H])[H]

$$$$
55:7:2
     RDKit          3D

 48 53  0  0  1  0  0  0  0  0999 V2000
    5.6218   -0.8511   -1.3845 C   0  0  0  0  0  0  0  0  0  0  0  0
    4.9956   -2.0844   -1.7978 N   0  0  0  0  0  0  0  0  0  0  0  0
    3.6685   -1.8462   -2.3656 C   0  0  0  0  0  0  0  0  0  0  0  0
    2.8871   -3.1417   -2.1197 C   0  0  0  0  0  0  0  0  0  0  0  0
    3.4928   -3.7303   -0.8599 C   0  0  1  0  0  0  0  0  0  0  0  0
    2.4172   -4.1786    0.2119 C   0  0  2  0  0  0  0  0  0  0  0  0
    2.5153   -3.6436    1.6496 C   0  0  0  0  0  0  0  0  0  0  0  0
    3.5486   -2.9453    2.1308 C   0  0  0  0  0  0  0  0  0  0  0  0
    4.4929   -3.6039    3.1173 C   0  0  1  0  0  0  0  0  0  0  0  0
    3.7643   -4.2174    4.1722 O   0  0  0  0  0  0  0  0  0  0  0  0
    5.4778   -4.6019    2.3850 C   0  0  1  0  0  0  0  0  0  0  0  0
    6.1951   -5.5470    3.4014 C   0  0  0  0  0  0  0  0  0  0  0  0
    5.5518   -6.9698    3.6023 C   0  0  0  0  0  0  0  0  0  0  0  0
    4.1658   -7.1462    2.9714 C   0  0  0  0  0  0  0  0  0  0  0  0
    3.2085   -8.0218    3.5159 C   0  0  0  0  0  0  0  0  0  0  0  0
    1.9374   -8.1324    2.9181 C   0  0  0  0  0  0  0  0  0  0  0  0
    1.5680   -7.3502    1.7960 C   0  0  0  0  0  0  0  0  0  0  0  0
    0.3154   -7.4274    1.2681 O   0  0  0  0  0  0  0  0  0  0  0  0
    2.5487   -6.4665    1.2920 C   0  0  0  0  0  0  0  0  0  0  0  0
    3.8639   -6.3991    1.8260 C   0  0  0  0  0  0  0  0  0  0  0  0
    4.8850   -5.5270    1.3114 C   0  0  0  0  0  0  0  0  0  0  0  0
    4.9449   -5.5380   -0.0346 C   0  0  0  0  0  0  0  0  0  0  0  0
    4.8533   -4.4218   -0.9699 C   0  0  2  0  0  0  0  0  0  0  0  0
    4.7918   -2.9704   -0.6690 C   0  0  1  0  0  0  0  0  0  0  0  0
    2.1267   -5.6183    0.2469 O   0  0  0  0  0  0  0  0  0  0  0  0
    5.7725   -0.2238   -2.2606 H   0  0  0  0  0  0  0  0  0  0  0  0
    6.5846   -1.0876   -0.9403 H   0  0  0  0  0  0  0  0  0  0  0  0
    5.0305   -0.2962   -0.6579 H   0  0  0  0  0  0  0  0  0  0  0  0
    3.1775   -1.0303   -1.8318 H   0  0  0  0  0  0  0  0  0  0  0  0
    3.7245   -1.5743   -3.4230 H   0  0  0  0  0  0  0  0  0  0  0  0
    1.8156   -2.9469   -2.0585 H   0  0  0  0  0  0  0  0  0  0  0  0
    3.0507   -3.8449   -2.9354 H   0  0  0  0  0  0  0  0  0  0  0  0
    1.4946   -3.7547   -0.1735 H   0  0  0  0  0  0  0  0  0  0  0  0
    2.0682   -4.3380    2.3409 H   0  0  0  0  0  0  0  0  0  0  0  0
    4.0193   -2.1983    1.5307 H   0  0  0  0  0  0  0  0  0  0  0  0
    5.0714   -2.8073    3.5818 H   0  0  0  0  0  0  0  0  0  0  0  0
    3.3733   -5.0173    3.8481 H   0  0  0  0  0  0  0  0  0  0  0  0
    6.2364   -3.9939    1.8956 H   0  0  0  0  0  0  0  0  0  0  0  0
    7.2289   -5.6912    3.0735 H   0  0  0  0  0  0  0  0  0  0  0  0
    6.2805   -5.0458    4.3687 H   0  0  0  0  0  0  0  0  0  0  0  0
    6.2008   -7.7075    3.1293 H   0  0  0  0  0  0  0  0  0  0  0  0
    5.5257   -7.2221    4.6650 H   0  0  0  0  0  0  0  0  0  0  0  0
    3.4412   -8.6065    4.3936 H   0  0  0  0  0  0  0  0  0  0  0  0
    1.2187   -8.8153    3.3468 H   0  0  0  0  0  0  0  0  0  0  0  0
   -0.0355   -8.3098    1.3128 H   0  0  0  0  0  0  0  0  0  0  0  0
    4.4718   -6.3815   -0.5093 H   0  0  0  0  0  0  0  0  0  0  0  0
    5.1840   -4.7031   -1.9659 H   0  0  0  0  0  0  0  0  0  0  0  0
    5.3144   -2.7838    0.2567 H   0  0  0  0  0  0  0  0  0  0  0  0
  1  2  1  0
  1 26  1  0
  1 27  1  0
  1 28  1  0
  2 24  1  0
  2  3  1  0
  3  4  1  0
  3 29  1  0
  3 30  1  0
  5  4  1  6
  4 31  1  0
  4 32  1  0
  5 23  1  0
  5 24  1  0
  5  6  1  0
  6 25  1  0
  6  7  1  0
  6 33  1  6
  7  8  2  3
  7 34  1  0
  8  9  1  0
  8 35  1  0
  9 10  1  0
  9 11  1  0
  9 36  1  1
 10 37  1  0
 11 21  1  0
 11 12  1  0
 11 38  1  6
 12 13  1  0
 12 39  1  0
 12 40  1  0
 13 14  1  0
 13 41  1  0
 13 42  1  0
 14 20  2  0
 14 15  1  0
 15 16  2  0
 15 43  1  0
 16 17  1  0
 16 44  1  0
 17 18  1  0
 17 19  2  0
 18 45  1  0
 19 20  1  0
 19 25  1  0
 20 21  1  0
 21 22  2  3
 22 23  1  0
 22 46  1  0
 23 24  1  0
 23 47  1  6
 24 48  1  1
M  END
>  <i_m_ct_stereo_status>  (195) 
1

>  <s_m_source_file>  (195) 
/var/tmp/pbs.5076255.sched01/tmpm261n1hm/82shs6bvht.sdf

>  <i_m_source_file_index>  (195) 
1

>  <i_lp_mmshare_version>  (195) 
48012

>  <i_f3d_flags>  (195) 
0

>  <s_epik_input>  (195) 
W0NIMl0xW0NIMl1OKFtDSDNdKVtDQEBIXTJbQ0BIXTNcW0NIXT1DKFxbQ0BIXTRbQ0BIXShbT0hdKS9bQ0hdPVtDSF1cW0NASF01W0NAQF0xMjMpYzZjKFtDSDJdW0NIMl00KVtjSF1bY0hdYyhbT0hdKWM2TzU=

>  <s_epik_cmdline>  (195) 
J2VwaWtfcHl0aG9uJywgJy1waHQnLCAnMi4wJywgJy1waCcsICc3LjAnLCAnLXRuJywgJzgnLCAnLW1hJywgJzIwMCcsICctaW1hZScsICc8aW5maWxlLm1hZT4nLCAnLW9tYWUnLCAnPG91dGZpbGUubWFlPic=

>  <r_epik_Ionization_Penalty>  (195) 
2.48197

>  <r_epik_Ionization_Penalty_Charging>  (195) 
0

>  <r_epik_Ionization_Penalty_Neutral>  (195) 
2.48197

>  <r_epik_State_Penalty>  (195) 
2.64544

>  <r_epik_Charging_Adjusted_Penalty>  (195) 
2.64544

>  <i_epik_Tot_Q>  (195) 
0

>  <i_epik_Tot_abs_Q>  (195) 
0

>  <s_lp_Force_Field>  (195) 
OPLS3e

>  <r_lp_Energy>  (195) 
117.153

>  <b_lp_Chiralities_Consistent>  (195) 
1

>  <s_lp_Variant>  (195) 
55:0-8

>  <s_i_glide_gridfile>  (195) 
pfpi4k_grid

>  <i_i_glide_lignum>  (195) 
1

>  <i_i_glide_rotatable_bonds>  (195) 
2

>  <r_i_docking_score>  (195) 
-2.81793

>  <r_i_glide_ligand_efficiency>  (195) 
-0.112717

>  <r_i_glide_ligand_efficiency_sa>  (195) 
-0.329588

>  <r_i_glide_ligand_efficiency_ln>  (195) 
-0.667935

>  <r_i_glide_gscore>  (195) 
-2.81793

>  <r_i_glide_lipo>  (195) 
-0.159908

>  <r_i_glide_hbond>  (195) 
0

>  <r_i_glide_metal>  (195) 
-0

>  <r_i_glide_rewards>  (195) 
-1.10855

>  <r_i_glide_evdw>  (195) 
-19.3452

>  <r_i_glide_ecoul>  (195) 
-3.88143

>  <r_i_glide_erotb>  (195) 
0

>  <r_i_glide_esite>  (195) 
0

>  <r_i_glide_emodel>  (195) 
-27.4948

>  <r_i_glide_energy>  (195) 
-23.2266

>  <r_i_glide_einternal>  (195) 
0.973903

>  <r_i_glide_intrahb_reward>  (195) 
-0

>  <i_i_glide_confnum>  (195) 
2

>  <i_i_glide_posenum>  (195) 
1

>  <r_i_glide_eff_state_penalty>  (195) 
0

>  <ligand_id>  (195) 
55

>  <original_smiles>  (195) 
CN1CCC23C4C=CC(O)C5CCc6ccc(O)c(c6C5=CC2C13)O4

>  <smiles>  (195) 
[H]Oc1c([H])c([H])c2c3c1OC1([H])C([H])=C([H])C([H])(O[H])C([H])(C3=C([H])C3([H])C4([H])N(C([H])([H])[H])C([H])([H])C([H])([H])C134)C([H])([H])C2([H])[H]

$$$$
57:0:0
     RDKit          3D

 50 55  0  0  1  0  0  0  0  0999 V2000
    1.4139   -8.2735    4.3446 C   0  0  0  0  0  0  0  0  0  0  0  0
    1.7617   -7.1052    3.8342 C   0  0  0  0  0  0  0  0  0  0  0  0
    1.2693   -6.3344    2.6694 C   0  0  0  0  0  0  0  0  0  0  0  0
    0.2064   -6.3000    2.0637 O   0  0  0  0  0  0  0  0  0  0  0  0
    2.5983   -5.4576    2.6625 C   0  0  1  0  0  0  0  0  0  0  0  0
    3.4949   -6.0675    1.5349 C   0  0  0  0  0  0  0  0  0  0  0  0
    4.5199   -5.1158    0.8639 C   0  0  1  0  0  0  0  0  0  0  0  0
    4.9947   -5.7516   -0.2862 O   0  0  0  0  0  0  0  0  0  0  0  0
    3.9642   -3.6869    0.5831 C   0  0  2  0  0  0  0  0  0  0  0  0
    2.7641   -3.8255   -0.4096 C   0  0  0  0  0  0  0  0  0  0  0  0
    5.0592   -2.8190   -0.1101 C   0  0  0  0  0  0  0  0  0  0  0  0
    4.7250   -1.3113   -0.2368 C   0  0  1  0  0  0  0  0  0  0  0  0
    3.8121   -1.0583   -1.2869 O   0  0  0  0  0  0  0  0  0  0  0  0
    4.2187   -0.7141    1.0791 C   0  0  0  0  0  0  0  0  0  0  0  0
    3.1240   -1.5744    1.7455 C   0  0  0  0  0  0  0  0  0  0  0  0
    3.5522   -3.0587    1.9743 C   0  0  2  0  0  0  0  0  0  0  0  0
    4.7552   -3.0252    2.9696 C   0  0  0  0  0  0  0  0  0  0  0  0
    2.3614   -3.9178    2.6000 C   0  0  2  0  0  0  0  0  0  0  0  0
    1.7757   -3.3802    3.9326 C   0  0  0  0  0  0  0  0  0  0  0  0
    2.5418   -3.7813    5.2144 C   0  0  0  0  0  0  0  0  0  0  0  0
    2.7436   -5.2788    5.2871 C   0  0  1  0  0  0  0  0  0  0  0  0
    3.5231   -5.8228    6.3854 O   0  0  0  0  0  0  0  0  0  0  0  0
    3.9632   -6.0747    5.0123 C   0  0  1  0  0  0  0  0  0  0  0  0
    2.8152   -6.0897    4.0232 C   0  0  1  0  0  0  0  0  0  0  0  0
    2.0005   -8.6157    5.1900 H   0  0  0  0  0  0  0  0  0  0  0  0
    0.5707   -8.8468    3.9962 H   0  0  0  0  0  0  0  0  0  0  0  0
    4.0775   -6.8897    1.9376 H   0  0  0  0  0  0  0  0  0  0  0  0
    2.9041   -6.5243    0.7430 H   0  0  0  0  0  0  0  0  0  0  0  0
    5.3972   -5.0483    1.5077 H   0  0  0  0  0  0  0  0  0  0  0  0
    4.2911   -5.8105   -0.9242 H   0  0  0  0  0  0  0  0  0  0  0  0
    2.2137   -2.8962   -0.5348 H   0  0  0  0  0  0  0  0  0  0  0  0
    2.0376   -4.5785   -0.1147 H   0  0  0  0  0  0  0  0  0  0  0  0
    3.1142   -4.1070   -1.4057 H   0  0  0  0  0  0  0  0  0  0  0  0
    6.0008   -2.9197    0.4315 H   0  0  0  0  0  0  0  0  0  0  0  0
    5.2899   -3.2169   -1.1004 H   0  0  0  0  0  0  0  0  0  0  0  0
    5.6451   -0.7933   -0.5129 H   0  0  0  0  0  0  0  0  0  0  0  0
    2.9248   -1.2336   -0.9786 H   0  0  0  0  0  0  0  0  0  0  0  0
    5.0602   -0.6035    1.7736 H   0  0  0  0  0  0  0  0  0  0  0  0
    3.8481    0.2999    0.9127 H   0  0  0  0  0  0  0  0  0  0  0  0
    2.8714   -1.0923    2.6875 H   0  0  0  0  0  0  0  0  0  0  0  0
    2.2136   -1.5214    1.1440 H   0  0  0  0  0  0  0  0  0  0  0  0
    4.5809   -2.3274    3.7899 H   0  0  0  0  0  0  0  0  0  0  0  0
    5.6880   -2.7094    2.5175 H   0  0  0  0  0  0  0  0  0  0  0  0
    4.9457   -3.9979    3.4059 H   0  0  0  0  0  0  0  0  0  0  0  0
    1.5404   -3.7052    1.9259 H   0  0  0  0  0  0  0  0  0  0  0  0
    1.6226   -2.3076    3.9469 H   0  0  0  0  0  0  0  0  0  0  0  0
    0.7674   -3.7882    4.0402 H   0  0  0  0  0  0  0  0  0  0  0  0
    3.4951   -3.3249    5.3431 H   0  0  0  0  0  0  0  0  0  0  0  0
    1.9343   -3.5369    6.0744 H   0  0  0  0  0  0  0  0  0  0  0  0
    4.9071   -5.6128    4.6906 H   0  0  0  0  0  0  0  0  0  0  0  0
  1  2  2  0
  1 25  1  0
  1 26  1  0
 24  2  1  1
  2  3  1  0
  3  4  2  0
  3  5  1  0
  5 18  1  0
  5 24  1  0
  5  6  1  6
  6  7  1  0
  6 27  1  0
  6 28  1  0
  7  8  1  0
  7  9  1  0
  7 29  1  1
  8 30  1  0
  9 16  1  0
  9 10  1  6
  9 11  1  0
 10 31  1  0
 10 32  1  0
 10 33  1  0
 11 12  1  0
 11 34  1  0
 11 35  1  0
 12 13  1  0
 12 14  1  0
 12 36  1  6
 13 37  1  0
 14 15  1  0
 14 38  1  0
 14 39  1  0
 15 16  1  0
 15 40  1  0
 15 41  1  0
 16 17  1  1
 16 18  1  0
 17 42  1  0
 17 43  1  0
 17 44  1  0
 18 19  1  0
 18 45  1  6
 19 20  1  0
 19 46  1  0
 19 47  1  0
 20 21  1  0
 20 48  1  0
 20 49  1  0
 21 23  1  0
 21 24  1  0
 21 22  1  1
 22 23  1  0
 23 24  1  0
 23 50  1  1
M  END
>  <i_m_ct_stereo_status>  (196) 
1

>  <s_m_source_file>  (196) 
/var/tmp/pbs.5076255.sched01/tmpm261n1hm/82shs6bvht.sdf

>  <i_m_source_file_index>  (196) 
4

>  <i_lp_mmshare_version>  (196) 
48012

>  <i_f3d_flags>  (196) 
0

>  <s_epik_input>  (196) 
Tz1DMUMoPVtDSDJdKVtDQEBdMihbQ0BdMTM0KVtDQEBdNShbQ0BIXTJPNSlbQ0gyXVtDSDJdW0NASF00W0NAQF02KFtDSDNdKVtDQF0oW0NIM10pKFtDQEBIXShbQ0gyXTMpW09IXSlbQ0gyXVtDQEBIXShbT0hdKVtDSDJdW0NIMl02

>  <s_epik_cmdline>  (196) 
J2VwaWtfcHl0aG9uJywgJy1waHQnLCAnMi4wJywgJy1waCcsICc3LjAnLCAnLXRuJywgJzgnLCAnLW1hJywgJzIwMCcsICctaW1hZScsICc8aW5maWxlLm1hZT4nLCAnLW9tYWUnLCAnPG91dGZpbGUubWFlPic=

>  <r_lp_tautomer_probability>  (196) 
1

>  <r_epik_Ionization_Penalty>  (196) 
1.15324e-06

>  <r_epik_Ionization_Penalty_Charging>  (196) 
0

>  <r_epik_Ionization_Penalty_Neutral>  (196) 
1.15324e-06

>  <r_epik_State_Penalty>  (196) 
-0

>  <r_epik_Charging_Adjusted_Penalty>  (196) 
0

>  <i_epik_Tot_Q>  (196) 
0

>  <i_epik_Tot_abs_Q>  (196) 
0

>  <s_lp_Force_Field>  (196) 
OPLS3e

>  <r_lp_Energy>  (196) 
55.3751

>  <b_lp_Chiralities_Consistent>  (196) 
1

>  <s_lp_Variant>  (196) 
57:0-1

>  <s_i_glide_gridfile>  (196) 
pfpi4k_grid

>  <i_i_glide_lignum>  (196) 
4

>  <i_i_glide_rotatable_bonds>  (196) 
2

>  <r_i_docking_score>  (196) 
-4.12454

>  <r_i_glide_ligand_efficiency>  (196) 
-0.171856

>  <r_i_glide_ligand_efficiency_sa>  (196) 
-0.495718

>  <r_i_glide_ligand_efficiency_ln>  (196) 
-0.987191

>  <r_i_glide_gscore>  (196) 
-4.12454

>  <r_i_glide_lipo>  (196) 
-0.232012

>  <r_i_glide_hbond>  (196) 
-0.558296

>  <r_i_glide_metal>  (196) 
-0

>  <r_i_glide_rewards>  (196) 
-1.15624

>  <r_i_glide_evdw>  (196) 
-20.22

>  <r_i_glide_ecoul>  (196) 
-7.54241

>  <r_i_glide_erotb>  (196) 
0

>  <r_i_glide_esite>  (196) 
-0.035628

>  <r_i_glide_emodel>  (196) 
-34.5587

>  <r_i_glide_energy>  (196) 
-27.7624

>  <r_i_glide_einternal>  (196) 
0.306139

>  <r_i_glide_intrahb_reward>  (196) 
-0

>  <i_i_glide_confnum>  (196) 
2

>  <i_i_glide_posenum>  (196) 
19

>  <r_i_glide_eff_state_penalty>  (196) 
0

>  <ligand_id>  (196) 
57

>  <original_smiles>  (196) 
C=C1C(=O)C23CC(O)C4(C)CC(O)CCC4(C)C2CCC24OC2C143

>  <smiles>  (196) 
[H]OC1([H])C([H])([H])C([H])([H])C2(C([H])([H])[H])C3([H])C([H])([H])C([H])([H])C45OC4([H])C54C(=C([H])[H])C(=O)C34C([H])([H])C([H])(O[H])C2(C([H])([H])[H])C1([H])[H]

$$$$
57:0:1
     RDKit          3D

 50 55  0  0  1  0  0  0  0  0999 V2000
    4.1554  -10.0676    4.6682 C   0  0  0  0  0  0  0  0  0  0  0  0
    4.3147   -8.9239    4.0462 C   0  0  0  0  0  0  0  0  0  0  0  0
    3.8640   -7.5379    4.3714 C   0  0  0  0  0  0  0  0  0  0  0  0
    3.5517   -6.9840    5.4014 O   0  0  0  0  0  0  0  0  0  0  0  0
    4.1041   -7.0938    2.8576 C   0  0  1  0  0  0  0  0  0  0  0  0
    2.6924   -7.1060    2.1755 C   0  0  0  0  0  0  0  0  0  0  0  0
    2.4728   -6.1540    0.9665 C   0  0  1  0  0  0  0  0  0  0  0  0
    1.0764   -6.1036    0.7135 O   0  0  0  0  0  0  0  0  0  0  0  0
    3.1320   -4.7517    1.1492 C   0  0  2  0  0  0  0  0  0  0  0  0
    2.4532   -4.0611    2.3776 C   0  0  0  0  0  0  0  0  0  0  0  0
    2.8643   -3.8776   -0.1172 C   0  0  0  0  0  0  0  0  0  0  0  0
    3.6333   -2.5395   -0.1849 C   0  0  1  0  0  0  0  0  0  0  0  0
    3.0509   -1.5649    0.6582 O   0  0  0  0  0  0  0  0  0  0  0  0
    5.1260   -2.7185    0.1234 C   0  0  0  0  0  0  0  0  0  0  0  0
    5.3839   -3.5711    1.3793 C   0  0  0  0  0  0  0  0  0  0  0  0
    4.6853   -4.9702    1.3416 C   0  0  2  0  0  0  0  0  0  0  0  0
    5.3139   -5.7443    0.1434 C   0  0  0  0  0  0  0  0  0  0  0  0
    4.9304   -5.7784    2.7016 C   0  0  2  0  0  0  0  0  0  0  0  0
    6.4250   -6.0045    3.0753 C   0  0  0  0  0  0  0  0  0  0  0  0
    7.1284   -7.2030    2.3959 C   0  0  0  0  0  0  0  0  0  0  0  0
    6.3354   -8.4750    2.5814 C   0  0  1  0  0  0  0  0  0  0  0  0
    6.7951   -9.6871    1.9325 O   0  0  0  0  0  0  0  0  0  0  0  0
    5.4618   -9.1847    1.6101 C   0  0  1  0  0  0  0  0  0  0  0  0
    4.8458   -8.4157    2.7595 C   0  0  1  0  0  0  0  0  0  0  0  0
    4.5566  -10.9469    4.1652 H   0  0  0  0  0  0  0  0  0  0  0  0
    3.6951  -10.1561    5.6439 H   0  0  0  0  0  0  0  0  0  0  0  0
    2.4754   -8.1087    1.8148 H   0  0  0  0  0  0  0  0  0  0  0  0
    1.9015   -6.9019    2.8910 H   0  0  0  0  0  0  0  0  0  0  0  0
    2.8972   -6.6267    0.0890 H   0  0  0  0  0  0  0  0  0  0  0  0
    0.7628   -6.9932    0.6238 H   0  0  0  0  0  0  0  0  0  0  0  0
    2.9540   -3.1405    2.6712 H   0  0  0  0  0  0  0  0  0  0  0  0
    2.4192   -4.6907    3.2613 H   0  0  0  0  0  0  0  0  0  0  0  0
    1.4200   -3.7922    2.1517 H   0  0  0  0  0  0  0  0  0  0  0  0
    3.1034   -4.4449   -1.0213 H   0  0  0  0  0  0  0  0  0  0  0  0
    1.8055   -3.6682   -0.2256 H   0  0  0  0  0  0  0  0  0  0  0  0
    3.5343   -2.1405   -1.1957 H   0  0  0  0  0  0  0  0  0  0  0  0
    2.2480   -1.2605    0.2420 H   0  0  0  0  0  0  0  0  0  0  0  0
    5.6055   -3.1912   -0.7414 H   0  0  0  0  0  0  0  0  0  0  0  0
    5.6031   -1.7430    0.2274 H   0  0  0  0  0  0  0  0  0  0  0  0
    6.4618   -3.6804    1.4693 H   0  0  0  0  0  0  0  0  0  0  0  0
    5.0765   -3.0075    2.2636 H   0  0  0  0  0  0  0  0  0  0  0  0
    6.3944   -5.6260    0.0895 H   0  0  0  0  0  0  0  0  0  0  0  0
    4.9558   -5.4182   -0.8257 H   0  0  0  0  0  0  0  0  0  0  0  0
    5.1021   -6.8069    0.1990 H   0  0  0  0  0  0  0  0  0  0  0  0
    4.6241   -5.0675    3.4642 H   0  0  0  0  0  0  0  0  0  0  0  0
    7.0406   -5.1243    2.9392 H   0  0  0  0  0  0  0  0  0  0  0  0
    6.4604   -6.1913    4.1556 H   0  0  0  0  0  0  0  0  0  0  0  0
    7.3133   -7.0976    1.3518 H   0  0  0  0  0  0  0  0  0  0  0  0
    8.0673   -7.3773    2.8959 H   0  0  0  0  0  0  0  0  0  0  0  0
    5.2824   -8.8193    0.5874 H   0  0  0  0  0  0  0  0  0  0  0  0
  1  2  2  0
  1 25  1  0
  1 26  1  0
 24  2  1  1
  2  3  1  0
  3  4  2  0
  3  5  1  0
  5 18  1  0
  5 24  1  0
  5  6  1  6
  6  7  1  0
  6 27  1  0
  6 28  1  0
  7  8  1  0
  7  9  1  0
  7 29  1  6
  8 30  1  0
  9 16  1  0
  9 10  1  1
  9 11  1  0
 10 31  1  0
 10 32  1  0
 10 33  1  0
 11 12  1  0
 11 34  1  0
 11 35  1  0
 12 13  1  0
 12 14  1  0
 12 36  1  6
 13 37  1  0
 14 15  1  0
 14 38  1  0
 14 39  1  0
 15 16  1  0
 15 40  1  0
 15 41  1  0
 16 17  1  6
 16 18  1  0
 17 42  1  0
 17 43  1  0
 17 44  1  0
 18 19  1  0
 18 45  1  1
 19 20  1  0
 19 46  1  0
 19 47  1  0
 20 21  1  0
 20 48  1  0
 20 49  1  0
 21 23  1  0
 21 24  1  0
 21 22  1  1
 22 23  1  0
 23 24  1  0
 23 50  1  6
M  END
>  <i_m_ct_stereo_status>  (197) 
1

>  <s_m_source_file>  (197) 
/var/tmp/pbs.5076255.sched01/tmpm261n1hm/82shs6bvht.sdf

>  <i_m_source_file_index>  (197) 
4

>  <i_lp_mmshare_version>  (197) 
48012

>  <i_f3d_flags>  (197) 
0

>  <s_epik_input>  (197) 
Tz1DMUMoPVtDSDJdKVtDQEBdMihbQ0BdMTM0KVtDQEBdNShbQ0BIXTJPNSlbQ0gyXVtDSDJdW0NASF00W0NAQF02KFtDSDNdKVtDQF0oW0NIM10pKFtDQEBIXShbQ0gyXTMpW09IXSlbQ0gyXVtDQEBIXShbT0hdKVtDSDJdW0NIMl02

>  <s_epik_cmdline>  (197) 
J2VwaWtfcHl0aG9uJywgJy1waHQnLCAnMi4wJywgJy1waCcsICc3LjAnLCAnLXRuJywgJzgnLCAnLW1hJywgJzIwMCcsICctaW1hZScsICc8aW5maWxlLm1hZT4nLCAnLW9tYWUnLCAnPG91dGZpbGUubWFlPic=

>  <r_lp_tautomer_probability>  (197) 
1

>  <r_epik_Ionization_Penalty>  (197) 
1.15324e-06

>  <r_epik_Ionization_Penalty_Charging>  (197) 
0

>  <r_epik_Ionization_Penalty_Neutral>  (197) 
1.15324e-06

>  <r_epik_State_Penalty>  (197) 
-0

>  <r_epik_Charging_Adjusted_Penalty>  (197) 
0

>  <i_epik_Tot_Q>  (197) 
0

>  <i_epik_Tot_abs_Q>  (197) 
0

>  <s_lp_Force_Field>  (197) 
OPLS3e

>  <r_lp_Energy>  (197) 
55.3751

>  <b_lp_Chiralities_Consistent>  (197) 
1

>  <s_lp_Variant>  (197) 
57:0-1

>  <s_i_glide_gridfile>  (197) 
pfpi4k_grid

>  <i_i_glide_lignum>  (197) 
4

>  <i_i_glide_rotatable_bonds>  (197) 
2

>  <r_i_docking_score>  (197) 
-3.79381

>  <r_i_glide_ligand_efficiency>  (197) 
-0.158076

>  <r_i_glide_ligand_efficiency_sa>  (197) 
-0.455969

>  <r_i_glide_ligand_efficiency_ln>  (197) 
-0.908034

>  <r_i_glide_gscore>  (197) 
-3.79381

>  <r_i_glide_lipo>  (197) 
-0.241988

>  <r_i_glide_hbond>  (197) 
-0.32

>  <r_i_glide_metal>  (197) 
-0

>  <r_i_glide_rewards>  (197) 
-1.15624

>  <r_i_glide_evdw>  (197) 
-18.6189

>  <r_i_glide_ecoul>  (197) 
-7.63092

>  <r_i_glide_erotb>  (197) 
0

>  <r_i_glide_esite>  (197) 
-2.64547e-07

>  <r_i_glide_emodel>  (197) 
-31.9855

>  <r_i_glide_energy>  (197) 
-26.2498

>  <r_i_glide_einternal>  (197) 
0.895489

>  <r_i_glide_intrahb_reward>  (197) 
-0

>  <i_i_glide_confnum>  (197) 
1

>  <i_i_glide_posenum>  (197) 
23

>  <r_i_glide_eff_state_penalty>  (197) 
0

>  <ligand_id>  (197) 
57

>  <original_smiles>  (197) 
C=C1C(=O)C23CC(O)C4(C)CC(O)CCC4(C)C2CCC24OC2C143

>  <smiles>  (197) 
[H]OC1([H])C([H])([H])C([H])([H])C2(C([H])([H])[H])C3([H])C([H])([H])C([H])([H])C45OC4([H])C54C(=C([H])[H])C(=O)C34C([H])([H])C([H])(O[H])C2(C([H])([H])[H])C1([H])[H]

$$$$
57:0:2
     RDKit          3D

 50 55  0  0  1  0  0  0  0  0999 V2000
    2.3341   -9.2915    4.7602 C   0  0  0  0  0  0  0  0  0  0  0  0
    2.9080   -8.2640    4.1527 C   0  0  0  0  0  0  0  0  0  0  0  0
    2.6523   -6.8071    4.1906 C   0  0  0  0  0  0  0  0  0  0  0  0
    2.1302   -6.0714    5.0098 O   0  0  0  0  0  0  0  0  0  0  0  0
    3.4356   -6.6028    2.8381 C   0  0  1  0  0  0  0  0  0  0  0  0
    2.3531   -6.5011    1.7246 C   0  0  0  0  0  0  0  0  0  0  0  0
    2.7233   -5.7206    0.4517 C   0  0  1  0  0  0  0  0  0  0  0  0
    1.5328   -5.5968   -0.3128 O   0  0  0  0  0  0  0  0  0  0  0  0
    3.5235   -4.4033    0.7127 C   0  0  2  0  0  0  0  0  0  0  0  0
    2.6449   -3.4454    1.5776 C   0  0  0  0  0  0  0  0  0  0  0  0
    3.8436   -3.6703   -0.6382 C   0  0  0  0  0  0  0  0  0  0  0  0
    4.8423   -2.4912   -0.5389 C   0  0  1  0  0  0  0  0  0  0  0  0
    4.2307   -1.3399    0.0092 O   0  0  0  0  0  0  0  0  0  0  0  0
    6.1004   -2.8589    0.2653 C   0  0  0  0  0  0  0  0  0  0  0  0
    5.7736   -3.5618    1.6014 C   0  0  0  0  0  0  0  0  0  0  0  0
    4.8681   -4.8259    1.4413 C   0  0  2  0  0  0  0  0  0  0  0  0
    5.6938   -5.8414    0.5928 C   0  0  0  0  0  0  0  0  0  0  0  0
    4.5194   -5.4643    2.8556 C   0  0  2  0  0  0  0  0  0  0  0  0
    5.7347   -5.8614    3.7345 C   0  0  0  0  0  0  0  0  0  0  0  0
    6.3652   -7.2418    3.4264 C   0  0  0  0  0  0  0  0  0  0  0  0
    5.3488   -8.3466    3.4269 C   0  0  1  0  0  0  0  0  0  0  0  0
    5.7575   -9.6711    3.0598 O   0  0  0  0  0  0  0  0  0  0  0  0
    4.7228   -9.0430    2.2700 C   0  0  1  0  0  0  0  0  0  0  0  0
    3.9131   -8.0500    3.0891 C   0  0  1  0  0  0  0  0  0  0  0  0
    2.7134  -10.2753    4.4941 H   0  0  0  0  0  0  0  0  0  0  0  0
    1.5897   -9.1652    5.5360 H   0  0  0  0  0  0  0  0  0  0  0  0
    2.0709   -7.4895    1.3698 H   0  0  0  0  0  0  0  0  0  0  0  0
    1.4239   -6.0736    2.0978 H   0  0  0  0  0  0  0  0  0  0  0  0
    3.3279   -6.3468   -0.1997 H   0  0  0  0  0  0  0  0  0  0  0  0
    1.7802   -5.2857   -1.1769 H   0  0  0  0  0  0  0  0  0  0  0  0
    3.1959   -2.5866    1.9614 H   0  0  0  0  0  0  0  0  0  0  0  0
    2.2072   -3.9374    2.4437 H   0  0  0  0  0  0  0  0  0  0  0  0
    1.8170   -3.0453    0.9893 H   0  0  0  0  0  0  0  0  0  0  0  0
    4.2415   -4.3877   -1.3561 H   0  0  0  0  0  0  0  0  0  0  0  0
    2.9206   -3.3203   -1.1029 H   0  0  0  0  0  0  0  0  0  0  0  0
    5.1459   -2.2233   -1.5497 H   0  0  0  0  0  0  0  0  0  0  0  0
    3.3810   -1.2229   -0.3953 H   0  0  0  0  0  0  0  0  0  0  0  0
    6.7372   -3.5098   -0.3414 H   0  0  0  0  0  0  0  0  0  0  0  0
    6.6974   -1.9632    0.4570 H   0  0  0  0  0  0  0  0  0  0  0  0
    6.7282   -3.8262    2.0563 H   0  0  0  0  0  0  0  0  0  0  0  0
    5.3212   -2.8409    2.2843 H   0  0  0  0  0  0  0  0  0  0  0  0
    6.7357   -5.8966    0.9120 H   0  0  0  0  0  0  0  0  0  0  0  0
    5.7327   -5.5917   -0.4657 H   0  0  0  0  0  0  0  0  0  0  0  0
    5.2835   -6.8442    0.6491 H   0  0  0  0  0  0  0  0  0  0  0  0
    4.1217   -4.6245    3.4137 H   0  0  0  0  0  0  0  0  0  0  0  0
    6.5157   -5.1046    3.7564 H   0  0  0  0  0  0  0  0  0  0  0  0
    5.3894   -5.9166    4.7679 H   0  0  0  0  0  0  0  0  0  0  0  0
    6.8984   -7.3166    2.4942 H   0  0  0  0  0  0  0  0  0  0  0  0
    7.0528   -7.4960    4.2251 H   0  0  0  0  0  0  0  0  0  0  0  0
    4.9288   -8.7791    1.2315 H   0  0  0  0  0  0  0  0  0  0  0  0
  1  2  2  0
  1 25  1  0
  1 26  1  0
 24  2  1  1
  2  3  1  0
  3  4  2  0
  3  5  1  0
  5 18  1  0
  5 24  1  0
  5  6  1  6
  6  7  1  0
  6 27  1  0
  6 28  1  0
  7  8  1  0
  7  9  1  0
  7 29  1  6
  8 30  1  0
  9 16  1  0
  9 10  1  1
  9 11  1  0
 10 31  1  0
 10 32  1  0
 10 33  1  0
 11 12  1  0
 11 34  1  0
 11 35  1  0
 12 13  1  0
 12 14  1  0
 12 36  1  6
 13 37  1  0
 14 15  1  0
 14 38  1  0
 14 39  1  0
 15 16  1  0
 15 40  1  0
 15 41  1  0
 16 17  1  6
 16 18  1  0
 17 42  1  0
 17 43  1  0
 17 44  1  0
 18 19  1  0
 18 45  1  1
 19 20  1  0
 19 46  1  0
 19 47  1  0
 20 21  1  0
 20 48  1  0
 20 49  1  0
 21 23  1  0
 21 24  1  0
 21 22  1  1
 22 23  1  0
 23 24  1  0
 23 50  1  6
M  END
>  <i_m_ct_stereo_status>  (198) 
1

>  <s_m_source_file>  (198) 
/var/tmp/pbs.5076255.sched01/tmpm261n1hm/82shs6bvht.sdf

>  <i_m_source_file_index>  (198) 
4

>  <i_lp_mmshare_version>  (198) 
48012

>  <i_f3d_flags>  (198) 
0

>  <s_epik_input>  (198) 
Tz1DMUMoPVtDSDJdKVtDQEBdMihbQ0BdMTM0KVtDQEBdNShbQ0BIXTJPNSlbQ0gyXVtDSDJdW0NASF00W0NAQF02KFtDSDNdKVtDQF0oW0NIM10pKFtDQEBIXShbQ0gyXTMpW09IXSlbQ0gyXVtDQEBIXShbT0hdKVtDSDJdW0NIMl02

>  <s_epik_cmdline>  (198) 
J2VwaWtfcHl0aG9uJywgJy1waHQnLCAnMi4wJywgJy1waCcsICc3LjAnLCAnLXRuJywgJzgnLCAnLW1hJywgJzIwMCcsICctaW1hZScsICc8aW5maWxlLm1hZT4nLCAnLW9tYWUnLCAnPG91dGZpbGUubWFlPic=

>  <r_lp_tautomer_probability>  (198) 
1

>  <r_epik_Ionization_Penalty>  (198) 
1.15324e-06

>  <r_epik_Ionization_Penalty_Charging>  (198) 
0

>  <r_epik_Ionization_Penalty_Neutral>  (198) 
1.15324e-06

>  <r_epik_State_Penalty>  (198) 
-0

>  <r_epik_Charging_Adjusted_Penalty>  (198) 
0

>  <i_epik_Tot_Q>  (198) 
0

>  <i_epik_Tot_abs_Q>  (198) 
0

>  <s_lp_Force_Field>  (198) 
OPLS3e

>  <r_lp_Energy>  (198) 
55.3751

>  <b_lp_Chiralities_Consistent>  (198) 
1

>  <s_lp_Variant>  (198) 
57:0-1

>  <s_i_glide_gridfile>  (198) 
pfpi4k_grid

>  <i_i_glide_lignum>  (198) 
4

>  <i_i_glide_rotatable_bonds>  (198) 
2

>  <r_i_docking_score>  (198) 
-3.74872

>  <r_i_glide_ligand_efficiency>  (198) 
-0.156197

>  <r_i_glide_ligand_efficiency_sa>  (198) 
-0.450549

>  <r_i_glide_ligand_efficiency_ln>  (198) 
-0.897241

>  <r_i_glide_gscore>  (198) 
-3.74872

>  <r_i_glide_lipo>  (198) 
-0.248334

>  <r_i_glide_hbond>  (198) 
-0.456495

>  <r_i_glide_metal>  (198) 
-0

>  <r_i_glide_rewards>  (198) 
-1.15624

>  <r_i_glide_evdw>  (198) 
-18.237

>  <r_i_glide_ecoul>  (198) 
-6.50396

>  <r_i_glide_erotb>  (198) 
0

>  <r_i_glide_esite>  (198) 
-0.000206455

>  <r_i_glide_emodel>  (198) 
-30.387

>  <r_i_glide_energy>  (198) 
-24.741

>  <r_i_glide_einternal>  (198) 
0.979799

>  <r_i_glide_intrahb_reward>  (198) 
-0

>  <i_i_glide_confnum>  (198) 
1

>  <i_i_glide_posenum>  (198) 
11

>  <r_i_glide_eff_state_penalty>  (198) 
0

>  <ligand_id>  (198) 
57

>  <original_smiles>  (198) 
C=C1C(=O)C23CC(O)C4(C)CC(O)CCC4(C)C2CCC24OC2C143

>  <smiles>  (198) 
[H]OC1([H])C([H])([H])C([H])([H])C2(C([H])([H])[H])C3([H])C([H])([H])C([H])([H])C45OC4([H])C54C(=C([H])[H])C(=O)C34C([H])([H])C([H])(O[H])C2(C([H])([H])[H])C1([H])[H]

$$$$
58:0:0
     RDKit          3D

 47 51  0  0  1  0  0  0  0  0999 V2000
    6.5487   -2.2303    0.6335 C   0  0  0  0  0  0  0  0  0  0  0  0
    5.3461   -3.1070    0.2266 C   0  0  2  0  0  0  0  0  0  0  0  0
    4.0217   -2.4980    0.7250 C   0  0  0  0  0  0  0  0  0  0  0  0
    2.8139   -3.4010    0.4019 C   0  0  0  0  0  0  0  0  0  0  0  0
    2.9757   -4.8297    0.9717 C   0  0  0  0  0  0  0  0  0  0  0  0
    4.2901   -5.4312    0.4200 C   0  0  0  0  0  0  0  0  0  0  0  0
    5.5052   -4.5461    0.7506 C   0  0  0  0  0  0  0  0  0  0  0  0
    1.8458   -5.6015    0.5738 O   0  0  0  0  0  0  0  0  0  0  0  0
    1.9723   -6.9903    1.1684 O   0  0  0  0  0  0  0  0  0  0  0  0
    2.0302   -6.9032    2.5921 C   0  0  0  0  0  0  0  0  0  0  0  0
    3.1498   -6.1066    2.9756 O   0  0  0  0  0  0  0  0  0  0  0  0
    2.9955   -4.7257    2.3890 O   0  0  0  0  0  0  0  0  0  0  0  0
    0.6932   -6.3656    3.1805 C   0  0  2  0  0  0  0  0  0  0  0  0
    0.7661   -6.3147    4.7243 C   0  0  0  0  0  0  0  0  0  0  0  0
    0.9959   -7.7319    5.2807 C   0  0  1  0  0  0  0  0  0  0  0  0
   -0.1769   -8.6474    4.8709 C   0  0  0  0  0  0  0  0  0  0  0  0
   -0.2467   -8.7069    3.3336 C   0  0  1  0  0  0  0  0  0  0  0  0
   -0.4797   -7.2904    2.7700 C   0  0  0  0  0  0  0  0  0  0  0  0
    1.0788   -9.2712    2.7782 C   0  0  0  0  0  0  0  0  0  0  0  0
    2.2516   -8.3374    3.1671 C   0  0  2  0  0  0  0  0  0  0  0  0
    2.3223   -8.2857    4.7158 C   0  0  0  0  0  0  0  0  0  0  0  0
    6.6208   -2.1551    1.7204 H   0  0  0  0  0  0  0  0  0  0  0  0
    6.4662   -1.2140    0.2459 H   0  0  0  0  0  0  0  0  0  0  0  0
    7.4921   -2.6467    0.2708 H   0  0  0  0  0  0  0  0  0  0  0  0
    5.3151   -3.1391   -0.8668 H   0  0  0  0  0  0  0  0  0  0  0  0
    4.0772   -2.3399    1.8029 H   0  0  0  0  0  0  0  0  0  0  0  0
    3.8740   -1.5140    0.2770 H   0  0  0  0  0  0  0  0  0  0  0  0
    1.9118   -2.9278    0.7947 H   0  0  0  0  0  0  0  0  0  0  0  0
    2.6864   -3.4468   -0.6833 H   0  0  0  0  0  0  0  0  0  0  0  0
    4.4671   -6.4382    0.7943 H   0  0  0  0  0  0  0  0  0  0  0  0
    4.2096   -5.5310   -0.6625 H   0  0  0  0  0  0  0  0  0  0  0  0
    6.4080   -4.9931    0.3295 H   0  0  0  0  0  0  0  0  0  0  0  0
    5.6458   -4.5234    1.8323 H   0  0  0  0  0  0  0  0  0  0  0  0
    0.5051   -5.3592    2.8134 H   0  0  0  0  0  0  0  0  0  0  0  0
    1.5710   -5.6593    5.0502 H   0  0  0  0  0  0  0  0  0  0  0  0
   -0.1516   -5.8998    5.1399 H   0  0  0  0  0  0  0  0  0  0  0  0
    1.0521   -7.7001    6.3678 H   0  0  0  0  0  0  0  0  0  0  0  0
   -0.0559   -9.6503    5.2897 H   0  0  0  0  0  0  0  0  0  0  0  0
   -1.1178   -8.2686    5.2729 H   0  0  0  0  0  0  0  0  0  0  0  0
   -1.0679   -9.3657    3.0510 H   0  0  0  0  0  0  0  0  0  0  0  0
   -1.4285   -6.9045    3.1425 H   0  0  0  0  0  0  0  0  0  0  0  0
   -0.5762   -7.3437    1.6865 H   0  0  0  0  0  0  0  0  0  0  0  0
    1.2436  -10.2787    3.1725 H   0  0  0  0  0  0  0  0  0  0  0  0
    1.0156   -9.3773    1.6935 H   0  0  0  0  0  0  0  0  0  0  0  0
    3.1802   -8.7590    2.7723 H   0  0  0  0  0  0  0  0  0  0  0  0
    3.1524   -7.6575    5.0452 H   0  0  0  0  0  0  0  0  0  0  0  0
    2.5103   -9.2815    5.1264 H   0  0  0  0  0  0  0  0  0  0  0  0
  1  2  1  0
  1 22  1  0
  1 23  1  0
  1 24  1  0
  2  7  1  0
  2  3  1  0
  2 25  1  6
  3  4  1  0
  3 26  1  0
  3 27  1  0
  4  5  1  0
  4 28  1  0
  4 29  1  0
  5 12  1  0
  5  6  1  0
  5  8  1  0
  6  7  1  0
  6 30  1  0
  6 31  1  0
  7 32  1  0
  7 33  1  0
  8  9  1  0
  9 10  1  0
 10 20  1  0
 10 11  1  0
 10 13  1  0
 11 12  1  0
 13 18  1  0
 13 14  1  0
 13 34  1  6
 14 15  1  0
 14 35  1  0
 14 36  1  0
 15 21  1  0
 15 16  1  0
 15 37  1  1
 16 17  1  0
 16 38  1  0
 16 39  1  0
 17 18  1  0
 17 19  1  0
 17 40  1  1
 18 41  1  0
 18 42  1  0
 19 20  1  0
 19 43  1  0
 19 44  1  0
 20 21  1  0
 20 45  1  6
 21 46  1  0
 21 47  1  0
M  END
>  <i_m_ct_stereo_status>  (199) 
1

>  <s_m_source_file>  (199) 
/var/tmp/pbs.5076255.sched01/tmpm261n1hm/82shs6bvht.sdf

>  <i_m_source_file_index>  (199) 
5

>  <i_lp_mmshare_version>  (199) 
48012

>  <i_f3d_flags>  (199) 
0

>  <s_epik_input>  (199) 
W0NIMl0xW0NIMl1bQ0hdKFtDSDNdKVtDSDJdW0NIMl1DMTJPT0MzKE9PMilbQ0BASF00W0NIMl1bQ0BIXTVbQ0gyXVtDQEBIXShbQ0gyXTQpW0NIMl1bQ0BASF0zW0NIMl01

>  <s_epik_cmdline>  (199) 
J2VwaWtfcHl0aG9uJywgJy1waHQnLCAnMi4wJywgJy1waCcsICc3LjAnLCAnLXRuJywgJzgnLCAnLW1hJywgJzIwMCcsICctaW1hZScsICc8aW5maWxlLm1hZT4nLCAnLW9tYWUnLCAnPG91dGZpbGUubWFlPic=

>  <r_lp_tautomer_probability>  (199) 
1

>  <r_epik_Ionization_Penalty>  (199) 
0

>  <r_epik_Ionization_Penalty_Charging>  (199) 
0

>  <r_epik_Ionization_Penalty_Neutral>  (199) 
0

>  <r_epik_State_Penalty>  (199) 
-0

>  <r_epik_Charging_Adjusted_Penalty>  (199) 
0

>  <i_epik_Tot_Q>  (199) 
0

>  <i_epik_Tot_abs_Q>  (199) 
0

>  <s_lp_Force_Field>  (199) 
OPLS3e

>  <r_lp_Energy>  (199) 
-0.543675

>  <b_lp_Chiralities_Consistent>  (199) 
1

>  <s_lp_Variant>  (199) 
58:0-1

>  <s_i_glide_gridfile>  (199) 
pfpi4k_grid

>  <i_i_glide_lignum>  (199) 
5

>  <i_i_glide_rotatable_bonds>  (199) 
0

>  <r_i_docking_score>  (199) 
-3.11425

>  <r_i_glide_ligand_efficiency>  (199) 
-0.148297

>  <r_i_glide_ligand_efficiency_sa>  (199) 
-0.409141

>  <r_i_glide_ligand_efficiency_ln>  (199) 
-0.769991

>  <r_i_glide_gscore>  (199) 
-3.11425

>  <r_i_glide_lipo>  (199) 
-0.268082

>  <r_i_glide_hbond>  (199) 
-0.0857238

>  <r_i_glide_metal>  (199) 
-0

>  <r_i_glide_rewards>  (199) 
-1.40191

>  <r_i_glide_evdw>  (199) 
-22.3001

>  <r_i_glide_ecoul>  (199) 
-1.45672

>  <r_i_glide_erotb>  (199) 
0

>  <r_i_glide_esite>  (199) 
-0.0250117

>  <r_i_glide_emodel>  (199) 
-28.4741

>  <r_i_glide_energy>  (199) 
-23.7569

>  <r_i_glide_einternal>  (199) 
0

>  <r_i_glide_intrahb_reward>  (199) 
-0

>  <i_i_glide_confnum>  (199) 
2

>  <i_i_glide_posenum>  (199) 
38

>  <r_i_glide_eff_state_penalty>  (199) 
0

>  <ligand_id>  (199) 
58

>  <original_smiles>  (199) 
CC1CCC2(CC1)OOC1(OO2)C2CC3CC(C2)CC1C3

>  <smiles>  (199) 
[H]C([H])([H])C1([H])C([H])([H])C([H])([H])C2(OOC3(OO2)C2([H])C([H])([H])C4([H])C([H])([H])C([H])(C2([H])[H])C([H])([H])C3([H])C4([H])[H])C([H])([H])C1([H])[H]

$$$$
58:0:1
     RDKit          3D

 47 51  0  0  1  0  0  0  0  0999 V2000
   -0.6726   -7.4828    4.1935 C   0  0  0  0  0  0  0  0  0  0  0  0
    0.8092   -7.3117    3.8146 C   0  0  2  0  0  0  0  0  0  0  0  0
    1.2995   -5.8727    4.0791 C   0  0  0  0  0  0  0  0  0  0  0  0
    2.7603   -5.6500    3.6480 C   0  0  0  0  0  0  0  0  0  0  0  0
    2.9745   -5.9964    2.1565 C   0  0  0  0  0  0  0  0  0  0  0  0
    2.5207   -7.4575    1.9198 C   0  0  0  0  0  0  0  0  0  0  0  0
    1.0540   -7.6926    2.3395 C   0  0  0  0  0  0  0  0  0  0  0  0
    4.3508   -5.9110    1.7910 O   0  0  0  0  0  0  0  0  0  0  0  0
    4.8128   -4.4750    1.9278 O   0  0  0  0  0  0  0  0  0  0  0  0
    4.0171   -3.6373    1.0773 C   0  0  0  0  0  0  0  0  0  0  0  0
    2.6483   -3.7224    1.4835 O   0  0  0  0  0  0  0  0  0  0  0  0
    2.1920   -5.1493    1.3175 O   0  0  0  0  0  0  0  0  0  0  0  0
    4.5040   -2.1616    1.2517 C   0  0  2  0  0  0  0  0  0  0  0  0
    3.6662   -1.1993    0.3720 C   0  0  0  0  0  0  0  0  0  0  0  0
    3.8143   -1.5970   -1.1092 C   0  0  1  0  0  0  0  0  0  0  0  0
    5.2898   -1.4615   -1.5291 C   0  0  0  0  0  0  0  0  0  0  0  0
    6.1404   -2.4096   -0.6555 C   0  0  1  0  0  0  0  0  0  0  0  0
    5.9880   -2.0155    0.8296 C   0  0  0  0  0  0  0  0  0  0  0  0
    5.6633   -3.8588   -0.8527 C   0  0  0  0  0  0  0  0  0  0  0  0
    4.1863   -4.0058   -0.4290 C   0  0  2  0  0  0  0  0  0  0  0  0
    3.3326   -3.0497   -1.2966 C   0  0  0  0  0  0  0  0  0  0  0  0
   -1.3144   -6.8291    3.6023 H   0  0  0  0  0  0  0  0  0  0  0  0
   -0.8434   -7.2444    5.2441 H   0  0  0  0  0  0  0  0  0  0  0  0
   -1.0161   -8.5065    4.0362 H   0  0  0  0  0  0  0  0  0  0  0  0
    1.3926   -7.9941    4.4373 H   0  0  0  0  0  0  0  0  0  0  0  0
    0.6561   -5.1701    3.5491 H   0  0  0  0  0  0  0  0  0  0  0  0
    1.1972   -5.6478    5.1439 H   0  0  0  0  0  0  0  0  0  0  0  0
    3.0514   -4.6224    3.8635 H   0  0  0  0  0  0  0  0  0  0  0  0
    3.4131   -6.2785    4.2498 H   0  0  0  0  0  0  0  0  0  0  0  0
    2.6488   -7.7287    0.8787 H   0  0  0  0  0  0  0  0  0  0  0  0
    3.1675   -8.1346    2.4881 H   0  0  0  0  0  0  0  0  0  0  0  0
    0.7973   -8.7430    2.1826 H   0  0  0  0  0  0  0  0  0  0  0  0
    0.3930   -7.1147    1.6943 H   0  0  0  0  0  0  0  0  0  0  0  0
    4.4013   -1.8634    2.2945 H   0  0  0  0  0  0  0  0  0  0  0  0
    2.6151   -1.2249    0.6548 H   0  0  0  0  0  0  0  0  0  0  0  0
    3.9898   -0.1657    0.5139 H   0  0  0  0  0  0  0  0  0  0  0  0
    3.2137   -0.9286   -1.7272 H   0  0  0  0  0  0  0  0  0  0  0  0
    5.4065   -1.7062   -2.5867 H   0  0  0  0  0  0  0  0  0  0  0  0
    5.6181   -0.4295   -1.4124 H   0  0  0  0  0  0  0  0  0  0  0  0
    7.1851   -2.3222   -0.9529 H   0  0  0  0  0  0  0  0  0  0  0  0
    6.3313   -0.9896    0.9851 H   0  0  0  0  0  0  0  0  0  0  0  0
    6.6309   -2.6406    1.4499 H   0  0  0  0  0  0  0  0  0  0  0  0
    5.7849   -4.1453   -1.9004 H   0  0  0  0  0  0  0  0  0  0  0  0
    6.2959   -4.5363   -0.2726 H   0  0  0  0  0  0  0  0  0  0  0  0
    3.8748   -5.0363   -0.6239 H   0  0  0  0  0  0  0  0  0  0  0  0
    2.2803   -3.1078   -1.0215 H   0  0  0  0  0  0  0  0  0  0  0  0
    3.3917   -3.3230   -2.3503 H   0  0  0  0  0  0  0  0  0  0  0  0
  1  2  1  0
  1 22  1  0
  1 23  1  0
  1 24  1  0
  2  7  1  0
  2  3  1  0
  2 25  1  1
  3  4  1  0
  3 26  1  0
  3 27  1  0
  4  5  1  0
  4 28  1  0
  4 29  1  0
  5 12  1  0
  5  6  1  0
  5  8  1  0
  6  7  1  0
  6 30  1  0
  6 31  1  0
  7 32  1  0
  7 33  1  0
  8  9  1  0
  9 10  1  0
 10 20  1  0
 10 11  1  0
 10 13  1  0
 11 12  1  0
 13 18  1  0
 13 14  1  0
 13 34  1  1
 14 15  1  0
 14 35  1  0
 14 36  1  0
 15 21  1  0
 15 16  1  0
 15 37  1  6
 16 17  1  0
 16 38  1  0
 16 39  1  0
 17 18  1  0
 17 19  1  0
 17 40  1  6
 18 41  1  0
 18 42  1  0
 19 20  1  0
 19 43  1  0
 19 44  1  0
 20 21  1  0
 20 45  1  1
 21 46  1  0
 21 47  1  0
M  END
>  <i_m_ct_stereo_status>  (200) 
1

>  <s_m_source_file>  (200) 
/var/tmp/pbs.5076255.sched01/tmpm261n1hm/82shs6bvht.sdf

>  <i_m_source_file_index>  (200) 
5

>  <i_lp_mmshare_version>  (200) 
48012

>  <i_f3d_flags>  (200) 
0

>  <s_epik_input>  (200) 
W0NIMl0xW0NIMl1bQ0hdKFtDSDNdKVtDSDJdW0NIMl1DMTJPT0MzKE9PMilbQ0BASF00W0NIMl1bQ0BIXTVbQ0gyXVtDQEBIXShbQ0gyXTQpW0NIMl1bQ0BASF0zW0NIMl01

>  <s_epik_cmdline>  (200) 
J2VwaWtfcHl0aG9uJywgJy1waHQnLCAnMi4wJywgJy1waCcsICc3LjAnLCAnLXRuJywgJzgnLCAnLW1hJywgJzIwMCcsICctaW1hZScsICc8aW5maWxlLm1hZT4nLCAnLW9tYWUnLCAnPG91dGZpbGUubWFlPic=

>  <r_lp_tautomer_probability>  (200) 
1

>  <r_epik_Ionization_Penalty>  (200) 
0

>  <r_epik_Ionization_Penalty_Charging>  (200) 
0

>  <r_epik_Ionization_Penalty_Neutral>  (200) 
0

>  <r_epik_State_Penalty>  (200) 
-0

>  <r_epik_Charging_Adjusted_Penalty>  (200) 
0

>  <i_epik_Tot_Q>  (200) 
0

>  <i_epik_Tot_abs_Q>  (200) 
0

>  <s_lp_Force_Field>  (200) 
OPLS3e

>  <r_lp_Energy>  (200) 
-0.543675

>  <b_lp_Chiralities_Consistent>  (200) 
1

>  <s_lp_Variant>  (200) 
58:0-1

>  <s_i_glide_gridfile>  (200) 
pfpi4k_grid

>  <i_i_glide_lignum>  (200) 
5

>  <i_i_glide_rotatable_bonds>  (200) 
0

>  <r_i_docking_score>  (200) 
-2.81557

>  <r_i_glide_ligand_efficiency>  (200) 
-0.134075

>  <r_i_glide_ligand_efficiency_sa>  (200) 
-0.369902

>  <r_i_glide_ligand_efficiency_ln>  (200) 
-0.696144

>  <r_i_glide_gscore>  (200) 
-2.81557

>  <r_i_glide_lipo>  (200) 
-0.166928

>  <r_i_glide_hbond>  (200) 
-0.00905247

>  <r_i_glide_metal>  (200) 
-0

>  <r_i_glide_rewards>  (200) 
-1.41845

>  <r_i_glide_evdw>  (200) 
-23.6849

>  <r_i_glide_ecoul>  (200) 
-0.243633

>  <r_i_glide_erotb>  (200) 
0

>  <r_i_glide_esite>  (200) 
-0.000351202

>  <r_i_glide_emodel>  (200) 
-28.1903

>  <r_i_glide_energy>  (200) 
-23.9285

>  <r_i_glide_einternal>  (200) 
0

>  <r_i_glide_intrahb_reward>  (200) 
-0

>  <i_i_glide_confnum>  (200) 
1

>  <i_i_glide_posenum>  (200) 
2

>  <r_i_glide_eff_state_penalty>  (200) 
0

>  <ligand_id>  (200) 
58

>  <original_smiles>  (200) 
CC1CCC2(CC1)OOC1(OO2)C2CC3CC(C2)CC1C3

>  <smiles>  (200) 
[H]C([H])([H])C1([H])C([H])([H])C([H])([H])C2(OOC3(OO2)C2([H])C([H])([H])C4([H])C([H])([H])C([H])(C2([H])[H])C([H])([H])C3([H])C4([H])[H])C([H])([H])C1([H])[H]

$$$$
58:0:2
     RDKit          3D

 47 51  0  0  1  0  0  0  0  0999 V2000
    4.5375   -1.3377   -1.0652 C   0  0  0  0  0  0  0  0  0  0  0  0
    4.8950   -2.6079   -0.2631 C   0  0  2  0  0  0  0  0  0  0  0  0
    4.0519   -3.8141   -0.7238 C   0  0  0  0  0  0  0  0  0  0  0  0
    4.3310   -5.0841    0.1028 C   0  0  0  0  0  0  0  0  0  0  0  0
    4.0955   -4.8436    1.6065 C   0  0  0  0  0  0  0  0  0  0  0  0
    4.9797   -3.6648    2.0655 C   0  0  0  0  0  0  0  0  0  0  0  0
    4.7153   -2.3781    1.2508 C   0  0  0  0  0  0  0  0  0  0  0  0
    4.4780   -5.9782    2.3721 O   0  0  0  0  0  0  0  0  0  0  0  0
    3.5773   -7.1402    2.0265 O   0  0  0  0  0  0  0  0  0  0  0  0
    2.2262   -6.7936    2.3150 C   0  0  0  0  0  0  0  0  0  0  0  0
    1.8616   -5.6828    1.5057 O   0  0  0  0  0  0  0  0  0  0  0  0
    2.7392   -4.5087    1.8667 O   0  0  0  0  0  0  0  0  0  0  0  0
    1.3158   -7.9952    1.9247 C   0  0  2  0  0  0  0  0  0  0  0  0
   -0.1801   -7.6673    2.1777 C   0  0  0  0  0  0  0  0  0  0  0  0
   -0.3927   -7.3576    3.6721 C   0  0  1  0  0  0  0  0  0  0  0  0
   -0.0234   -8.5988    4.5121 C   0  0  0  0  0  0  0  0  0  0  0  0
    1.4589   -8.9404    4.2630 C   0  0  1  0  0  0  0  0  0  0  0  0
    1.6718   -9.2491    2.7668 C   0  0  0  0  0  0  0  0  0  0  0  0
    2.3493   -7.7480    4.6737 C   0  0  0  0  0  0  0  0  0  0  0  0
    1.9914   -6.5027    3.8265 C   0  0  2  0  0  0  0  0  0  0  0  0
    0.4991   -6.1612    4.0700 C   0  0  0  0  0  0  0  0  0  0  0  0
    3.4903   -1.0616   -0.9189 H   0  0  0  0  0  0  0  0  0  0  0  0
    4.6867   -1.4820   -2.1372 H   0  0  0  0  0  0  0  0  0  0  0  0
    5.1415   -0.4814   -0.7616 H   0  0  0  0  0  0  0  0  0  0  0  0
    5.9489   -2.8339   -0.4524 H   0  0  0  0  0  0  0  0  0  0  0  0
    2.9937   -3.5608   -0.6472 H   0  0  0  0  0  0  0  0  0  0  0  0
    4.2452   -4.0155   -1.7793 H   0  0  0  0  0  0  0  0  0  0  0  0
    3.7188   -5.8966   -0.2760 H   0  0  0  0  0  0  0  0  0  0  0  0
    5.3646   -5.3938   -0.0588 H   0  0  0  0  0  0  0  0  0  0  0  0
    4.8328   -3.4532    3.1274 H   0  0  0  0  0  0  0  0  0  0  0  0
    6.0373   -3.9314    1.9561 H   0  0  0  0  0  0  0  0  0  0  0  0
    5.3848   -1.5823    1.5821 H   0  0  0  0  0  0  0  0  0  0  0  0
    3.7002   -2.0306    1.4445 H   0  0  0  0  0  0  0  0  0  0  0  0
    1.4426   -8.2382    0.8752 H   0  0  0  0  0  0  0  0  0  0  0  0
   -0.5016   -6.8266    1.5646 H   0  0  0  0  0  0  0  0  0  0  0  0
   -0.8089   -8.5110    1.8811 H   0  0  0  0  0  0  0  0  0  0  0  0
   -1.4413   -7.1197    3.8519 H   0  0  0  0  0  0  0  0  0  0  0  0
   -0.1998   -8.4177    5.5730 H   0  0  0  0  0  0  0  0  0  0  0  0
   -0.6562   -9.4484    4.2446 H   0  0  0  0  0  0  0  0  0  0  0  0
    1.7177   -9.8165    4.8596 H   0  0  0  0  0  0  0  0  0  0  0  0
    1.0531  -10.0997    2.4667 H   0  0  0  0  0  0  0  0  0  0  0  0
    2.7024   -9.5576    2.5896 H   0  0  0  0  0  0  0  0  0  0  0  0
    2.2148   -7.5375    5.7341 H   0  0  0  0  0  0  0  0  0  0  0  0
    3.3982   -8.0124    4.5390 H   0  0  0  0  0  0  0  0  0  0  0  0
    2.6097   -5.6715    4.1661 H   0  0  0  0  0  0  0  0  0  0  0  0
    0.2172   -5.2859    3.4858 H   0  0  0  0  0  0  0  0  0  0  0  0
    0.3259   -5.9059    5.1131 H   0  0  0  0  0  0  0  0  0  0  0  0
  1  2  1  0
  1 22  1  0
  1 23  1  0
  1 24  1  0
  2  7  1  0
  2  3  1  0
  2 25  1  1
  3  4  1  0
  3 26  1  0
  3 27  1  0
  4  5  1  0
  4 28  1  0
  4 29  1  0
  5 12  1  0
  5  6  1  0
  5  8  1  0
  6  7  1  0
  6 30  1  0
  6 31  1  0
  7 32  1  0
  7 33  1  0
  8  9  1  0
  9 10  1  0
 10 20  1  0
 10 11  1  0
 10 13  1  0
 11 12  1  0
 13 18  1  0
 13 14  1  0
 13 34  1  6
 14 15  1  0
 14 35  1  0
 14 36  1  0
 15 21  1  0
 15 16  1  0
 15 37  1  6
 16 17  1  0
 16 38  1  0
 16 39  1  0
 17 18  1  0
 17 19  1  0
 17 40  1  1
 18 41  1  0
 18 42  1  0
 19 20  1  0
 19 43  1  0
 19 44  1  0
 20 21  1  0
 20 45  1  1
 21 46  1  0
 21 47  1  0
M  END
>  <i_m_ct_stereo_status>  (201) 
1

>  <s_m_source_file>  (201) 
/var/tmp/pbs.5076255.sched01/tmpm261n1hm/82shs6bvht.sdf

>  <i_m_source_file_index>  (201) 
5

>  <i_lp_mmshare_version>  (201) 
48012

>  <i_f3d_flags>  (201) 
0

>  <s_epik_input>  (201) 
W0NIMl0xW0NIMl1bQ0hdKFtDSDNdKVtDSDJdW0NIMl1DMTJPT0MzKE9PMilbQ0BASF00W0NIMl1bQ0BIXTVbQ0gyXVtDQEBIXShbQ0gyXTQpW0NIMl1bQ0BASF0zW0NIMl01

>  <s_epik_cmdline>  (201) 
J2VwaWtfcHl0aG9uJywgJy1waHQnLCAnMi4wJywgJy1waCcsICc3LjAnLCAnLXRuJywgJzgnLCAnLW1hJywgJzIwMCcsICctaW1hZScsICc8aW5maWxlLm1hZT4nLCAnLW9tYWUnLCAnPG91dGZpbGUubWFlPic=

>  <r_lp_tautomer_probability>  (201) 
1

>  <r_epik_Ionization_Penalty>  (201) 
0

>  <r_epik_Ionization_Penalty_Charging>  (201) 
0

>  <r_epik_Ionization_Penalty_Neutral>  (201) 
0

>  <r_epik_State_Penalty>  (201) 
-0

>  <r_epik_Charging_Adjusted_Penalty>  (201) 
0

>  <i_epik_Tot_Q>  (201) 
0

>  <i_epik_Tot_abs_Q>  (201) 
0

>  <s_lp_Force_Field>  (201) 
OPLS3e

>  <r_lp_Energy>  (201) 
-0.543675

>  <b_lp_Chiralities_Consistent>  (201) 
1

>  <s_lp_Variant>  (201) 
58:0-1

>  <s_i_glide_gridfile>  (201) 
pfpi4k_grid

>  <i_i_glide_lignum>  (201) 
5

>  <i_i_glide_rotatable_bonds>  (201) 
0

>  <r_i_docking_score>  (201) 
-2.78921

>  <r_i_glide_ligand_efficiency>  (201) 
-0.13282

>  <r_i_glide_ligand_efficiency_sa>  (201) 
-0.36644

>  <r_i_glide_ligand_efficiency_ln>  (201) 
-0.689628

>  <r_i_glide_gscore>  (201) 
-2.78921

>  <r_i_glide_lipo>  (201) 
-0.0811817

>  <r_i_glide_hbond>  (201) 
-0.0297907

>  <r_i_glide_metal>  (201) 
-0

>  <r_i_glide_rewards>  (201) 
-1.42368

>  <r_i_glide_evdw>  (201) 
-22.9101

>  <r_i_glide_ecoul>  (201) 
-0.656575

>  <r_i_glide_erotb>  (201) 
0

>  <r_i_glide_esite>  (201) 
-0.0105769

>  <r_i_glide_emodel>  (201) 
-27.7913

>  <r_i_glide_energy>  (201) 
-23.5666

>  <r_i_glide_einternal>  (201) 
0

>  <r_i_glide_intrahb_reward>  (201) 
-0

>  <i_i_glide_confnum>  (201) 
1

>  <i_i_glide_posenum>  (201) 
1

>  <r_i_glide_eff_state_penalty>  (201) 
0

>  <ligand_id>  (201) 
58

>  <original_smiles>  (201) 
CC1CCC2(CC1)OOC1(OO2)C2CC3CC(C2)CC1C3

>  <smiles>  (201) 
[H]C([H])([H])C1([H])C([H])([H])C([H])([H])C2(OOC3(OO2)C2([H])C([H])([H])C4([H])C([H])([H])C([H])(C2([H])[H])C([H])([H])C3([H])C4([H])[H])C([H])([H])C1([H])[H]

$$$$
59:0:0
     RDKit          3D

 25 27  0  0  1  0  0  0  0  0999 V2000
    4.6500    0.1711    3.7540 C   0  0  0  0  0  0  0  0  0  0  0  0
    4.0423   -0.2618    2.4832 N   0  0  0  0  0  0  0  0  0  0  0  0
    4.6742   -1.0212    1.5309 C   0  0  0  0  0  0  0  0  0  0  0  0
    3.7721   -1.2167    0.5141 C   0  0  0  0  0  0  0  0  0  0  0  0
    2.6165   -0.5775    0.8841 N   0  0  0  0  0  0  0  0  0  0  0  0
    2.7841    0.0158    2.0781 C   0  0  0  0  0  0  0  0  0  0  0  0
    1.7594    0.7853    2.7787 C   0  0  0  0  0  0  0  0  0  0  0  0
    1.8644    1.4209    3.9561 N   0  0  0  0  0  0  0  0  0  0  0  0
    0.6111    1.9765    4.1270 C   0  0  0  0  0  0  0  0  0  0  0  0
    0.0499    2.7663    5.1513 C   0  0  0  0  0  0  0  0  0  0  0  0
   -1.2972    3.1916    5.0778 C   0  0  0  0  0  0  0  0  0  0  0  0
   -2.0945    2.8310    3.9693 C   0  0  0  0  0  0  0  0  0  0  0  0
   -1.5466    2.0474    2.9340 C   0  0  0  0  0  0  0  0  0  0  0  0
   -0.2088    1.6318    3.0343 C   0  0  0  0  0  0  0  0  0  0  0  0
    0.5318    0.8486    2.1702 O   0  0  0  0  0  0  0  0  0  0  0  0
    5.6760   -0.1959    3.8020 H   0  0  0  0  0  0  0  0  0  0  0  0
    4.0864   -0.2353    4.5964 H   0  0  0  0  0  0  0  0  0  0  0  0
    4.6570    1.2609    3.8048 H   0  0  0  0  0  0  0  0  0  0  0  0
    5.6947   -1.3643    1.6449 H   0  0  0  0  0  0  0  0  0  0  0  0
    3.8594   -1.7595   -0.4151 H   0  0  0  0  0  0  0  0  0  0  0  0
    0.6621    3.0384    5.9924 H   0  0  0  0  0  0  0  0  0  0  0  0
   -1.7099    3.7873    5.8747 H   0  0  0  0  0  0  0  0  0  0  0  0
   -3.1266    3.1439    3.9115 H   0  0  0  0  0  0  0  0  0  0  0  0
   -2.1402    1.7513    2.0835 H   0  0  0  0  0  0  0  0  0  0  0  0
    1.7449   -0.5928    0.3225 H   0  0  0  0  0  0  0  0  0  0  0  0
  1  2  1  0
  1 16  1  0
  1 17  1  0
  1 18  1  0
  2  6  1  0
  2  3  1  0
  3  4  2  0
  3 19  1  0
  4  5  1  0
  4 20  1  0
  5  6  2  0
  5 25  1  0
  6  7  1  0
  7 15  1  0
  7  8  2  0
  8  9  1  0
  9 14  2  0
  9 10  1  0
 10 11  2  0
 10 21  1  0
 11 12  1  0
 11 22  1  0
 12 13  2  0
 12 23  1  0
 13 14  1  0
 13 24  1  0
 14 15  1  0
M  CHG  1   5   1
M  END
>  <i_m_ct_stereo_status>  (202) 
1

>  <s_m_source_file>  (202) 
/var/tmp/pbs.5076255.sched01/tmpm261n1hm/82shs6bvht.sdf

>  <i_m_source_file_index>  (202) 
6

>  <i_lp_mmshare_version>  (202) 
48012

>  <i_f3d_flags>  (202) 
0

>  <s_epik_input>  (202) 
W0NIM11uMVtjSF1bY0hdbmMxLWMobjIpb2MoYzIzKVtjSF1bY0hdW2NIXVtjSF0z

>  <s_epik_cmdline>  (202) 
J2VwaWtfcHl0aG9uJywgJy1waHQnLCAnMi4wJywgJy1waCcsICc3LjAnLCAnLXRuJywgJzgnLCAnLW1hJywgJzIwMCcsICctaW1hZScsICc8aW5maWxlLm1hZT4nLCAnLW9tYWUnLCAnPG91dGZpbGUubWFlPic=

>  <r_lp_tautomer_probability>  (202) 
1

>  <r_epik_Ionization_Penalty>  (202) 
0.349121

>  <r_epik_Ionization_Penalty_Charging>  (202) 
0

>  <r_epik_Ionization_Penalty_Neutral>  (202) 
0.349121

>  <r_epik_State_Penalty>  (202) 
0.345246

>  <r_epik_Charging_Adjusted_Penalty>  (202) 
0.345246

>  <i_epik_Tot_Q>  (202) 
1

>  <i_epik_Tot_abs_Q>  (202) 
1

>  <s_lp_Force_Field>  (202) 
OPLS3e

>  <r_lp_Energy>  (202) 
19.942

>  <b_lp_Chiralities_Consistent>  (202) 
1

>  <s_lp_Variant>  (202) 
59:0-1

>  <s_i_glide_gridfile>  (202) 
pfpi4k_grid

>  <i_i_glide_lignum>  (202) 
6

>  <i_i_glide_rotatable_bonds>  (202) 
1

>  <r_i_docking_score>  (202) 
-3.88525

>  <r_i_glide_ligand_efficiency>  (202) 
-0.259017

>  <r_i_glide_ligand_efficiency_sa>  (202) 
-0.638791

>  <r_i_glide_ligand_efficiency_ln>  (202) 
-1.04779

>  <r_i_glide_gscore>  (202) 
-3.88525

>  <r_i_glide_lipo>  (202) 
-0.118961

>  <r_i_glide_hbond>  (202) 
-0.2

>  <r_i_glide_metal>  (202) 
-0

>  <r_i_glide_rewards>  (202) 
-2.10187

>  <r_i_glide_evdw>  (202) 
-16.5949

>  <r_i_glide_ecoul>  (202) 
-6.43992

>  <r_i_glide_erotb>  (202) 
0.407597

>  <r_i_glide_esite>  (202) 
-0.0762887

>  <r_i_glide_emodel>  (202) 
-29.8169

>  <r_i_glide_energy>  (202) 
-23.0348

>  <r_i_glide_einternal>  (202) 
0.00839035

>  <r_i_glide_intrahb_reward>  (202) 
-0

>  <i_i_glide_confnum>  (202) 
1

>  <i_i_glide_posenum>  (202) 
1

>  <r_i_glide_eff_state_penalty>  (202) 
0

>  <ligand_id>  (202) 
59

>  <original_smiles>  (202) 
Cn1ccnc1-c1nc2ccccc2o1

>  <smiles>  (202) 
[H]c1c([H])c([H])c2oc(-c3n(C([H])([H])[H])c([H])c([H])[n+]3[H])nc2c1[H]

$$$$
59:0:1
     RDKit          3D

 25 27  0  0  1  0  0  0  0  0999 V2000
    4.3963    0.5052    3.8300 C   0  0  0  0  0  0  0  0  0  0  0  0
    3.9041   -0.0522    2.5629 N   0  0  0  0  0  0  0  0  0  0  0  0
    4.6522   -0.8019    1.6914 C   0  0  0  0  0  0  0  0  0  0  0  0
    3.8367   -1.1284    0.6378 C   0  0  0  0  0  0  0  0  0  0  0  0
    2.6163   -0.5630    0.8974 N   0  0  0  0  0  0  0  0  0  0  0  0
    2.6553    0.0944    2.0671 C   0  0  0  0  0  0  0  0  0  0  0  0
    1.5145    0.8008    2.6428 C   0  0  0  0  0  0  0  0  0  0  0  0
    0.3159    0.9644    2.0680 N   0  0  0  0  0  0  0  0  0  0  0  0
   -0.3856    1.7045    2.9998 C   0  0  0  0  0  0  0  0  0  0  0  0
   -1.6923    2.2368    3.0146 C   0  0  0  0  0  0  0  0  0  0  0  0
   -2.1680    2.9346    4.1471 C   0  0  0  0  0  0  0  0  0  0  0  0
   -1.3397    3.1182    5.2765 C   0  0  0  0  0  0  0  0  0  0  0  0
   -0.0272    2.6031    5.2741 C   0  0  0  0  0  0  0  0  0  0  0  0
    0.4204    1.9090    4.1354 C   0  0  0  0  0  0  0  0  0  0  0  0
    1.6457    1.3175    3.9022 O   0  0  0  0  0  0  0  0  0  0  0  0
    5.4431    0.2395    3.9628 H   0  0  0  0  0  0  0  0  0  0  0  0
    3.8219    0.1022    4.6638 H   0  0  0  0  0  0  0  0  0  0  0  0
    4.3032    1.5924    3.8117 H   0  0  0  0  0  0  0  0  0  0  0  0
    5.6892   -1.0443    1.8811 H   0  0  0  0  0  0  0  0  0  0  0  0
    4.0284   -1.7077   -0.2542 H   0  0  0  0  0  0  0  0  0  0  0  0
   -2.3282    2.1048    2.1548 H   0  0  0  0  0  0  0  0  0  0  0  0
   -3.1751    3.3228    4.1455 H   0  0  0  0  0  0  0  0  0  0  0  0
   -1.7044    3.6539    6.1428 H   0  0  0  0  0  0  0  0  0  0  0  0
    0.6263    2.7302    6.1224 H   0  0  0  0  0  0  0  0  0  0  0  0
    1.7747   -0.6568    0.2986 H   0  0  0  0  0  0  0  0  0  0  0  0
  1  2  1  0
  1 16  1  0
  1 17  1  0
  1 18  1  0
  2  6  1  0
  2  3  1  0
  3  4  2  0
  3 19  1  0
  4  5  1  0
  4 20  1  0
  5  6  2  0
  5 25  1  0
  6  7  1  0
  7 15  1  0
  7  8  2  0
  8  9  1  0
  9 14  2  0
  9 10  1  0
 10 11  2  0
 10 21  1  0
 11 12  1  0
 11 22  1  0
 12 13  2  0
 12 23  1  0
 13 14  1  0
 13 24  1  0
 14 15  1  0
M  CHG  1   5   1
M  END
>  <i_m_ct_stereo_status>  (203) 
1

>  <s_m_source_file>  (203) 
/var/tmp/pbs.5076255.sched01/tmpm261n1hm/82shs6bvht.sdf

>  <i_m_source_file_index>  (203) 
6

>  <i_lp_mmshare_version>  (203) 
48012

>  <i_f3d_flags>  (203) 
0

>  <s_epik_input>  (203) 
W0NIM11uMVtjSF1bY0hdbmMxLWMobjIpb2MoYzIzKVtjSF1bY0hdW2NIXVtjSF0z

>  <s_epik_cmdline>  (203) 
J2VwaWtfcHl0aG9uJywgJy1waHQnLCAnMi4wJywgJy1waCcsICc3LjAnLCAnLXRuJywgJzgnLCAnLW1hJywgJzIwMCcsICctaW1hZScsICc8aW5maWxlLm1hZT4nLCAnLW9tYWUnLCAnPG91dGZpbGUubWFlPic=

>  <r_lp_tautomer_probability>  (203) 
1

>  <r_epik_Ionization_Penalty>  (203) 
0.349121

>  <r_epik_Ionization_Penalty_Charging>  (203) 
0

>  <r_epik_Ionization_Penalty_Neutral>  (203) 
0.349121

>  <r_epik_State_Penalty>  (203) 
0.345246

>  <r_epik_Charging_Adjusted_Penalty>  (203) 
0.345246

>  <i_epik_Tot_Q>  (203) 
1

>  <i_epik_Tot_abs_Q>  (203) 
1

>  <s_lp_Force_Field>  (203) 
OPLS3e

>  <r_lp_Energy>  (203) 
19.942

>  <b_lp_Chiralities_Consistent>  (203) 
1

>  <s_lp_Variant>  (203) 
59:0-1

>  <s_i_glide_gridfile>  (203) 
pfpi4k_grid

>  <i_i_glide_lignum>  (203) 
6

>  <i_i_glide_rotatable_bonds>  (203) 
1

>  <r_i_docking_score>  (203) 
-3.80765

>  <r_i_glide_ligand_efficiency>  (203) 
-0.253843

>  <r_i_glide_ligand_efficiency_sa>  (203) 
-0.626032

>  <r_i_glide_ligand_efficiency_ln>  (203) 
-1.02686

>  <r_i_glide_gscore>  (203) 
-3.80765

>  <r_i_glide_lipo>  (203) 
-0.101925

>  <r_i_glide_hbond>  (203) 
-0.2

>  <r_i_glide_metal>  (203) 
-0

>  <r_i_glide_rewards>  (203) 
-2.0724

>  <r_i_glide_evdw>  (203) 
-16.6883

>  <r_i_glide_ecoul>  (203) 
-6.17953

>  <r_i_glide_erotb>  (203) 
0.407597

>  <r_i_glide_esite>  (203) 
-0.0795737

>  <r_i_glide_emodel>  (203) 
-29.4455

>  <r_i_glide_energy>  (203) 
-22.8679

>  <r_i_glide_einternal>  (203) 
0.150331

>  <r_i_glide_intrahb_reward>  (203) 
-0

>  <i_i_glide_confnum>  (203) 
4

>  <i_i_glide_posenum>  (203) 
24

>  <r_i_glide_eff_state_penalty>  (203) 
0

>  <ligand_id>  (203) 
59

>  <original_smiles>  (203) 
Cn1ccnc1-c1nc2ccccc2o1

>  <smiles>  (203) 
[H]c1c([H])c([H])c2oc(-c3n(C([H])([H])[H])c([H])c([H])[n+]3[H])nc2c1[H]

$$$$
59:0:2
     RDKit          3D

 25 27  0  0  1  0  0  0  0  0999 V2000
    4.1450   -3.5061    3.0428 C   0  0  0  0  0  0  0  0  0  0  0  0
    4.0670   -3.7941    1.6045 N   0  0  0  0  0  0  0  0  0  0  0  0
    4.8062   -3.1632    0.6338 C   0  0  0  0  0  0  0  0  0  0  0  0
    4.4338   -3.7079   -0.5699 C   0  0  0  0  0  0  0  0  0  0  0  0
    3.4804   -4.6495   -0.2912 N   0  0  0  0  0  0  0  0  0  0  0  0
    3.2482   -4.6999    1.0275 C   0  0  0  0  0  0  0  0  0  0  0  0
    2.2756   -5.5972    1.6485 C   0  0  0  0  0  0  0  0  0  0  0  0
    1.2735   -6.2446    1.0277 N   0  0  0  0  0  0  0  0  0  0  0  0
    0.6870   -6.9667    2.0512 C   0  0  0  0  0  0  0  0  0  0  0  0
   -0.4336   -7.8215    2.0959 C   0  0  0  0  0  0  0  0  0  0  0  0
   -0.8236   -8.4265    3.3107 C   0  0  0  0  0  0  0  0  0  0  0  0
   -0.1043   -8.1767    4.4989 C   0  0  0  0  0  0  0  0  0  0  0  0
    1.0119   -7.3155    4.4781 C   0  0  0  0  0  0  0  0  0  0  0  0
    1.3827   -6.7300    3.2562 C   0  0  0  0  0  0  0  0  0  0  0  0
    2.4175   -5.8576    2.9866 O   0  0  0  0  0  0  0  0  0  0  0  0
    4.8810   -2.7194    3.2129 H   0  0  0  0  0  0  0  0  0  0  0  0
    4.4606   -4.3993    3.5846 H   0  0  0  0  0  0  0  0  0  0  0  0
    3.1724   -3.1677    3.4048 H   0  0  0  0  0  0  0  0  0  0  0  0
    5.5222   -2.3873    0.8653 H   0  0  0  0  0  0  0  0  0  0  0  0
    4.7641   -3.5012   -1.5776 H   0  0  0  0  0  0  0  0  0  0  0  0
   -0.9824   -8.0342    1.1951 H   0  0  0  0  0  0  0  0  0  0  0  0
   -1.6674   -9.1014    3.3286 H   0  0  0  0  0  0  0  0  0  0  0  0
   -0.4045   -8.6631    5.4170 H   0  0  0  0  0  0  0  0  0  0  0  0
    1.5743   -7.1158    5.3775 H   0  0  0  0  0  0  0  0  0  0  0  0
    3.0158   -5.2330   -0.9869 H   0  0  0  0  0  0  0  0  0  0  0  0
  1  2  1  0
  1 16  1  0
  1 17  1  0
  1 18  1  0
  2  6  1  0
  2  3  1  0
  3  4  2  0
  3 19  1  0
  4  5  1  0
  4 20  1  0
  5  6  2  0
  5 25  1  0
  6  7  1  0
  7 15  1  0
  7  8  2  0
  8  9  1  0
  9 14  2  0
  9 10  1  0
 10 11  2  0
 10 21  1  0
 11 12  1  0
 11 22  1  0
 12 13  2  0
 12 23  1  0
 13 14  1  0
 13 24  1  0
 14 15  1  0
M  CHG  1   5   1
M  END
>  <i_m_ct_stereo_status>  (204) 
1

>  <s_m_source_file>  (204) 
/var/tmp/pbs.5076255.sched01/tmpm261n1hm/82shs6bvht.sdf

>  <i_m_source_file_index>  (204) 
6

>  <i_lp_mmshare_version>  (204) 
48012

>  <i_f3d_flags>  (204) 
0

>  <s_epik_input>  (204) 
W0NIM11uMVtjSF1bY0hdbmMxLWMobjIpb2MoYzIzKVtjSF1bY0hdW2NIXVtjSF0z

>  <s_epik_cmdline>  (204) 
J2VwaWtfcHl0aG9uJywgJy1waHQnLCAnMi4wJywgJy1waCcsICc3LjAnLCAnLXRuJywgJzgnLCAnLW1hJywgJzIwMCcsICctaW1hZScsICc8aW5maWxlLm1hZT4nLCAnLW9tYWUnLCAnPG91dGZpbGUubWFlPic=

>  <r_lp_tautomer_probability>  (204) 
1

>  <r_epik_Ionization_Penalty>  (204) 
0.349121

>  <r_epik_Ionization_Penalty_Charging>  (204) 
0

>  <r_epik_Ionization_Penalty_Neutral>  (204) 
0.349121

>  <r_epik_State_Penalty>  (204) 
0.345246

>  <r_epik_Charging_Adjusted_Penalty>  (204) 
0.345246

>  <i_epik_Tot_Q>  (204) 
1

>  <i_epik_Tot_abs_Q>  (204) 
1

>  <s_lp_Force_Field>  (204) 
OPLS3e

>  <r_lp_Energy>  (204) 
19.942

>  <b_lp_Chiralities_Consistent>  (204) 
1

>  <s_lp_Variant>  (204) 
59:0-1

>  <s_i_glide_gridfile>  (204) 
pfpi4k_grid

>  <i_i_glide_lignum>  (204) 
6

>  <i_i_glide_rotatable_bonds>  (204) 
1

>  <r_i_docking_score>  (204) 
-3.69877

>  <r_i_glide_ligand_efficiency>  (204) 
-0.246585

>  <r_i_glide_ligand_efficiency_sa>  (204) 
-0.60813

>  <r_i_glide_ligand_efficiency_ln>  (204) 
-0.997497

>  <r_i_glide_gscore>  (204) 
-3.69877

>  <r_i_glide_lipo>  (204) 
-0.044509

>  <r_i_glide_hbond>  (204) 
-0.128556

>  <r_i_glide_metal>  (204) 
-0

>  <r_i_glide_rewards>  (204) 
-2.0568

>  <r_i_glide_evdw>  (204) 
-15.857

>  <r_i_glide_ecoul>  (204) 
-6.95306

>  <r_i_glide_erotb>  (204) 
0.407597

>  <r_i_glide_esite>  (204) 
-0.040695

>  <r_i_glide_emodel>  (204) 
-29.0291

>  <r_i_glide_energy>  (204) 
-22.8101

>  <r_i_glide_einternal>  (204) 
0.427742

>  <r_i_glide_intrahb_reward>  (204) 
-0

>  <i_i_glide_confnum>  (204) 
2

>  <i_i_glide_posenum>  (204) 
3

>  <r_i_glide_eff_state_penalty>  (204) 
0

>  <ligand_id>  (204) 
59

>  <original_smiles>  (204) 
Cn1ccnc1-c1nc2ccccc2o1

>  <smiles>  (204) 
[H]c1c([H])c([H])c2oc(-c3n(C([H])([H])[H])c([H])c([H])[n+]3[H])nc2c1[H]

$$$$
59:1:0
     RDKit          3D

 24 26  0  0  1  0  0  0  0  0999 V2000
    8.8134   -2.2021    0.1404 C   0  0  0  0  0  0  0  0  0  0  0  0
    8.1261   -3.4491    0.4456 N   0  0  0  0  0  0  0  0  0  0  0  0
    8.6289   -4.4640    1.2512 C   0  0  0  0  0  0  0  0  0  0  0  0
    7.6879   -5.4586    1.2726 C   0  0  0  0  0  0  0  0  0  0  0  0
    6.6093   -5.0744    0.4934 N   0  0  0  0  0  0  0  0  0  0  0  0
    6.9078   -3.8608    0.0301 C   0  0  0  0  0  0  0  0  0  0  0  0
    6.0078   -3.1252   -0.8534 C   0  0  0  0  0  0  0  0  0  0  0  0
    6.0960   -1.8366   -1.2167 N   0  0  0  0  0  0  0  0  0  0  0  0
    5.0061   -1.6754   -2.0467 C   0  0  0  0  0  0  0  0  0  0  0  0
    4.5000   -0.5527   -2.7271 C   0  0  0  0  0  0  0  0  0  0  0  0
    3.3730   -0.6684   -3.5651 C   0  0  0  0  0  0  0  0  0  0  0  0
    2.7245   -1.9115   -3.7116 C   0  0  0  0  0  0  0  0  0  0  0  0
    3.2052   -3.0457   -3.0283 C   0  0  0  0  0  0  0  0  0  0  0  0
    4.3366   -2.9037   -2.2067 C   0  0  0  0  0  0  0  0  0  0  0  0
    4.9916   -3.8450   -1.4343 O   0  0  0  0  0  0  0  0  0  0  0  0
    9.7771   -2.1684    0.6487 H   0  0  0  0  0  0  0  0  0  0  0  0
    8.2203   -1.3480    0.4785 H   0  0  0  0  0  0  0  0  0  0  0  0
    8.9918   -2.1178   -0.9354 H   0  0  0  0  0  0  0  0  0  0  0  0
    9.5868   -4.3816    1.7454 H   0  0  0  0  0  0  0  0  0  0  0  0
    7.6956   -6.4060    1.7922 H   0  0  0  0  0  0  0  0  0  0  0  0
    4.9868    0.4011   -2.6195 H   0  0  0  0  0  0  0  0  0  0  0  0
    2.9966    0.2078   -4.0703 H   0  0  0  0  0  0  0  0  0  0  0  0
    1.8398   -1.9920   -4.3216 H   0  0  0  0  0  0  0  0  0  0  0  0
    2.6947   -3.9898   -3.1236 H   0  0  0  0  0  0  0  0  0  0  0  0
  1  2  1  0
  1 16  1  0
  1 17  1  0
  1 18  1  0
  2  6  1  0
  2  3  1  0
  3  4  2  0
  3 19  1  0
  4  5  1  0
  4 20  1  0
  5  6  2  0
  6  7  1  0
  7 15  1  0
  7  8  2  0
  8  9  1  0
  9 14  2  0
  9 10  1  0
 10 11  2  0
 10 21  1  0
 11 12  1  0
 11 22  1  0
 12 13  2  0
 12 23  1  0
 13 14  1  0
 13 24  1  0
 14 15  1  0
M  END
>  <i_m_ct_stereo_status>  (205) 
1

>  <s_m_source_file>  (205) 
/var/tmp/pbs.5076255.sched01/tmpm261n1hm/82shs6bvht.sdf

>  <i_m_source_file_index>  (205) 
7

>  <i_lp_mmshare_version>  (205) 
48012

>  <i_f3d_flags>  (205) 
0

>  <s_epik_input>  (205) 
W0NIM11uMVtjSF1bY0hdbmMxLWMobjIpb2MoYzIzKVtjSF1bY0hdW2NIXVtjSF0z

>  <s_epik_cmdline>  (205) 
J2VwaWtfcHl0aG9uJywgJy1waHQnLCAnMi4wJywgJy1waCcsICc3LjAnLCAnLXRuJywgJzgnLCAnLW1hJywgJzIwMCcsICctaW1hZScsICc8aW5maWxlLm1hZT4nLCAnLW9tYWUnLCAnPG91dGZpbGUubWFlPic=

>  <r_lp_tautomer_probability>  (205) 
1

>  <r_epik_Ionization_Penalty>  (205) 
0.479385

>  <r_epik_Ionization_Penalty_Charging>  (205) 
0.479385

>  <r_epik_Ionization_Penalty_Neutral>  (205) 
3.01804e-09

>  <r_epik_State_Penalty>  (205) 
0.484248

>  <r_epik_Charging_Adjusted_Penalty>  (205) 
0.963633

>  <i_epik_Tot_Q>  (205) 
0

>  <i_epik_Tot_abs_Q>  (205) 
0

>  <s_lp_Force_Field>  (205) 
OPLS3e

>  <r_lp_Energy>  (205) 
14.8615

>  <b_lp_Chiralities_Consistent>  (205) 
1

>  <s_lp_Variant>  (205) 
59:0-2

>  <s_i_glide_gridfile>  (205) 
pfpi4k_grid

>  <i_i_glide_lignum>  (205) 
7

>  <i_i_glide_rotatable_bonds>  (205) 
1

>  <r_i_docking_score>  (205) 
-4.58449

>  <r_i_glide_ligand_efficiency>  (205) 
-0.305633

>  <r_i_glide_ligand_efficiency_sa>  (205) 
-0.753755

>  <r_i_glide_ligand_efficiency_ln>  (205) 
-1.23636

>  <r_i_glide_gscore>  (205) 
-4.58449

>  <r_i_glide_lipo>  (205) 
-0.639049

>  <r_i_glide_hbond>  (205) 
-0.110963

>  <r_i_glide_metal>  (205) 
-0

>  <r_i_glide_rewards>  (205) 
-2.51672

>  <r_i_glide_evdw>  (205) 
-22.0025

>  <r_i_glide_ecoul>  (205) 
-4.19112

>  <r_i_glide_erotb>  (205) 
0.41104

>  <r_i_glide_esite>  (205) 
0

>  <r_i_glide_emodel>  (205) 
-34.254

>  <r_i_glide_energy>  (205) 
-26.1936

>  <r_i_glide_einternal>  (205) 
0.494174

>  <r_i_glide_intrahb_reward>  (205) 
-0

>  <i_i_glide_confnum>  (205) 
1

>  <i_i_glide_posenum>  (205) 
29

>  <r_i_glide_eff_state_penalty>  (205) 
0

>  <ligand_id>  (205) 
59

>  <original_smiles>  (205) 
Cn1ccnc1-c1nc2ccccc2o1

>  <smiles>  (205) 
[H]c1nc(-c2nc3c([H])c([H])c([H])c([H])c3o2)n(C([H])([H])[H])c1[H]

$$$$
59:1:1
     RDKit          3D

 24 26  0  0  1  0  0  0  0  0999 V2000
    1.5287   -9.9783    2.6098 C   0  0  0  0  0  0  0  0  0  0  0  0
    0.4372   -9.0197    2.5336 N   0  0  0  0  0  0  0  0  0  0  0  0
   -0.8763   -9.2788    2.8906 C   0  0  0  0  0  0  0  0  0  0  0  0
   -1.5840   -8.1272    2.6755 C   0  0  0  0  0  0  0  0  0  0  0  0
   -0.7293   -7.1531    2.1840 N   0  0  0  0  0  0  0  0  0  0  0  0
    0.4664   -7.7391    2.1046 C   0  0  0  0  0  0  0  0  0  0  0  0
    1.6328   -7.0150    1.6145 C   0  0  0  0  0  0  0  0  0  0  0  0
    1.6256   -5.8610    0.9269 N   0  0  0  0  0  0  0  0  0  0  0  0
    2.9689   -5.6082    0.7225 C   0  0  0  0  0  0  0  0  0  0  0  0
    3.6595   -4.5599    0.0792 C   0  0  0  0  0  0  0  0  0  0  0  0
    5.0720   -4.5747    0.0170 C   0  0  0  0  0  0  0  0  0  0  0  0
    5.8097   -5.6289    0.6029 C   0  0  0  0  0  0  0  0  0  0  0  0
    5.1337   -6.6805    1.2532 C   0  0  0  0  0  0  0  0  0  0  0  0
    3.7336   -6.6426    1.2963 C   0  0  0  0  0  0  0  0  0  0  0  0
    2.8665   -7.5449    1.8698 O   0  0  0  0  0  0  0  0  0  0  0  0
    1.1679  -10.9313    2.9967 H   0  0  0  0  0  0  0  0  0  0  0  0
    2.3088   -9.6102    3.2794 H   0  0  0  0  0  0  0  0  0  0  0  0
    1.9570  -10.1327    1.6184 H   0  0  0  0  0  0  0  0  0  0  0  0
   -1.1835  -10.2402    3.2761 H   0  0  0  0  0  0  0  0  0  0  0  0
   -2.6303   -7.9229    2.8395 H   0  0  0  0  0  0  0  0  0  0  0  0
    3.0967   -3.7584   -0.3758 H   0  0  0  0  0  0  0  0  0  0  0  0
    5.5901   -3.7769   -0.4915 H   0  0  0  0  0  0  0  0  0  0  0  0
    6.8889   -5.6432    0.5476 H   0  0  0  0  0  0  0  0  0  0  0  0
    5.6649   -7.5039    1.7073 H   0  0  0  0  0  0  0  0  0  0  0  0
  1  2  1  0
  1 16  1  0
  1 17  1  0
  1 18  1  0
  2  6  1  0
  2  3  1  0
  3  4  2  0
  3 19  1  0
  4  5  1  0
  4 20  1  0
  5  6  2  0
  6  7  1  0
  7 15  1  0
  7  8  2  0
  8  9  1  0
  9 14  2  0
  9 10  1  0
 10 11  2  0
 10 21  1  0
 11 12  1  0
 11 22  1  0
 12 13  2  0
 12 23  1  0
 13 14  1  0
 13 24  1  0
 14 15  1  0
M  END
>  <i_m_ct_stereo_status>  (206) 
1

>  <s_m_source_file>  (206) 
/var/tmp/pbs.5076255.sched01/tmpm261n1hm/82shs6bvht.sdf

>  <i_m_source_file_index>  (206) 
7

>  <i_lp_mmshare_version>  (206) 
48012

>  <i_f3d_flags>  (206) 
0

>  <s_epik_input>  (206) 
W0NIM11uMVtjSF1bY0hdbmMxLWMobjIpb2MoYzIzKVtjSF1bY0hdW2NIXVtjSF0z

>  <s_epik_cmdline>  (206) 
J2VwaWtfcHl0aG9uJywgJy1waHQnLCAnMi4wJywgJy1waCcsICc3LjAnLCAnLXRuJywgJzgnLCAnLW1hJywgJzIwMCcsICctaW1hZScsICc8aW5maWxlLm1hZT4nLCAnLW9tYWUnLCAnPG91dGZpbGUubWFlPic=

>  <r_lp_tautomer_probability>  (206) 
1

>  <r_epik_Ionization_Penalty>  (206) 
0.479385

>  <r_epik_Ionization_Penalty_Charging>  (206) 
0.479385

>  <r_epik_Ionization_Penalty_Neutral>  (206) 
3.01804e-09

>  <r_epik_State_Penalty>  (206) 
0.484248

>  <r_epik_Charging_Adjusted_Penalty>  (206) 
0.963633

>  <i_epik_Tot_Q>  (206) 
0

>  <i_epik_Tot_abs_Q>  (206) 
0

>  <s_lp_Force_Field>  (206) 
OPLS3e

>  <r_lp_Energy>  (206) 
14.8615

>  <b_lp_Chiralities_Consistent>  (206) 
1

>  <s_lp_Variant>  (206) 
59:0-2

>  <s_i_glide_gridfile>  (206) 
pfpi4k_grid

>  <i_i_glide_lignum>  (206) 
7

>  <i_i_glide_rotatable_bonds>  (206) 
1

>  <r_i_docking_score>  (206) 
-4.08445

>  <r_i_glide_ligand_efficiency>  (206) 
-0.272296

>  <r_i_glide_ligand_efficiency_sa>  (206) 
-0.671541

>  <r_i_glide_ligand_efficiency_ln>  (206) 
-1.10151

>  <r_i_glide_gscore>  (206) 
-4.08445

>  <r_i_glide_lipo>  (206) 
-0.417411

>  <r_i_glide_hbond>  (206) 
-0.249916

>  <r_i_glide_metal>  (206) 
-0

>  <r_i_glide_rewards>  (206) 
-2.05085

>  <r_i_glide_evdw>  (206) 
-19.9068

>  <r_i_glide_ecoul>  (206) 
-4.68938

>  <r_i_glide_erotb>  (206) 
0.41104

>  <r_i_glide_esite>  (206) 
-0.0785655

>  <r_i_glide_emodel>  (206) 
-30.7838

>  <r_i_glide_energy>  (206) 
-24.5961

>  <r_i_glide_einternal>  (206) 
2.43724

>  <r_i_glide_intrahb_reward>  (206) 
-0

>  <i_i_glide_confnum>  (206) 
4

>  <i_i_glide_posenum>  (206) 
25

>  <r_i_glide_eff_state_penalty>  (206) 
0

>  <ligand_id>  (206) 
59

>  <original_smiles>  (206) 
Cn1ccnc1-c1nc2ccccc2o1

>  <smiles>  (206) 
[H]c1nc(-c2nc3c([H])c([H])c([H])c([H])c3o2)n(C([H])([H])[H])c1[H]

$$$$
59:1:2
     RDKit          3D

 24 26  0  0  1  0  0  0  0  0999 V2000
    1.4514   -9.9678    2.8012 C   0  0  0  0  0  0  0  0  0  0  0  0
    0.4271   -8.9540    2.6077 N   0  0  0  0  0  0  0  0  0  0  0  0
   -0.9242   -9.1229    2.8827 C   0  0  0  0  0  0  0  0  0  0  0  0
   -1.5439   -7.9453    2.5611 C   0  0  0  0  0  0  0  0  0  0  0  0
   -0.5994   -7.0479    2.0836 N   0  0  0  0  0  0  0  0  0  0  0  0
    0.5666   -7.6959    2.1322 C   0  0  0  0  0  0  0  0  0  0  0  0
    1.8167   -7.0775    1.7046 C   0  0  0  0  0  0  0  0  0  0  0  0
    3.0600   -7.5664    1.8185 N   0  0  0  0  0  0  0  0  0  0  0  0
    3.8411   -6.5776    1.2639 C   0  0  0  0  0  0  0  0  0  0  0  0
    5.2347   -6.4653    1.0910 C   0  0  0  0  0  0  0  0  0  0  0  0
    5.7804   -5.3188    0.4785 C   0  0  0  0  0  0  0  0  0  0  0  0
    4.9411   -4.2758    0.0294 C   0  0  0  0  0  0  0  0  0  0  0  0
    3.5428   -4.3677    0.1986 C   0  0  0  0  0  0  0  0  0  0  0  0
    3.0239   -5.5203    0.8118 C   0  0  0  0  0  0  0  0  0  0  0  0
    1.7086   -5.8527    1.0857 O   0  0  0  0  0  0  0  0  0  0  0  0
    1.0075  -10.8795    3.2030 H   0  0  0  0  0  0  0  0  0  0  0  0
    2.2071   -9.6113    3.5034 H   0  0  0  0  0  0  0  0  0  0  0  0
    1.9346  -10.2039    1.8503 H   0  0  0  0  0  0  0  0  0  0  0  0
   -1.3154  -10.0472    3.2806 H   0  0  0  0  0  0  0  0  0  0  0  0
   -2.5873   -7.6798    2.6336 H   0  0  0  0  0  0  0  0  0  0  0  0
    5.8656   -7.2721    1.4302 H   0  0  0  0  0  0  0  0  0  0  0  0
    6.8475   -5.2540    0.3414 H   0  0  0  0  0  0  0  0  0  0  0  0
    5.3678   -3.4092   -0.4523 H   0  0  0  0  0  0  0  0  0  0  0  0
    2.8879   -3.5775   -0.1432 H   0  0  0  0  0  0  0  0  0  0  0  0
  1  2  1  0
  1 16  1  0
  1 17  1  0
  1 18  1  0
  2  6  1  0
  2  3  1  0
  3  4  2  0
  3 19  1  0
  4  5  1  0
  4 20  1  0
  5  6  2  0
  6  7  1  0
  7 15  1  0
  7  8  2  0
  8  9  1  0
  9 14  2  0
  9 10  1  0
 10 11  2  0
 10 21  1  0
 11 12  1  0
 11 22  1  0
 12 13  2  0
 12 23  1  0
 13 14  1  0
 13 24  1  0
 14 15  1  0
M  END
>  <i_m_ct_stereo_status>  (207) 
1

>  <s_m_source_file>  (207) 
/var/tmp/pbs.5076255.sched01/tmpm261n1hm/82shs6bvht.sdf

>  <i_m_source_file_index>  (207) 
7

>  <i_lp_mmshare_version>  (207) 
48012

>  <i_f3d_flags>  (207) 
0

>  <s_epik_input>  (207) 
W0NIM11uMVtjSF1bY0hdbmMxLWMobjIpb2MoYzIzKVtjSF1bY0hdW2NIXVtjSF0z

>  <s_epik_cmdline>  (207) 
J2VwaWtfcHl0aG9uJywgJy1waHQnLCAnMi4wJywgJy1waCcsICc3LjAnLCAnLXRuJywgJzgnLCAnLW1hJywgJzIwMCcsICctaW1hZScsICc8aW5maWxlLm1hZT4nLCAnLW9tYWUnLCAnPG91dGZpbGUubWFlPic=

>  <r_lp_tautomer_probability>  (207) 
1

>  <r_epik_Ionization_Penalty>  (207) 
0.479385

>  <r_epik_Ionization_Penalty_Charging>  (207) 
0.479385

>  <r_epik_Ionization_Penalty_Neutral>  (207) 
3.01804e-09

>  <r_epik_State_Penalty>  (207) 
0.484248

>  <r_epik_Charging_Adjusted_Penalty>  (207) 
0.963633

>  <i_epik_Tot_Q>  (207) 
0

>  <i_epik_Tot_abs_Q>  (207) 
0

>  <s_lp_Force_Field>  (207) 
OPLS3e

>  <r_lp_Energy>  (207) 
14.8615

>  <b_lp_Chiralities_Consistent>  (207) 
1

>  <s_lp_Variant>  (207) 
59:0-2

>  <s_i_glide_gridfile>  (207) 
pfpi4k_grid

>  <i_i_glide_lignum>  (207) 
7

>  <i_i_glide_rotatable_bonds>  (207) 
1

>  <r_i_docking_score>  (207) 
-3.92123

>  <r_i_glide_ligand_efficiency>  (207) 
-0.261415

>  <r_i_glide_ligand_efficiency_sa>  (207) 
-0.644706

>  <r_i_glide_ligand_efficiency_ln>  (207) 
-1.05749

>  <r_i_glide_gscore>  (207) 
-3.92123

>  <r_i_glide_lipo>  (207) 
-0.433926

>  <r_i_glide_hbond>  (207) 
-0.228824

>  <r_i_glide_metal>  (207) 
-0

>  <r_i_glide_rewards>  (207) 
-2.05085

>  <r_i_glide_evdw>  (207) 
-20.5158

>  <r_i_glide_ecoul>  (207) 
-3.43994

>  <r_i_glide_erotb>  (207) 
0.41104

>  <r_i_glide_esite>  (207) 
-0.0768904

>  <r_i_glide_emodel>  (207) 
-31.0072

>  <r_i_glide_energy>  (207) 
-23.9557

>  <r_i_glide_einternal>  (207) 
0.133385

>  <r_i_glide_intrahb_reward>  (207) 
-0

>  <i_i_glide_confnum>  (207) 
1

>  <i_i_glide_posenum>  (207) 
13

>  <r_i_glide_eff_state_penalty>  (207) 
0

>  <ligand_id>  (207) 
59

>  <original_smiles>  (207) 
Cn1ccnc1-c1nc2ccccc2o1

>  <smiles>  (207) 
[H]c1nc(-c2nc3c([H])c([H])c([H])c([H])c3o2)n(C([H])([H])[H])c1[H]

$$$$
60:0:0
     RDKit          3D

 66 71  0  0  1  0  0  0  0  0999 V2000
    5.4159   -3.0768    3.9647 O   0  0  0  0  0  0  0  0  0  0  0  0
    4.1490   -3.6138    3.4215 S   0  0  0  0  0  0  0  0  0  0  0  0
    3.3544   -4.4990    4.2811 O   0  0  0  0  0  0  0  0  0  0  0  0
    3.1425   -2.1971    2.9940 C   0  0  0  0  0  0  0  0  0  0  0  0
    1.7671   -2.2073    3.2905 C   0  0  0  0  0  0  0  0  0  0  0  0
    0.9908   -1.0861    2.9368 C   0  0  0  0  0  0  0  0  0  0  0  0
    1.5620    0.0074    2.2573 C   0  0  0  0  0  0  0  0  0  0  0  0
    0.5722    1.3384    1.8226 Cl  0  0  0  0  0  0  0  0  0  0  0  0
    2.9402    0.0166    1.9615 C   0  0  0  0  0  0  0  0  0  0  0  0
    3.7340   -1.0665    2.3800 C   0  0  0  0  0  0  0  0  0  0  0  0
    4.5088   -4.5477    1.8276 C   0  0  1  0  0  0  0  0  0  0  0  0
    5.6970   -5.5307    2.0566 C   0  0  0  0  0  0  0  0  0  0  0  0
    5.1836   -6.9307    1.7204 C   0  0  1  0  0  0  0  0  0  0  0  0
    5.8174   -8.1208    2.4489 C   0  0  0  0  0  0  0  0  0  0  0  0
    5.1019   -9.3929    1.9559 C   0  0  0  0  0  0  0  0  0  0  0  0
    3.5767   -9.3185    2.1575 C   0  0  0  0  0  0  0  0  0  0  0  0
    2.9655   -8.0691    1.6265 N   0  0  1  0  0  0  0  0  0  0  0  0
    1.5026   -8.0403    1.8576 C   0  0  0  0  0  0  0  0  0  0  0  0
    1.1525   -7.4993    3.2531 C   0  0  0  0  0  0  0  0  0  0  0  0
   -0.3024   -7.5911    3.6330 C   0  0  0  0  0  0  0  0  0  0  0  0
   -0.6263   -7.2172    5.0868 C   0  0  0  0  0  0  0  0  0  0  0  0
   -0.6030   -8.7113    5.4078 C   0  0  0  0  0  0  0  0  0  0  0  0
   -0.8785   -8.9789    3.9256 C   0  0  0  0  0  0  0  0  0  0  0  0
    3.7184   -6.8538    2.0675 C   0  0  2  0  0  0  0  0  0  0  0  0
    3.2864   -5.4692    1.5367 C   0  0  2  0  0  0  0  0  0  0  0  0
    2.9265   -5.4382    0.0554 C   0  0  0  0  0  0  0  0  0  0  0  0
    2.6828   -4.1007   -0.3444 O   0  0  0  0  0  0  0  0  0  0  0  0
    3.8116   -3.3292   -0.3107 C   0  0  0  0  0  0  0  0  0  0  0  0
    3.9783   -2.3071   -1.2702 C   0  0  0  0  0  0  0  0  0  0  0  0
    3.0494   -2.1199   -2.2386 F   0  0  0  0  0  0  0  0  0  0  0  0
    5.1284   -1.4935   -1.2459 C   0  0  0  0  0  0  0  0  0  0  0  0
    6.1190   -1.7211   -0.2730 C   0  0  0  0  0  0  0  0  0  0  0  0
    5.9619   -2.7537    0.6741 C   0  0  0  0  0  0  0  0  0  0  0  0
    6.8905   -2.9220    1.6251 F   0  0  0  0  0  0  0  0  0  0  0  0
    4.7899   -3.5460    0.6895 C   0  0  0  0  0  0  0  0  0  0  0  0
    1.3154   -3.0452    3.8018 H   0  0  0  0  0  0  0  0  0  0  0  0
   -0.0607   -1.0609    3.1803 H   0  0  0  0  0  0  0  0  0  0  0  0
    3.3882    0.8511    1.4336 H   0  0  0  0  0  0  0  0  0  0  0  0
    4.7950   -1.0227    2.2034 H   0  0  0  0  0  0  0  0  0  0  0  0
    6.5667   -5.3023    1.4399 H   0  0  0  0  0  0  0  0  0  0  0  0
    6.0339   -5.4962    3.0978 H   0  0  0  0  0  0  0  0  0  0  0  0
    5.2977   -7.0792    0.6444 H   0  0  0  0  0  0  0  0  0  0  0  0
    6.8895   -8.1829    2.2406 H   0  0  0  0  0  0  0  0  0  0  0  0
    5.6932   -8.0267    3.5314 H   0  0  0  0  0  0  0  0  0  0  0  0
    5.3300   -9.5596    0.8995 H   0  0  0  0  0  0  0  0  0  0  0  0
    5.4839  -10.2637    2.4878 H   0  0  0  0  0  0  0  0  0  0  0  0
    3.1134  -10.1891    1.6962 H   0  0  0  0  0  0  0  0  0  0  0  0
    3.3760   -9.4048    3.2219 H   0  0  0  0  0  0  0  0  0  0  0  0
    1.0021   -7.4428    1.1104 H   0  0  0  0  0  0  0  0  0  0  0  0
    1.0924   -9.0381    1.7095 H   0  0  0  0  0  0  0  0  0  0  0  0
    1.7210   -8.0547    3.9982 H   0  0  0  0  0  0  0  0  0  0  0  0
    1.4341   -6.4541    3.3824 H   0  0  0  0  0  0  0  0  0  0  0  0
   -0.9507   -7.0406    2.9464 H   0  0  0  0  0  0  0  0  0  0  0  0
    0.1416   -6.6374    5.6040 H   0  0  0  0  0  0  0  0  0  0  0  0
   -1.6097   -6.7648    5.1955 H   0  0  0  0  0  0  0  0  0  0  0  0
    0.3757   -9.0721    5.7270 H   0  0  0  0  0  0  0  0  0  0  0  0
   -1.3868   -9.0643    6.0749 H   0  0  0  0  0  0  0  0  0  0  0  0
   -1.9405   -9.0464    3.6902 H   0  0  0  0  0  0  0  0  0  0  0  0
   -0.3179   -9.8208    3.5112 H   0  0  0  0  0  0  0  0  0  0  0  0
    3.7014   -6.8087    3.1540 H   0  0  0  0  0  0  0  0  0  0  0  0
    2.4017   -5.0782    2.0423 H   0  0  0  0  0  0  0  0  0  0  0  0
    3.7391   -5.8609   -0.5410 H   0  0  0  0  0  0  0  0  0  0  0  0
    2.0166   -5.9886   -0.1586 H   0  0  0  0  0  0  0  0  0  0  0  0
    5.2377   -0.7035   -1.9757 H   0  0  0  0  0  0  0  0  0  0  0  0
    6.9875   -1.0833   -0.2061 H   0  0  0  0  0  0  0  0  0  0  0  0
    3.0811   -8.1555    0.6205 H   0  0  0  0  0  0  0  0  0  0  0  0
  1  2  2  0
  2  3  2  0
  2  4  1  0
 11  2  1  1
  4 10  1  0
  4  5  2  0
  5  6  1  0
  5 36  1  0
  6  7  2  0
  6 37  1  0
  7  8  1  0
  7  9  1  0
  9 10  2  0
  9 38  1  0
 10 39  1  0
 11 25  1  0
 11 35  1  0
 11 12  1  0
 12 13  1  0
 12 40  1  0
 12 41  1  0
 13 24  1  0
 13 14  1  0
 13 42  1  6
 14 15  1  0
 14 43  1  0
 14 44  1  0
 15 16  1  0
 15 45  1  0
 15 46  1  0
 16 17  1  0
 16 47  1  0
 16 48  1  0
 17 18  1  0
 17 24  1  0
 17 66  1  6
 18 19  1  0
 18 49  1  0
 18 50  1  0
 19 20  1  0
 19 51  1  0
 19 52  1  0
 20 23  1  0
 20 21  1  0
 20 53  1  0
 21 22  1  0
 21 54  1  0
 21 55  1  0
 22 23  1  0
 22 56  1  0
 22 57  1  0
 23 58  1  0
 23 59  1  0
 24 25  1  0
 24 60  1  1
 25 26  1  0
 25 61  1  1
 26 27  1  0
 26 62  1  0
 26 63  1  0
 27 28  1  0
 28 35  2  0
 28 29  1  0
 29 30  1  0
 29 31  2  0
 31 32  1  0
 31 64  1  0
 32 33  2  0
 32 65  1  0
 33 34  1  0
 33 35  1  0
M  CHG  1  17   1
M  END
>  <i_m_ct_stereo_status>  (208) 
1

>  <s_m_source_file>  (208) 
/var/tmp/pbs.5076255.sched01/tmpm261n1hm/82shs6bvht.sdf

>  <i_m_source_file_index>  (208) 
8

>  <i_lp_mmshare_version>  (208) 
48012

>  <i_f3d_flags>  (208) 
0

>  <s_epik_input>  (208) 
RmMxW2NIXVtjSF1jKEYpYzJjMU9bQ0gyXVtDQEhdKFtDQF0yM1MoPU8pKD1PKWM0W2NIXVtjSF1jKENsKVtjSF1bY0hdNClbQ0BASF01W0NAQEhdKFtDSDJdMylbQ0gyXVtDSDJdW0NIMl1ONVtDSDJdW0NIMl1bQ0hdNltDSDJdW0NIMl1bQ0gyXTY=

>  <s_epik_cmdline>  (208) 
J2VwaWtfcHl0aG9uJywgJy1waHQnLCAnMi4wJywgJy1waCcsICc3LjAnLCAnLXRuJywgJzgnLCAnLW1hJywgJzIwMCcsICctaW1hZScsICc8aW5maWxlLm1hZT4nLCAnLW9tYWUnLCAnPG91dGZpbGUubWFlPic=

>  <r_lp_tautomer_probability>  (208) 
1

>  <r_epik_Ionization_Penalty>  (208) 
0.0161593

>  <r_epik_Ionization_Penalty_Charging>  (208) 
0.0161593

>  <r_epik_Ionization_Penalty_Neutral>  (208) 
0

>  <r_epik_State_Penalty>  (208) 
0.0127394

>  <r_epik_Charging_Adjusted_Penalty>  (208) 
0.0288987

>  <i_epik_Tot_Q>  (208) 
1

>  <i_epik_Tot_abs_Q>  (208) 
1

>  <s_lp_Force_Field>  (208) 
OPLS3e

>  <r_lp_Energy>  (208) 
56.7008

>  <b_lp_Chiralities_Consistent>  (208) 
1

>  <s_lp_Variant>  (208) 
60:0-1

>  <s_i_glide_gridfile>  (208) 
pfpi4k_grid

>  <i_i_glide_lignum>  (208) 
8

>  <i_i_glide_rotatable_bonds>  (208) 
5

>  <r_i_docking_score>  (208) 
-1.75045

>  <r_i_glide_ligand_efficiency>  (208) 
-0.0500129

>  <r_i_glide_ligand_efficiency_sa>  (208) 
-0.163596

>  <r_i_glide_ligand_efficiency_ln>  (208) 
-0.384263

>  <r_i_glide_gscore>  (208) 
-1.75045

>  <r_i_glide_lipo>  (208) 
-0.326131

>  <r_i_glide_hbond>  (208) 
0

>  <r_i_glide_metal>  (208) 
-0

>  <r_i_glide_rewards>  (208) 
-0.0376302

>  <r_i_glide_evdw>  (208) 
-29.6428

>  <r_i_glide_ecoul>  (208) 
-1.39198

>  <r_i_glide_erotb>  (208) 
0.375891

>  <r_i_glide_esite>  (208) 
-0.0716457

>  <r_i_glide_emodel>  (208) 
-31.3477

>  <r_i_glide_energy>  (208) 
-31.0348

>  <r_i_glide_einternal>  (208) 
4.8928

>  <r_i_glide_intrahb_reward>  (208) 
-0

>  <i_i_glide_confnum>  (208) 
3

>  <i_i_glide_posenum>  (208) 
5

>  <r_i_glide_eff_state_penalty>  (208) 
0

>  <ligand_id>  (208) 
60

>  <original_smiles>  (208) 
O=S(=O)(c1ccc(Cl)cc1)C12CC3CCCN(CCC4CCC4)C3C1COc1c(F)ccc(F)c12

>  <smiles>  (208) 
[H]c1c([H])c(F)c2c(c1F)OC([H])([H])C1([H])C3([H])C([H])(C([H])([H])C([H])([H])C([H])([H])[N+]3([H])C([H])([H])C([H])([H])C3([H])C([H])([H])C([H])([H])C3([H])[H])C([H])([H])C21S(=O)(=O)c1c([H])c([H])c(Cl)c([H])c1[H]

$$$$
60:0:1
     RDKit          3D

 66 71  0  0  1  0  0  0  0  0999 V2000
    6.2621   -6.2238    5.8413 O   0  0  0  0  0  0  0  0  0  0  0  0
    6.7848   -7.4908    5.3043 S   0  0  0  0  0  0  0  0  0  0  0  0
    8.2091   -7.5879    4.9512 O   0  0  0  0  0  0  0  0  0  0  0  0
    6.4896   -8.7636    6.5370 C   0  0  0  0  0  0  0  0  0  0  0  0
    7.2637   -9.9426    6.5224 C   0  0  0  0  0  0  0  0  0  0  0  0
    6.9963  -10.9691    7.4503 C   0  0  0  0  0  0  0  0  0  0  0  0
    5.9590  -10.8139    8.3929 C   0  0  0  0  0  0  0  0  0  0  0  0
    5.6497  -12.0573    9.5405 Cl  0  0  0  0  0  0  0  0  0  0  0  0
    5.1834   -9.6365    8.4024 C   0  0  0  0  0  0  0  0  0  0  0  0
    5.4474   -8.6061    7.4775 C   0  0  0  0  0  0  0  0  0  0  0  0
    5.7527   -7.9327    3.8007 C   0  0  1  0  0  0  0  0  0  0  0  0
    6.1608   -9.3257    3.2372 C   0  0  0  0  0  0  0  0  0  0  0  0
    4.9015  -10.2032    3.2727 C   0  0  1  0  0  0  0  0  0  0  0  0
    5.0956  -11.7066    3.4705 C   0  0  0  0  0  0  0  0  0  0  0  0
    3.6993  -12.3496    3.4750 C   0  0  0  0  0  0  0  0  0  0  0  0
    2.7618  -11.7201    4.5384 C   0  0  0  0  0  0  0  0  0  0  0  0
    2.6938  -10.2248    4.4507 N   0  0  1  0  0  0  0  0  0  0  0  0
    1.8284   -9.6600    5.5291 C   0  0  0  0  0  0  0  0  0  0  0  0
    0.3397   -9.6098    5.1293 C   0  0  0  0  0  0  0  0  0  0  0  0
    0.0078   -8.5256    4.1041 C   0  0  0  0  0  0  0  0  0  0  0  0
   -1.4537   -8.3141    3.6939 C   0  0  0  0  0  0  0  0  0  0  0  0
   -1.1851   -9.1911    2.4741 C   0  0  0  0  0  0  0  0  0  0  0  0
    0.2953   -8.8479    2.6217 C   0  0  0  0  0  0  0  0  0  0  0  0
    4.0731   -9.6444    4.4183 C   0  0  2  0  0  0  0  0  0  0  0  0
    4.2645   -8.1124    4.2446 C   0  0  2  0  0  0  0  0  0  0  0  0
    3.3122   -7.4629    3.2331 C   0  0  0  0  0  0  0  0  0  0  0  0
    3.6282   -6.0993    3.0600 O   0  0  0  0  0  0  0  0  0  0  0  0
    4.8580   -5.9038    2.5032 C   0  0  0  0  0  0  0  0  0  0  0  0
    5.0065   -4.8064    1.6328 C   0  0  0  0  0  0  0  0  0  0  0  0
    3.9642   -3.9738    1.3984 F   0  0  0  0  0  0  0  0  0  0  0  0
    6.2316   -4.5949    0.9834 C   0  0  0  0  0  0  0  0  0  0  0  0
    7.2992   -5.4799    1.2082 C   0  0  0  0  0  0  0  0  0  0  0  0
    7.1554   -6.5695    2.0919 C   0  0  0  0  0  0  0  0  0  0  0  0
    8.1937   -7.4083    2.2750 F   0  0  0  0  0  0  0  0  0  0  0  0
    5.9316   -6.7899    2.7700 C   0  0  0  0  0  0  0  0  0  0  0  0
    8.0548  -10.0684    5.7997 H   0  0  0  0  0  0  0  0  0  0  0  0
    7.5873  -11.8719    7.4396 H   0  0  0  0  0  0  0  0  0  0  0  0
    4.3843   -9.5232    9.1200 H   0  0  0  0  0  0  0  0  0  0  0  0
    4.8478   -7.7107    7.4766 H   0  0  0  0  0  0  0  0  0  0  0  0
    6.5573   -9.2775    2.2236 H   0  0  0  0  0  0  0  0  0  0  0  0
    6.9459   -9.7749    3.8448 H   0  0  0  0  0  0  0  0  0  0  0  0
    4.3706  -10.0516    2.3282 H   0  0  0  0  0  0  0  0  0  0  0  0
    5.7011  -12.1337    2.6670 H   0  0  0  0  0  0  0  0  0  0  0  0
    5.6004  -11.9183    4.4147 H   0  0  0  0  0  0  0  0  0  0  0  0
    3.2478  -12.2582    2.4821 H   0  0  0  0  0  0  0  0  0  0  0  0
    3.8163  -13.4180    3.6591 H   0  0  0  0  0  0  0  0  0  0  0  0
    1.7612  -12.1453    4.4296 H   0  0  0  0  0  0  0  0  0  0  0  0
    3.1101  -12.0228    5.5272 H   0  0  0  0  0  0  0  0  0  0  0  0
    1.9277  -10.2542    6.4386 H   0  0  0  0  0  0  0  0  0  0  0  0
    2.1381   -8.6536    5.8058 H   0  0  0  0  0  0  0  0  0  0  0  0
    0.0215  -10.5844    4.7510 H   0  0  0  0  0  0  0  0  0  0  0  0
   -0.2506   -9.4378    6.0302 H   0  0  0  0  0  0  0  0  0  0  0  0
    0.3758   -7.5469    4.4217 H   0  0  0  0  0  0  0  0  0  0  0  0
   -2.1725   -8.7028    4.4154 H   0  0  0  0  0  0  0  0  0  0  0  0
   -1.6624   -7.2755    3.4378 H   0  0  0  0  0  0  0  0  0  0  0  0
   -1.3865  -10.2438    2.6738 H   0  0  0  0  0  0  0  0  0  0  0  0
   -1.6388   -8.8501    1.5448 H   0  0  0  0  0  0  0  0  0  0  0  0
    0.5988   -7.9854    2.0273 H   0  0  0  0  0  0  0  0  0  0  0  0
    0.9535   -9.7019    2.4468 H   0  0  0  0  0  0  0  0  0  0  0  0
    4.5280   -9.9576    5.3535 H   0  0  0  0  0  0  0  0  0  0  0  0
    4.0873   -7.5987    5.1912 H   0  0  0  0  0  0  0  0  0  0  0  0
    3.3070   -7.9760    2.2628 H   0  0  0  0  0  0  0  0  0  0  0  0
    2.3134   -7.4683    3.6375 H   0  0  0  0  0  0  0  0  0  0  0  0
    6.3393   -3.7615    0.3048 H   0  0  0  0  0  0  0  0  0  0  0  0
    8.2362   -5.3272    0.7008 H   0  0  0  0  0  0  0  0  0  0  0  0
    2.2525  -10.0054    3.5657 H   0  0  0  0  0  0  0  0  0  0  0  0
  1  2  2  0
  2  3  2  0
  2  4  1  0
 11  2  1  1
  4 10  1  0
  4  5  2  0
  5  6  1  0
  5 36  1  0
  6  7  2  0
  6 37  1  0
  7  8  1  0
  7  9  1  0
  9 10  2  0
  9 38  1  0
 10 39  1  0
 11 25  1  0
 11 35  1  0
 11 12  1  0
 12 13  1  0
 12 40  1  0
 12 41  1  0
 13 24  1  0
 13 14  1  0
 13 42  1  6
 14 15  1  0
 14 43  1  0
 14 44  1  0
 15 16  1  0
 15 45  1  0
 15 46  1  0
 16 17  1  0
 16 47  1  0
 16 48  1  0
 17 18  1  0
 17 24  1  0
 17 66  1  6
 18 19  1  0
 18 49  1  0
 18 50  1  0
 19 20  1  0
 19 51  1  0
 19 52  1  0
 20 23  1  0
 20 21  1  0
 20 53  1  0
 21 22  1  0
 21 54  1  0
 21 55  1  0
 22 23  1  0
 22 56  1  0
 22 57  1  0
 23 58  1  0
 23 59  1  0
 24 25  1  0
 24 60  1  1
 25 26  1  0
 25 61  1  1
 26 27  1  0
 26 62  1  0
 26 63  1  0
 27 28  1  0
 28 35  2  0
 28 29  1  0
 29 30  1  0
 29 31  2  0
 31 32  1  0
 31 64  1  0
 32 33  2  0
 32 65  1  0
 33 34  1  0
 33 35  1  0
M  CHG  1  17   1
M  END
>  <i_m_ct_stereo_status>  (209) 
1

>  <s_m_source_file>  (209) 
/var/tmp/pbs.5076255.sched01/tmpm261n1hm/82shs6bvht.sdf

>  <i_m_source_file_index>  (209) 
8

>  <i_lp_mmshare_version>  (209) 
48012

>  <i_f3d_flags>  (209) 
0

>  <s_epik_input>  (209) 
RmMxW2NIXVtjSF1jKEYpYzJjMU9bQ0gyXVtDQEhdKFtDQF0yM1MoPU8pKD1PKWM0W2NIXVtjSF1jKENsKVtjSF1bY0hdNClbQ0BASF01W0NAQEhdKFtDSDJdMylbQ0gyXVtDSDJdW0NIMl1ONVtDSDJdW0NIMl1bQ0hdNltDSDJdW0NIMl1bQ0gyXTY=

>  <s_epik_cmdline>  (209) 
J2VwaWtfcHl0aG9uJywgJy1waHQnLCAnMi4wJywgJy1waCcsICc3LjAnLCAnLXRuJywgJzgnLCAnLW1hJywgJzIwMCcsICctaW1hZScsICc8aW5maWxlLm1hZT4nLCAnLW9tYWUnLCAnPG91dGZpbGUubWFlPic=

>  <r_lp_tautomer_probability>  (209) 
1

>  <r_epik_Ionization_Penalty>  (209) 
0.0161593

>  <r_epik_Ionization_Penalty_Charging>  (209) 
0.0161593

>  <r_epik_Ionization_Penalty_Neutral>  (209) 
0

>  <r_epik_State_Penalty>  (209) 
0.0127394

>  <r_epik_Charging_Adjusted_Penalty>  (209) 
0.0288987

>  <i_epik_Tot_Q>  (209) 
1

>  <i_epik_Tot_abs_Q>  (209) 
1

>  <s_lp_Force_Field>  (209) 
OPLS3e

>  <r_lp_Energy>  (209) 
56.7008

>  <b_lp_Chiralities_Consistent>  (209) 
1

>  <s_lp_Variant>  (209) 
60:0-1

>  <s_i_glide_gridfile>  (209) 
pfpi4k_grid

>  <i_i_glide_lignum>  (209) 
8

>  <i_i_glide_rotatable_bonds>  (209) 
5

>  <r_i_docking_score>  (209) 
-1.67819

>  <r_i_glide_ligand_efficiency>  (209) 
-0.0479484

>  <r_i_glide_ligand_efficiency_sa>  (209) 
-0.156842

>  <r_i_glide_ligand_efficiency_ln>  (209) 
-0.368401

>  <r_i_glide_gscore>  (209) 
-1.67819

>  <r_i_glide_lipo>  (209) 
-0.458799

>  <r_i_glide_hbond>  (209) 
0

>  <r_i_glide_metal>  (209) 
-0

>  <r_i_glide_rewards>  (209) 
-0.0157941

>  <r_i_glide_evdw>  (209) 
-22.0345

>  <r_i_glide_ecoul>  (209) 
-2.68165

>  <r_i_glide_erotb>  (209) 
0.375891

>  <r_i_glide_esite>  (209) 
-0.0755204

>  <r_i_glide_emodel>  (209) 
-26.3831

>  <r_i_glide_energy>  (209) 
-24.7161

>  <r_i_glide_einternal>  (209) 
3.0225

>  <r_i_glide_intrahb_reward>  (209) 
-0

>  <i_i_glide_confnum>  (209) 
4

>  <i_i_glide_posenum>  (209) 
3

>  <r_i_glide_eff_state_penalty>  (209) 
0

>  <ligand_id>  (209) 
60

>  <original_smiles>  (209) 
O=S(=O)(c1ccc(Cl)cc1)C12CC3CCCN(CCC4CCC4)C3C1COc1c(F)ccc(F)c12

>  <smiles>  (209) 
[H]c1c([H])c(F)c2c(c1F)OC([H])([H])C1([H])C3([H])C([H])(C([H])([H])C([H])([H])C([H])([H])[N+]3([H])C([H])([H])C([H])([H])C3([H])C([H])([H])C([H])([H])C3([H])[H])C([H])([H])C21S(=O)(=O)c1c([H])c([H])c(Cl)c([H])c1[H]

$$$$
60:0:2
     RDKit          3D

 66 71  0  0  1  0  0  0  0  0999 V2000
    4.5110   -9.9671    5.1038 O   0  0  0  0  0  0  0  0  0  0  0  0
    4.3631   -9.1158    3.9109 S   0  0  0  0  0  0  0  0  0  0  0  0
    5.0202   -9.5232    2.6674 O   0  0  0  0  0  0  0  0  0  0  0  0
    2.5954   -8.9770    3.5712 C   0  0  0  0  0  0  0  0  0  0  0  0
    2.1686   -8.5079    2.3103 C   0  0  0  0  0  0  0  0  0  0  0  0
    0.8089   -8.2745    2.0789 C   0  0  0  0  0  0  0  0  0  0  0  0
   -0.1466   -8.6260    3.0557 C   0  0  0  0  0  0  0  0  0  0  0  0
   -1.8106   -8.4315    2.6901 Cl  0  0  0  0  0  0  0  0  0  0  0  0
    0.2680   -9.1598    4.2867 C   0  0  0  0  0  0  0  0  0  0  0  0
    1.6437   -9.3197    4.5664 C   0  0  0  0  0  0  0  0  0  0  0  0
    4.9854   -7.3878    4.3251 C   0  0  1  0  0  0  0  0  0  0  0  0
    6.5428   -7.4330    4.4791 C   0  0  0  0  0  0  0  0  0  0  0  0
    7.1125   -6.4696    3.4319 C   0  0  1  0  0  0  0  0  0  0  0  0
    8.5042   -6.7535    2.8706 C   0  0  0  0  0  0  0  0  0  0  0  0
    8.8189   -5.6510    1.8495 C   0  0  0  0  0  0  0  0  0  0  0  0
    7.7446   -5.5767    0.7421 C   0  0  0  0  0  0  0  0  0  0  0  0
    6.3506   -5.4494    1.2734 N   0  0  1  0  0  0  0  0  0  0  0  0
    5.3174   -5.3750    0.1865 C   0  0  0  0  0  0  0  0  0  0  0  0
    5.4428   -4.0975   -0.6915 C   0  0  0  0  0  0  0  0  0  0  0  0
    5.1384   -2.7997    0.0521 C   0  0  0  0  0  0  0  0  0  0  0  0
    5.4335   -1.4816   -0.6851 C   0  0  0  0  0  0  0  0  0  0  0  0
    6.7415   -1.4012    0.0990 C   0  0  0  0  0  0  0  0  0  0  0  0
    6.1025   -2.2956    1.1561 C   0  0  0  0  0  0  0  0  0  0  0  0
    6.0922   -6.5069    2.3044 C   0  0  2  0  0  0  0  0  0  0  0  0
    4.7584   -6.4524    3.0817 C   0  0  2  0  0  0  0  0  0  0  0  0
    4.2506   -5.0619    3.5048 C   0  0  0  0  0  0  0  0  0  0  0  0
    3.0786   -5.2406    4.2816 O   0  0  0  0  0  0  0  0  0  0  0  0
    3.2940   -5.8718    5.4747 C   0  0  0  0  0  0  0  0  0  0  0  0
    2.5419   -5.4604    6.6005 C   0  0  0  0  0  0  0  0  0  0  0  0
    1.6123   -4.4844    6.4748 F   0  0  0  0  0  0  0  0  0  0  0  0
    2.7760   -6.0450    7.8525 C   0  0  0  0  0  0  0  0  0  0  0  0
    3.7612   -7.0424    7.9951 C   0  0  0  0  0  0  0  0  0  0  0  0
    4.5059   -7.4624    6.8703 C   0  0  0  0  0  0  0  0  0  0  0  0
    5.4593   -8.4067    7.0405 F   0  0  0  0  0  0  0  0  0  0  0  0
    4.2668   -6.8982    5.5989 C   0  0  0  0  0  0  0  0  0  0  0  0
    2.8644   -8.3208    1.5066 H   0  0  0  0  0  0  0  0  0  0  0  0
    0.4950   -7.8725    1.1285 H   0  0  0  0  0  0  0  0  0  0  0  0
   -0.4768   -9.4608    5.0143 H   0  0  0  0  0  0  0  0  0  0  0  0
    1.9603   -9.7277    5.5131 H   0  0  0  0  0  0  0  0  0  0  0  0
    6.8774   -7.1458    5.4697 H   0  0  0  0  0  0  0  0  0  0  0  0
    6.9105   -8.4434    4.2889 H   0  0  0  0  0  0  0  0  0  0  0  0
    7.1146   -5.4725    3.8717 H   0  0  0  0  0  0  0  0  0  0  0  0
    9.2590   -6.7486    3.6581 H   0  0  0  0  0  0  0  0  0  0  0  0
    8.5324   -7.7226    2.3699 H   0  0  0  0  0  0  0  0  0  0  0  0
    8.9108   -4.6855    2.3482 H   0  0  0  0  0  0  0  0  0  0  0  0
    9.7705   -5.8495    1.3790 H   0  0  0  0  0  0  0  0  0  0  0  0
    8.0020   -4.7015    0.1359 H   0  0  0  0  0  0  0  0  0  0  0  0
    7.8210   -6.4509    0.0891 H   0  0  0  0  0  0  0  0  0  0  0  0
    5.3880   -6.2595   -0.4443 H   0  0  0  0  0  0  0  0  0  0  0  0
    4.3054   -5.3876    0.5992 H   0  0  0  0  0  0  0  0  0  0  0  0
    6.4215   -4.0172   -1.1621 H   0  0  0  0  0  0  0  0  0  0  0  0
    4.7636   -4.2256   -1.5359 H   0  0  0  0  0  0  0  0  0  0  0  0
    4.1034   -2.7846    0.4104 H   0  0  0  0  0  0  0  0  0  0  0  0
    5.5472   -1.5688   -1.7694 H   0  0  0  0  0  0  0  0  0  0  0  0
    4.7473   -0.6802   -0.4136 H   0  0  0  0  0  0  0  0  0  0  0  0
    7.5701   -1.9078   -0.4036 H   0  0  0  0  0  0  0  0  0  0  0  0
    7.0177   -0.4171    0.4729 H   0  0  0  0  0  0  0  0  0  0  0  0
    5.5757   -1.7521    1.9463 H   0  0  0  0  0  0  0  0  0  0  0  0
    6.8422   -2.9776    1.5719 H   0  0  0  0  0  0  0  0  0  0  0  0
    6.1504   -7.4759    1.8017 H   0  0  0  0  0  0  0  0  0  0  0  0
    4.0105   -6.8136    2.4036 H   0  0  0  0  0  0  0  0  0  0  0  0
    4.9892   -4.4714    4.0608 H   0  0  0  0  0  0  0  0  0  0  0  0
    3.9588   -4.4913    2.6189 H   0  0  0  0  0  0  0  0  0  0  0  0
    2.2177   -5.7158    8.7142 H   0  0  0  0  0  0  0  0  0  0  0  0
    3.9522   -7.4836    8.9571 H   0  0  0  0  0  0  0  0  0  0  0  0
    6.2945   -4.5610    1.7634 H   0  0  0  0  0  0  0  0  0  0  0  0
  1  2  2  0
  2  3  2  0
  2  4  1  0
 11  2  1  6
  4 10  1  0
  4  5  2  0
  5  6  1  0
  5 36  1  0
  6  7  2  0
  6 37  1  0
  7  8  1  0
  7  9  1  0
  9 10  2  0
  9 38  1  0
 10 39  1  0
 11 25  1  0
 11 35  1  0
 11 12  1  0
 12 13  1  0
 12 40  1  0
 12 41  1  0
 13 24  1  0
 13 14  1  0
 13 42  1  1
 14 15  1  0
 14 43  1  0
 14 44  1  0
 15 16  1  0
 15 45  1  0
 15 46  1  0
 16 17  1  0
 16 47  1  0
 16 48  1  0
 17 18  1  0
 17 24  1  0
 17 66  1  1
 18 19  1  0
 18 49  1  0
 18 50  1  0
 19 20  1  0
 19 51  1  0
 19 52  1  0
 20 23  1  0
 20 21  1  0
 20 53  1  0
 21 22  1  0
 21 54  1  0
 21 55  1  0
 22 23  1  0
 22 56  1  0
 22 57  1  0
 23 58  1  0
 23 59  1  0
 24 25  1  0
 24 60  1  6
 25 26  1  0
 25 61  1  6
 26 27  1  0
 26 62  1  0
 26 63  1  0
 27 28  1  0
 28 35  2  0
 28 29  1  0
 29 30  1  0
 29 31  2  0
 31 32  1  0
 31 64  1  0
 32 33  2  0
 32 65  1  0
 33 34  1  0
 33 35  1  0
M  CHG  1  17   1
M  END
>  <i_m_ct_stereo_status>  (210) 
1

>  <s_m_source_file>  (210) 
/var/tmp/pbs.5076255.sched01/tmpm261n1hm/82shs6bvht.sdf

>  <i_m_source_file_index>  (210) 
8

>  <i_lp_mmshare_version>  (210) 
48012

>  <i_f3d_flags>  (210) 
0

>  <s_epik_input>  (210) 
RmMxW2NIXVtjSF1jKEYpYzJjMU9bQ0gyXVtDQEhdKFtDQF0yM1MoPU8pKD1PKWM0W2NIXVtjSF1jKENsKVtjSF1bY0hdNClbQ0BASF01W0NAQEhdKFtDSDJdMylbQ0gyXVtDSDJdW0NIMl1ONVtDSDJdW0NIMl1bQ0hdNltDSDJdW0NIMl1bQ0gyXTY=

>  <s_epik_cmdline>  (210) 
J2VwaWtfcHl0aG9uJywgJy1waHQnLCAnMi4wJywgJy1waCcsICc3LjAnLCAnLXRuJywgJzgnLCAnLW1hJywgJzIwMCcsICctaW1hZScsICc8aW5maWxlLm1hZT4nLCAnLW9tYWUnLCAnPG91dGZpbGUubWFlPic=

>  <r_lp_tautomer_probability>  (210) 
1

>  <r_epik_Ionization_Penalty>  (210) 
0.0161593

>  <r_epik_Ionization_Penalty_Charging>  (210) 
0.0161593

>  <r_epik_Ionization_Penalty_Neutral>  (210) 
0

>  <r_epik_State_Penalty>  (210) 
0.0127394

>  <r_epik_Charging_Adjusted_Penalty>  (210) 
0.0288987

>  <i_epik_Tot_Q>  (210) 
1

>  <i_epik_Tot_abs_Q>  (210) 
1

>  <s_lp_Force_Field>  (210) 
OPLS3e

>  <r_lp_Energy>  (210) 
56.7008

>  <b_lp_Chiralities_Consistent>  (210) 
1

>  <s_lp_Variant>  (210) 
60:0-1

>  <s_i_glide_gridfile>  (210) 
pfpi4k_grid

>  <i_i_glide_lignum>  (210) 
8

>  <i_i_glide_rotatable_bonds>  (210) 
5

>  <r_i_docking_score>  (210) 
-1.66771

>  <r_i_glide_ligand_efficiency>  (210) 
-0.0476488

>  <r_i_glide_ligand_efficiency_sa>  (210) 
-0.155862

>  <r_i_glide_ligand_efficiency_ln>  (210) 
-0.366099

>  <r_i_glide_gscore>  (210) 
-1.66771

>  <r_i_glide_lipo>  (210) 
-0.424197

>  <r_i_glide_hbond>  (210) 
0

>  <r_i_glide_metal>  (210) 
-0

>  <r_i_glide_rewards>  (210) 
0

>  <r_i_glide_evdw>  (210) 
-26.3272

>  <r_i_glide_ecoul>  (210) 
-1.81398

>  <r_i_glide_erotb>  (210) 
0.375891

>  <r_i_glide_esite>  (210) 
-0.0309463

>  <r_i_glide_emodel>  (210) 
-29.6065

>  <r_i_glide_energy>  (210) 
-28.1412

>  <r_i_glide_einternal>  (210) 
2.66371

>  <r_i_glide_intrahb_reward>  (210) 
-0

>  <i_i_glide_confnum>  (210) 
4

>  <i_i_glide_posenum>  (210) 
7

>  <r_i_glide_eff_state_penalty>  (210) 
0

>  <ligand_id>  (210) 
60

>  <original_smiles>  (210) 
O=S(=O)(c1ccc(Cl)cc1)C12CC3CCCN(CCC4CCC4)C3C1COc1c(F)ccc(F)c12

>  <smiles>  (210) 
[H]c1c([H])c(F)c2c(c1F)OC([H])([H])C1([H])C3([H])C([H])(C([H])([H])C([H])([H])C([H])([H])[N+]3([H])C([H])([H])C([H])([H])C3([H])C([H])([H])C([H])([H])C3([H])[H])C([H])([H])C21S(=O)(=O)c1c([H])c([H])c(Cl)c([H])c1[H]

$$$$
60:1:0
     RDKit          3D

 65 70  0  0  1  0  0  0  0  0999 V2000
    2.2562   -7.7546    7.0290 O   0  0  0  0  0  0  0  0  0  0  0  0
    2.8244   -6.6730    6.2123 S   0  0  0  0  0  0  0  0  0  0  0  0
    3.7311   -5.7148    6.8603 O   0  0  0  0  0  0  0  0  0  0  0  0
    3.7154   -7.4281    4.8413 C   0  0  0  0  0  0  0  0  0  0  0  0
    3.3036   -8.6817    4.3329 C   0  0  0  0  0  0  0  0  0  0  0  0
    3.9704   -9.2464    3.2211 C   0  0  0  0  0  0  0  0  0  0  0  0
    5.0532   -8.5644    2.6306 C   0  0  0  0  0  0  0  0  0  0  0  0
    5.8845   -9.2598    1.2891 Cl  0  0  0  0  0  0  0  0  0  0  0  0
    5.4668   -7.3172    3.1424 C   0  0  0  0  0  0  0  0  0  0  0  0
    4.7975   -6.7472    4.2487 C   0  0  0  0  0  0  0  0  0  0  0  0
    1.4430   -5.6753    5.4252 C   0  0  1  0  0  0  0  0  0  0  0  0
    0.4660   -5.1563    6.5191 C   0  0  0  0  0  0  0  0  0  0  0  0
    0.4549   -3.6234    6.4223 C   0  0  1  0  0  0  0  0  0  0  0  0
    0.1915   -2.8278    7.7032 C   0  0  0  0  0  0  0  0  0  0  0  0
    0.2611   -1.3386    7.3387 C   0  0  0  0  0  0  0  0  0  0  0  0
    1.5738   -0.9862    6.6089 C   0  0  0  0  0  0  0  0  0  0  0  0
    1.8619   -1.8586    5.4520 N   0  0  0  0  0  0  0  0  0  0  0  0
    3.1908   -1.5009    4.9485 C   0  0  0  0  0  0  0  0  0  0  0  0
    3.2065   -0.2078    4.1125 C   0  0  0  0  0  0  0  0  0  0  0  0
    2.5527   -0.3527    2.7355 C   0  0  0  0  0  0  0  0  0  0  0  0
    3.2064   -1.2837    1.6972 C   0  0  0  0  0  0  0  0  0  0  0  0
    3.9080   -0.0551    1.1238 C   0  0  0  0  0  0  0  0  0  0  0  0
    2.7637    0.7750    1.7124 C   0  0  0  0  0  0  0  0  0  0  0  0
    1.8318   -3.2710    5.8746 C   0  0  2  0  0  0  0  0  0  0  0  0
    2.0482   -4.3741    4.8076 C   0  0  2  0  0  0  0  0  0  0  0  0
    1.4163   -4.0623    3.4414 C   0  0  0  0  0  0  0  0  0  0  0  0
    1.5511   -5.1702    2.5724 O   0  0  0  0  0  0  0  0  0  0  0  0
    0.8916   -6.2924    3.0093 C   0  0  0  0  0  0  0  0  0  0  0  0
    0.3582   -7.1578    2.0331 C   0  0  0  0  0  0  0  0  0  0  0  0
    0.4999   -6.8602    0.7176 F   0  0  0  0  0  0  0  0  0  0  0  0
   -0.3599   -8.3000    2.4299 C   0  0  0  0  0  0  0  0  0  0  0  0
   -0.5437   -8.5741    3.7926 C   0  0  0  0  0  0  0  0  0  0  0  0
   -0.0008   -7.7176    4.7688 C   0  0  0  0  0  0  0  0  0  0  0  0
   -0.1889   -8.0205    6.0723 F   0  0  0  0  0  0  0  0  0  0  0  0
    0.7399   -6.5705    4.3877 C   0  0  0  0  0  0  0  0  0  0  0  0
    2.4811   -9.2121    4.7875 H   0  0  0  0  0  0  0  0  0  0  0  0
    3.6573  -10.2060    2.8244 H   0  0  0  0  0  0  0  0  0  0  0  0
    6.3028   -6.8005    2.6899 H   0  0  0  0  0  0  0  0  0  0  0  0
    5.1221   -5.7967    4.6421 H   0  0  0  0  0  0  0  0  0  0  0  0
   -0.5463   -5.5453    6.4017 H   0  0  0  0  0  0  0  0  0  0  0  0
    0.8141   -5.4617    7.5067 H   0  0  0  0  0  0  0  0  0  0  0  0
   -0.3071   -3.3501    5.6877 H   0  0  0  0  0  0  0  0  0  0  0  0
   -0.7766   -3.0806    8.1325 H   0  0  0  0  0  0  0  0  0  0  0  0
    0.9552   -3.0595    8.4458 H   0  0  0  0  0  0  0  0  0  0  0  0
   -0.5807   -1.0744    6.6998 H   0  0  0  0  0  0  0  0  0  0  0  0
    0.1793   -0.7294    8.2407 H   0  0  0  0  0  0  0  0  0  0  0  0
    1.5118    0.0519    6.2830 H   0  0  0  0  0  0  0  0  0  0  0  0
    2.3972   -1.0336    7.3209 H   0  0  0  0  0  0  0  0  0  0  0  0
    3.8855   -1.4015    5.7786 H   0  0  0  0  0  0  0  0  0  0  0  0
    3.5976   -2.3037    4.3420 H   0  0  0  0  0  0  0  0  0  0  0  0
    2.7879    0.6419    4.6522 H   0  0  0  0  0  0  0  0  0  0  0  0
    4.2556    0.0463    3.9688 H   0  0  0  0  0  0  0  0  0  0  0  0
    1.4874   -0.5773    2.8226 H   0  0  0  0  0  0  0  0  0  0  0  0
    3.8819   -2.0361    2.1080 H   0  0  0  0  0  0  0  0  0  0  0  0
    2.4825   -1.7267    1.0065 H   0  0  0  0  0  0  0  0  0  0  0  0
    4.8626    0.1410    1.6091 H   0  0  0  0  0  0  0  0  0  0  0  0
    3.9893   -0.0440    0.0405 H   0  0  0  0  0  0  0  0  0  0  0  0
    1.9191    0.8906    1.0277 H   0  0  0  0  0  0  0  0  0  0  0  0
    3.0596    1.7273    2.1553 H   0  0  0  0  0  0  0  0  0  0  0  0
    2.5754   -3.4080    6.6641 H   0  0  0  0  0  0  0  0  0  0  0  0
    3.1167   -4.4956    4.6322 H   0  0  0  0  0  0  0  0  0  0  0  0
    0.3591   -3.8025    3.5327 H   0  0  0  0  0  0  0  0  0  0  0  0
    1.9037   -3.2131    2.9708 H   0  0  0  0  0  0  0  0  0  0  0  0
   -0.7787   -8.9658    1.6881 H   0  0  0  0  0  0  0  0  0  0  0  0
   -1.0936   -9.4537    4.0969 H   0  0  0  0  0  0  0  0  0  0  0  0
  1  2  2  0
  2  3  2  0
  2  4  1  0
 11  2  1  1
  4 10  1  0
  4  5  2  0
  5  6  1  0
  5 36  1  0
  6  7  2  0
  6 37  1  0
  7  8  1  0
  7  9  1  0
  9 10  2  0
  9 38  1  0
 10 39  1  0
 11 25  1  0
 11 35  1  0
 11 12  1  0
 12 13  1  0
 12 40  1  0
 12 41  1  0
 13 24  1  0
 13 14  1  0
 13 42  1  6
 14 15  1  0
 14 43  1  0
 14 44  1  0
 15 16  1  0
 15 45  1  0
 15 46  1  0
 16 17  1  0
 16 47  1  0
 16 48  1  0
 17 18  1  0
 17 24  1  0
 18 19  1  0
 18 49  1  0
 18 50  1  0
 19 20  1  0
 19 51  1  0
 19 52  1  0
 20 23  1  0
 20 21  1  0
 20 53  1  0
 21 22  1  0
 21 54  1  0
 21 55  1  0
 22 23  1  0
 22 56  1  0
 22 57  1  0
 23 58  1  0
 23 59  1  0
 24 25  1  0
 24 60  1  1
 25 26  1  0
 25 61  1  6
 26 27  1  0
 26 62  1  0
 26 63  1  0
 27 28  1  0
 28 35  2  0
 28 29  1  0
 29 30  1  0
 29 31  2  0
 31 32  1  0
 31 64  1  0
 32 33  2  0
 32 65  1  0
 33 34  1  0
 33 35  1  0
M  END
>  <i_m_ct_stereo_status>  (211) 
1

>  <s_m_source_file>  (211) 
/var/tmp/pbs.5076255.sched01/tmpm261n1hm/82shs6bvht.sdf

>  <i_m_source_file_index>  (211) 
9

>  <i_lp_mmshare_version>  (211) 
48012

>  <i_f3d_flags>  (211) 
0

>  <s_epik_input>  (211) 
RmMxW2NIXVtjSF1jKEYpYzJjMU9bQ0gyXVtDQEhdKFtDQF0yM1MoPU8pKD1PKWM0W2NIXVtjSF1jKENsKVtjSF1bY0hdNClbQ0BASF01W0NAQEhdKFtDSDJdMylbQ0gyXVtDSDJdW0NIMl1ONVtDSDJdW0NIMl1bQ0hdNltDSDJdW0NIMl1bQ0gyXTY=

>  <s_epik_cmdline>  (211) 
J2VwaWtfcHl0aG9uJywgJy1waHQnLCAnMi4wJywgJy1waCcsICc3LjAnLCAnLXRuJywgJzgnLCAnLW1hJywgJzIwMCcsICctaW1hZScsICc8aW5maWxlLm1hZT4nLCAnLW9tYWUnLCAnPG91dGZpbGUubWFlPic=

>  <r_lp_tautomer_probability>  (211) 
1

>  <r_epik_Ionization_Penalty>  (211) 
2.14209

>  <r_epik_Ionization_Penalty_Charging>  (211) 
0

>  <r_epik_Ionization_Penalty_Neutral>  (211) 
2.14209

>  <r_epik_State_Penalty>  (211) 
2.28128

>  <r_epik_Charging_Adjusted_Penalty>  (211) 
2.28128

>  <i_epik_Tot_Q>  (211) 
0

>  <i_epik_Tot_abs_Q>  (211) 
0

>  <s_lp_Force_Field>  (211) 
OPLS3e

>  <r_lp_Energy>  (211) 
43.9863

>  <b_lp_Chiralities_Consistent>  (211) 
1

>  <s_lp_Variant>  (211) 
60:0-2

>  <s_i_glide_gridfile>  (211) 
pfpi4k_grid

>  <i_i_glide_lignum>  (211) 
9

>  <i_i_glide_rotatable_bonds>  (211) 
5

>  <r_i_docking_score>  (211) 
-1.48046

>  <r_i_glide_ligand_efficiency>  (211) 
-0.042299

>  <r_i_glide_ligand_efficiency_sa>  (211) 
-0.138363

>  <r_i_glide_ligand_efficiency_ln>  (211) 
-0.324995

>  <r_i_glide_gscore>  (211) 
-1.48046

>  <r_i_glide_lipo>  (211) 
-0.1369

>  <r_i_glide_hbond>  (211) 
0

>  <r_i_glide_metal>  (211) 
-0

>  <r_i_glide_rewards>  (211) 
0

>  <r_i_glide_evdw>  (211) 
-24.7538

>  <r_i_glide_ecoul>  (211) 
-2.33189

>  <r_i_glide_erotb>  (211) 
0.377227

>  <r_i_glide_esite>  (211) 
-0.13332

>  <r_i_glide_emodel>  (211) 
-27.5625

>  <r_i_glide_energy>  (211) 
-27.0856

>  <r_i_glide_einternal>  (211) 
3.88095

>  <r_i_glide_intrahb_reward>  (211) 
-0

>  <i_i_glide_confnum>  (211) 
5

>  <i_i_glide_posenum>  (211) 
15

>  <r_i_glide_eff_state_penalty>  (211) 
0

>  <ligand_id>  (211) 
60

>  <original_smiles>  (211) 
O=S(=O)(c1ccc(Cl)cc1)C12CC3CCCN(CCC4CCC4)C3C1COc1c(F)ccc(F)c12

>  <smiles>  (211) 
[H]c1c([H])c(F)c2c(c1F)OC([H])([H])C1([H])C3([H])N(C([H])([H])C([H])([H])C4([H])C([H])([H])C([H])([H])C4([H])[H])C([H])([H])C([H])([H])C([H])([H])C3([H])C([H])([H])C21S(=O)(=O)c1c([H])c([H])c(Cl)c([H])c1[H]

$$$$
60:1:1
     RDKit          3D

 65 70  0  0  1  0  0  0  0  0999 V2000
    5.2459   -0.1845    3.3325 O   0  0  0  0  0  0  0  0  0  0  0  0
    4.4281   -1.0833    4.1462 S   0  0  0  0  0  0  0  0  0  0  0  0
    5.0363   -2.3089    4.6706 O   0  0  0  0  0  0  0  0  0  0  0  0
    3.7875   -0.1480    5.5632 C   0  0  0  0  0  0  0  0  0  0  0  0
    3.6091    1.2496    5.4591 C   0  0  0  0  0  0  0  0  0  0  0  0
    3.0594    1.9638    6.5394 C   0  0  0  0  0  0  0  0  0  0  0  0
    2.6985    1.2891    7.7212 C   0  0  0  0  0  0  0  0  0  0  0  0
    2.0131    2.1690    9.0434 Cl  0  0  0  0  0  0  0  0  0  0  0  0
    2.8917   -0.1024    7.8271 C   0  0  0  0  0  0  0  0  0  0  0  0
    3.4341   -0.8253    6.7475 C   0  0  0  0  0  0  0  0  0  0  0  0
    2.8963   -1.6161    3.1624 C   0  0  1  0  0  0  0  0  0  0  0  0
    3.3284   -2.1060    1.7530 C   0  0  0  0  0  0  0  0  0  0  0  0
    2.8543   -3.5534    1.6279 C   0  0  1  0  0  0  0  0  0  0  0  0
    3.6645   -4.4871    0.7229 C   0  0  0  0  0  0  0  0  0  0  0  0
    3.0153   -5.8710    0.7955 C   0  0  0  0  0  0  0  0  0  0  0  0
    2.8921   -6.3643    2.2565 C   0  0  0  0  0  0  0  0  0  0  0  0
    2.1610   -5.3974    3.1133 N   0  0  0  0  0  0  0  0  0  0  0  0
    2.1326   -5.8930    4.4967 C   0  0  0  0  0  0  0  0  0  0  0  0
    1.3788   -7.2293    4.6970 C   0  0  0  0  0  0  0  0  0  0  0  0
   -0.0983   -7.2119    4.2638 C   0  0  0  0  0  0  0  0  0  0  0  0
   -0.9140   -8.4770    4.5706 C   0  0  0  0  0  0  0  0  0  0  0  0
   -0.6347   -8.9229    3.1348 C   0  0  0  0  0  0  0  0  0  0  0  0
   -0.4757   -7.4380    2.7740 C   0  0  0  0  0  0  0  0  0  0  0  0
    2.8422   -4.0876    3.0597 C   0  0  2  0  0  0  0  0  0  0  0  0
    2.2782   -2.8818    3.8549 C   0  0  2  0  0  0  0  0  0  0  0  0
    0.7433   -2.7946    3.8872 C   0  0  0  0  0  0  0  0  0  0  0  0
    0.3315   -1.5951    4.5140 O   0  0  0  0  0  0  0  0  0  0  0  0
    0.7195   -0.4590    3.8303 C   0  0  0  0  0  0  0  0  0  0  0  0
   -0.1301    0.6656    3.8943 C   0  0  0  0  0  0  0  0  0  0  0  0
   -1.2798    0.6133    4.6117 F   0  0  0  0  0  0  0  0  0  0  0  0
    0.2236    1.8369    3.2097 C   0  0  0  0  0  0  0  0  0  0  0  0
    1.4061    1.8902    2.4578 C   0  0  0  0  0  0  0  0  0  0  0  0
    2.2429    0.7631    2.3954 C   0  0  0  0  0  0  0  0  0  0  0  0
    3.3874    0.8338    1.6621 F   0  0  0  0  0  0  0  0  0  0  0  0
    1.9280   -0.4118    3.1037 C   0  0  0  0  0  0  0  0  0  0  0  0
    3.8828    1.7625    4.5507 H   0  0  0  0  0  0  0  0  0  0  0  0
    2.9094    3.0329    6.4598 H   0  0  0  0  0  0  0  0  0  0  0  0
    2.6236   -0.6144    8.7410 H   0  0  0  0  0  0  0  0  0  0  0  0
    3.5830   -1.8916    6.8249 H   0  0  0  0  0  0  0  0  0  0  0  0
    2.9073   -1.5005    0.9603 H   0  0  0  0  0  0  0  0  0  0  0  0
    4.4111   -2.0627    1.6582 H   0  0  0  0  0  0  0  0  0  0  0  0
    1.8307   -3.5188    1.2544 H   0  0  0  0  0  0  0  0  0  0  0  0
    3.6919   -4.1345   -0.3107 H   0  0  0  0  0  0  0  0  0  0  0  0
    4.6880   -4.5638    1.0892 H   0  0  0  0  0  0  0  0  0  0  0  0
    2.0352   -5.8362    0.3220 H   0  0  0  0  0  0  0  0  0  0  0  0
    3.6020   -6.5912    0.2286 H   0  0  0  0  0  0  0  0  0  0  0  0
    2.3714   -7.3307    2.2132 H   0  0  0  0  0  0  0  0  0  0  0  0
    3.8941   -6.5261    2.6817 H   0  0  0  0  0  0  0  0  0  0  0  0
    3.1647   -6.0106    4.8276 H   0  0  0  0  0  0  0  0  0  0  0  0
    1.6933   -5.1538    5.1632 H   0  0  0  0  0  0  0  0  0  0  0  0
    1.9304   -8.0277    4.1952 H   0  0  0  0  0  0  0  0  0  0  0  0
    1.4619   -7.4916    5.7583 H   0  0  0  0  0  0  0  0  0  0  0  0
   -0.6003   -6.3354    4.6721 H   0  0  0  0  0  0  0  0  0  0  0  0
   -0.4965   -9.1224    5.3476 H   0  0  0  0  0  0  0  0  0  0  0  0
   -1.9689   -8.2731    4.7399 H   0  0  0  0  0  0  0  0  0  0  0  0
    0.3020   -9.4792    3.0597 H   0  0  0  0  0  0  0  0  0  0  0  0
   -1.4517   -9.4419    2.6307 H   0  0  0  0  0  0  0  0  0  0  0  0
   -1.4526   -6.9809    2.5285 H   0  0  0  0  0  0  0  0  0  0  0  0
    0.3203   -7.2490    2.0316 H   0  0  0  0  0  0  0  0  0  0  0  0
    3.8734   -4.2450    3.3797 H   0  0  0  0  0  0  0  0  0  0  0  0
    2.6044   -2.9592    4.8977 H   0  0  0  0  0  0  0  0  0  0  0  0
    0.3234   -2.8127    2.8853 H   0  0  0  0  0  0  0  0  0  0  0  0
    0.3049   -3.6345    4.4316 H   0  0  0  0  0  0  0  0  0  0  0  0
   -0.4307    2.7036    3.2314 H   0  0  0  0  0  0  0  0  0  0  0  0
    1.6722    2.7963    1.9263 H   0  0  0  0  0  0  0  0  0  0  0  0
  1  2  2  0
  2  3  2  0
  2  4  1  0
 11  2  1  1
  4 10  1  0
  4  5  2  0
  5  6  1  0
  5 36  1  0
  6  7  2  0
  6 37  1  0
  7  8  1  0
  7  9  1  0
  9 10  2  0
  9 38  1  0
 10 39  1  0
 11 25  1  0
 11 35  1  0
 11 12  1  0
 12 13  1  0
 12 40  1  0
 12 41  1  0
 13 24  1  0
 13 14  1  0
 13 42  1  6
 14 15  1  0
 14 43  1  0
 14 44  1  0
 15 16  1  0
 15 45  1  0
 15 46  1  0
 16 17  1  0
 16 47  1  0
 16 48  1  0
 17 18  1  0
 17 24  1  0
 18 19  1  0
 18 49  1  0
 18 50  1  0
 19 20  1  0
 19 51  1  0
 19 52  1  0
 20 23  1  0
 20 21  1  0
 20 53  1  0
 21 22  1  0
 21 54  1  0
 21 55  1  0
 22 23  1  0
 22 56  1  0
 22 57  1  0
 23 58  1  0
 23 59  1  0
 24 25  1  0
 24 60  1  1
 25 26  1  0
 25 61  1  1
 26 27  1  0
 26 62  1  0
 26 63  1  0
 27 28  1  0
 28 35  2  0
 28 29  1  0
 29 30  1  0
 29 31  2  0
 31 32  1  0
 31 64  1  0
 32 33  2  0
 32 65  1  0
 33 34  1  0
 33 35  1  0
M  END
>  <i_m_ct_stereo_status>  (212) 
1

>  <s_m_source_file>  (212) 
/var/tmp/pbs.5076255.sched01/tmpm261n1hm/82shs6bvht.sdf

>  <i_m_source_file_index>  (212) 
9

>  <i_lp_mmshare_version>  (212) 
48012

>  <i_f3d_flags>  (212) 
0

>  <s_epik_input>  (212) 
RmMxW2NIXVtjSF1jKEYpYzJjMU9bQ0gyXVtDQEhdKFtDQF0yM1MoPU8pKD1PKWM0W2NIXVtjSF1jKENsKVtjSF1bY0hdNClbQ0BASF01W0NAQEhdKFtDSDJdMylbQ0gyXVtDSDJdW0NIMl1ONVtDSDJdW0NIMl1bQ0hdNltDSDJdW0NIMl1bQ0gyXTY=

>  <s_epik_cmdline>  (212) 
J2VwaWtfcHl0aG9uJywgJy1waHQnLCAnMi4wJywgJy1waCcsICc3LjAnLCAnLXRuJywgJzgnLCAnLW1hJywgJzIwMCcsICctaW1hZScsICc8aW5maWxlLm1hZT4nLCAnLW9tYWUnLCAnPG91dGZpbGUubWFlPic=

>  <r_lp_tautomer_probability>  (212) 
1

>  <r_epik_Ionization_Penalty>  (212) 
2.14209

>  <r_epik_Ionization_Penalty_Charging>  (212) 
0

>  <r_epik_Ionization_Penalty_Neutral>  (212) 
2.14209

>  <r_epik_State_Penalty>  (212) 
2.28128

>  <r_epik_Charging_Adjusted_Penalty>  (212) 
2.28128

>  <i_epik_Tot_Q>  (212) 
0

>  <i_epik_Tot_abs_Q>  (212) 
0

>  <s_lp_Force_Field>  (212) 
OPLS3e

>  <r_lp_Energy>  (212) 
43.9863

>  <b_lp_Chiralities_Consistent>  (212) 
1

>  <s_lp_Variant>  (212) 
60:0-2

>  <s_i_glide_gridfile>  (212) 
pfpi4k_grid

>  <i_i_glide_lignum>  (212) 
9

>  <i_i_glide_rotatable_bonds>  (212) 
5

>  <r_i_docking_score>  (212) 
-1.44346

>  <r_i_glide_ligand_efficiency>  (212) 
-0.0412419

>  <r_i_glide_ligand_efficiency_sa>  (212) 
-0.134905

>  <r_i_glide_ligand_efficiency_ln>  (212) 
-0.316873

>  <r_i_glide_gscore>  (212) 
-1.44346

>  <r_i_glide_lipo>  (212) 
-0.0367195

>  <r_i_glide_hbond>  (212) 
0

>  <r_i_glide_metal>  (212) 
-0

>  <r_i_glide_rewards>  (212) 
-0.159127

>  <r_i_glide_evdw>  (212) 
-25.4932

>  <r_i_glide_ecoul>  (212) 
-2.13377

>  <r_i_glide_erotb>  (212) 
0.377227

>  <r_i_glide_esite>  (212) 
-0.0301176

>  <r_i_glide_emodel>  (212) 
-27.6453

>  <r_i_glide_energy>  (212) 
-27.627

>  <r_i_glide_einternal>  (212) 
4.46333

>  <r_i_glide_intrahb_reward>  (212) 
-0

>  <i_i_glide_confnum>  (212) 
5

>  <i_i_glide_posenum>  (212) 
27

>  <r_i_glide_eff_state_penalty>  (212) 
0

>  <ligand_id>  (212) 
60

>  <original_smiles>  (212) 
O=S(=O)(c1ccc(Cl)cc1)C12CC3CCCN(CCC4CCC4)C3C1COc1c(F)ccc(F)c12

>  <smiles>  (212) 
[H]c1c([H])c(F)c2c(c1F)OC([H])([H])C1([H])C3([H])N(C([H])([H])C([H])([H])C4([H])C([H])([H])C([H])([H])C4([H])[H])C([H])([H])C([H])([H])C([H])([H])C3([H])C([H])([H])C21S(=O)(=O)c1c([H])c([H])c(Cl)c([H])c1[H]

$$$$
60:1:2
     RDKit          3D

 65 70  0  0  1  0  0  0  0  0999 V2000
    6.1666   -4.6926    2.8632 O   0  0  0  0  0  0  0  0  0  0  0  0
    5.5996   -5.4917    1.7871 S   0  0  0  0  0  0  0  0  0  0  0  0
    6.3222   -5.5986    0.5270 O   0  0  0  0  0  0  0  0  0  0  0  0
    5.4431   -7.1706    2.4034 C   0  0  0  0  0  0  0  0  0  0  0  0
    5.6174   -7.4484    3.7753 C   0  0  0  0  0  0  0  0  0  0  0  0
    5.4460   -8.7670    4.2480 C   0  0  0  0  0  0  0  0  0  0  0  0
    5.0659   -9.7944    3.3605 C   0  0  0  0  0  0  0  0  0  0  0  0
    4.8214  -11.4060    3.9333 Cl  0  0  0  0  0  0  0  0  0  0  0  0
    4.9092   -9.5081    1.9926 C   0  0  0  0  0  0  0  0  0  0  0  0
    5.1580   -8.2184    1.5043 C   0  0  0  0  0  0  0  0  0  0  0  0
    3.8571   -4.8204    1.4899 C   0  0  1  0  0  0  0  0  0  0  0  0
    2.9833   -5.7578    0.6197 C   0  0  0  0  0  0  0  0  0  0  0  0
    1.7897   -6.1776    1.4791 C   0  0  1  0  0  0  0  0  0  0  0  0
    1.2042   -7.5736    1.2842 C   0  0  0  0  0  0  0  0  0  0  0  0
    0.0137   -7.7078    2.2271 C   0  0  0  0  0  0  0  0  0  0  0  0
    0.3986   -7.3697    3.6740 C   0  0  0  0  0  0  0  0  0  0  0  0
    1.0599   -6.0505    3.8258 N   0  0  0  0  0  0  0  0  0  0  0  0
    1.4993   -5.9160    5.2198 C   0  0  0  0  0  0  0  0  0  0  0  0
    0.3533   -5.8720    6.2485 C   0  0  0  0  0  0  0  0  0  0  0  0
   -0.2959   -4.4956    6.3883 C   0  0  0  0  0  0  0  0  0  0  0  0
    0.4292   -3.4443    7.2472 C   0  0  0  0  0  0  0  0  0  0  0  0
   -0.4498   -3.8868    8.4210 C   0  0  0  0  0  0  0  0  0  0  0  0
   -1.4647   -4.3658    7.3806 C   0  0  0  0  0  0  0  0  0  0  0  0
    2.2318   -6.0127    2.9296 C   0  0  2  0  0  0  0  0  0  0  0  0
    3.0996   -4.7286    2.8575 C   0  0  2  0  0  0  0  0  0  0  0  0
    2.2828   -3.4206    2.9618 C   0  0  0  0  0  0  0  0  0  0  0  0
    3.1221   -2.3017    2.7641 O   0  0  0  0  0  0  0  0  0  0  0  0
    3.6932   -2.2598    1.4995 C   0  0  0  0  0  0  0  0  0  0  0  0
    3.9278   -0.9929    0.9333 C   0  0  0  0  0  0  0  0  0  0  0  0
    3.6137    0.1388    1.6110 F   0  0  0  0  0  0  0  0  0  0  0  0
    4.4712   -0.9011   -0.3630 C   0  0  0  0  0  0  0  0  0  0  0  0
    4.7784   -2.0626   -1.0823 C   0  0  0  0  0  0  0  0  0  0  0  0
    4.5538   -3.3197   -0.5079 C   0  0  0  0  0  0  0  0  0  0  0  0
    4.8502   -4.4214   -1.2500 F   0  0  0  0  0  0  0  0  0  0  0  0
    4.0243   -3.4455    0.8062 C   0  0  0  0  0  0  0  0  0  0  0  0
    5.9080   -6.6583    4.4601 H   0  0  0  0  0  0  0  0  0  0  0  0
    5.6068   -8.9948    5.3011 H   0  0  0  0  0  0  0  0  0  0  0  0
    4.6026  -10.2741    1.2862 H   0  0  0  0  0  0  0  0  0  0  0  0
    5.0992   -8.0595    0.4370 H   0  0  0  0  0  0  0  0  0  0  0  0
    2.6465   -5.2950   -0.3121 H   0  0  0  0  0  0  0  0  0  0  0  0
    3.5106   -6.6472    0.3028 H   0  0  0  0  0  0  0  0  0  0  0  0
    1.0054   -5.4545    1.2746 H   0  0  0  0  0  0  0  0  0  0  0  0
    0.8643   -7.7197    0.2643 H   0  0  0  0  0  0  0  0  0  0  0  0
    1.9424   -8.3413    1.5188 H   0  0  0  0  0  0  0  0  0  0  0  0
   -0.7898   -7.0477    1.9006 H   0  0  0  0  0  0  0  0  0  0  0  0
   -0.3884   -8.7232    2.1870 H   0  0  0  0  0  0  0  0  0  0  0  0
   -0.5413   -7.4000    4.2121 H   0  0  0  0  0  0  0  0  0  0  0  0
    1.0298   -8.1594    4.0838 H   0  0  0  0  0  0  0  0  0  0  0  0
    2.1540   -6.7473    5.4668 H   0  0  0  0  0  0  0  0  0  0  0  0
    2.1155   -5.0262    5.3464 H   0  0  0  0  0  0  0  0  0  0  0  0
   -0.4183   -6.6229    6.0977 H   0  0  0  0  0  0  0  0  0  0  0  0
    0.7880   -6.1473    7.2033 H   0  0  0  0  0  0  0  0  0  0  0  0
   -0.5822   -4.0713    5.4261 H   0  0  0  0  0  0  0  0  0  0  0  0
    1.4952   -3.6336    7.3742 H   0  0  0  0  0  0  0  0  0  0  0  0
    0.2386   -2.4133    6.9238 H   0  0  0  0  0  0  0  0  0  0  0  0
   -0.0106   -4.7163    8.9773 H   0  0  0  0  0  0  0  0  0  0  0  0
   -0.7846   -3.0921    9.0816 H   0  0  0  0  0  0  0  0  0  0  0  0
   -2.1951   -3.6031    7.0881 H   0  0  0  0  0  0  0  0  0  0  0  0
   -1.9495   -5.3118    7.6151 H   0  0  0  0  0  0  0  0  0  0  0  0
    2.8906   -6.8448    3.1971 H   0  0  0  0  0  0  0  0  0  0  0  0
    3.7982   -4.7159    3.6976 H   0  0  0  0  0  0  0  0  0  0  0  0
    1.4713   -3.3821    2.2300 H   0  0  0  0  0  0  0  0  0  0  0  0
    1.8191   -3.3148    3.9445 H   0  0  0  0  0  0  0  0  0  0  0  0
    4.6252    0.0767   -0.8027 H   0  0  0  0  0  0  0  0  0  0  0  0
    5.1832   -1.9879   -2.0898 H   0  0  0  0  0  0  0  0  0  0  0  0
  1  2  2  0
  2  3  2  0
  2  4  1  0
 11  2  1  1
  4 10  1  0
  4  5  2  0
  5  6  1  0
  5 36  1  0
  6  7  2  0
  6 37  1  0
  7  8  1  0
  7  9  1  0
  9 10  2  0
  9 38  1  0
 10 39  1  0
 11 25  1  0
 11 35  1  0
 11 12  1  0
 12 13  1  0
 12 40  1  0
 12 41  1  0
 13 24  1  0
 13 14  1  0
 13 42  1  6
 14 15  1  0
 14 43  1  0
 14 44  1  0
 15 16  1  0
 15 45  1  0
 15 46  1  0
 16 17  1  0
 16 47  1  0
 16 48  1  0
 17 18  1  0
 17 24  1  0
 18 19  1  0
 18 49  1  0
 18 50  1  0
 19 20  1  0
 19 51  1  0
 19 52  1  0
 20 23  1  0
 20 21  1  0
 20 53  1  0
 21 22  1  0
 21 54  1  0
 21 55  1  0
 22 23  1  0
 22 56  1  0
 22 57  1  0
 23 58  1  0
 23 59  1  0
 24 25  1  0
 24 60  1  1
 25 26  1  0
 25 61  1  1
 26 27  1  0
 26 62  1  0
 26 63  1  0
 27 28  1  0
 28 35  2  0
 28 29  1  0
 29 30  1  0
 29 31  2  0
 31 32  1  0
 31 64  1  0
 32 33  2  0
 32 65  1  0
 33 34  1  0
 33 35  1  0
M  END
>  <i_m_ct_stereo_status>  (213) 
1

>  <s_m_source_file>  (213) 
/var/tmp/pbs.5076255.sched01/tmpm261n1hm/82shs6bvht.sdf

>  <i_m_source_file_index>  (213) 
9

>  <i_lp_mmshare_version>  (213) 
48012

>  <i_f3d_flags>  (213) 
0

>  <s_epik_input>  (213) 
RmMxW2NIXVtjSF1jKEYpYzJjMU9bQ0gyXVtDQEhdKFtDQF0yM1MoPU8pKD1PKWM0W2NIXVtjSF1jKENsKVtjSF1bY0hdNClbQ0BASF01W0NAQEhdKFtDSDJdMylbQ0gyXVtDSDJdW0NIMl1ONVtDSDJdW0NIMl1bQ0hdNltDSDJdW0NIMl1bQ0gyXTY=

>  <s_epik_cmdline>  (213) 
J2VwaWtfcHl0aG9uJywgJy1waHQnLCAnMi4wJywgJy1waCcsICc3LjAnLCAnLXRuJywgJzgnLCAnLW1hJywgJzIwMCcsICctaW1hZScsICc8aW5maWxlLm1hZT4nLCAnLW9tYWUnLCAnPG91dGZpbGUubWFlPic=

>  <r_lp_tautomer_probability>  (213) 
1

>  <r_epik_Ionization_Penalty>  (213) 
2.14209

>  <r_epik_Ionization_Penalty_Charging>  (213) 
0

>  <r_epik_Ionization_Penalty_Neutral>  (213) 
2.14209

>  <r_epik_State_Penalty>  (213) 
2.28128

>  <r_epik_Charging_Adjusted_Penalty>  (213) 
2.28128

>  <i_epik_Tot_Q>  (213) 
0

>  <i_epik_Tot_abs_Q>  (213) 
0

>  <s_lp_Force_Field>  (213) 
OPLS3e

>  <r_lp_Energy>  (213) 
43.9863

>  <b_lp_Chiralities_Consistent>  (213) 
1

>  <s_lp_Variant>  (213) 
60:0-2

>  <s_i_glide_gridfile>  (213) 
pfpi4k_grid

>  <i_i_glide_lignum>  (213) 
9

>  <i_i_glide_rotatable_bonds>  (213) 
5

>  <r_i_docking_score>  (213) 
-1.31671

>  <r_i_glide_ligand_efficiency>  (213) 
-0.0376204

>  <r_i_glide_ligand_efficiency_sa>  (213) 
-0.123059

>  <r_i_glide_ligand_efficiency_ln>  (213) 
-0.289048

>  <r_i_glide_gscore>  (213) 
-1.31671

>  <r_i_glide_lipo>  (213) 
-0.212106

>  <r_i_glide_hbond>  (213) 
0

>  <r_i_glide_metal>  (213) 
-0

>  <r_i_glide_rewards>  (213) 
-0.107288

>  <r_i_glide_evdw>  (213) 
-26.9646

>  <r_i_glide_ecoul>  (213) 
0.000138618

>  <r_i_glide_erotb>  (213) 
0.377227

>  <r_i_glide_esite>  (213) 
-0.026338

>  <r_i_glide_emodel>  (213) 
-26.8505

>  <r_i_glide_energy>  (213) 
-26.9645

>  <r_i_glide_einternal>  (213) 
3.47526

>  <r_i_glide_intrahb_reward>  (213) 
-0

>  <i_i_glide_confnum>  (213) 
5

>  <i_i_glide_posenum>  (213) 
3

>  <r_i_glide_eff_state_penalty>  (213) 
0

>  <ligand_id>  (213) 
60

>  <original_smiles>  (213) 
O=S(=O)(c1ccc(Cl)cc1)C12CC3CCCN(CCC4CCC4)C3C1COc1c(F)ccc(F)c12

>  <smiles>  (213) 
[H]c1c([H])c(F)c2c(c1F)OC([H])([H])C1([H])C3([H])N(C([H])([H])C([H])([H])C4([H])C([H])([H])C([H])([H])C4([H])[H])C([H])([H])C([H])([H])C([H])([H])C3([H])C([H])([H])C21S(=O)(=O)c1c([H])c([H])c(Cl)c([H])c1[H]

$$$$
61:0:0
     RDKit          3D

 76 84  0  0  1  0  0  0  0  0999 V2000
    8.3912   -4.5287    0.5897 C   0  0  0  0  0  0  0  0  0  0  0  0
    7.5009   -5.7362    0.8847 C   0  0  2  0  0  0  0  0  0  0  0  0
    6.0220   -5.3881    0.6342 C   0  0  0  0  0  0  0  0  0  0  0  0
    5.1915   -6.4756    1.0565 O   0  0  0  0  0  0  0  0  0  0  0  0
    5.2596   -6.8200    2.4066 C   0  0  1  0  0  0  0  0  0  0  0  0
    4.8654   -5.5254    3.2635 C   0  0  0  0  0  0  0  0  0  0  0  0
    4.3860   -7.8928    2.6706 O   0  0  0  0  0  0  0  0  0  0  0  0
    3.6090   -8.1680    3.8589 C   0  0  1  0  0  0  0  0  0  0  0  0
    4.3728   -8.0157    5.1991 C   0  0  0  0  0  0  0  0  0  0  0  0
    3.2393   -7.5989    6.1770 C   0  0  1  0  0  0  0  0  0  0  0  0
    2.4407   -6.5888    5.3430 C   0  0  0  0  0  0  0  0  0  0  0  0
    2.4077   -7.1593    3.9063 C   0  0  2  0  0  0  0  0  0  0  0  0
    1.1028   -7.8732    3.4737 C   0  0  2  0  0  0  0  0  0  0  0  0
    0.2877   -7.0073    2.4618 C   0  0  0  0  0  0  0  0  0  0  0  0
   -1.1350   -7.4875    2.5708 C   0  0  1  0  0  0  0  0  0  0  0  0
   -1.3798   -8.9008    2.5869 O   0  0  0  0  0  0  0  0  0  0  0  0
   -1.2756   -8.2089    3.8406 C   0  0  1  0  0  0  0  0  0  0  0  0
    0.0477   -8.1949    4.5639 C   0  0  1  0  0  0  0  0  0  0  0  0
    0.2633   -9.4682    5.3795 C   0  0  0  0  0  0  0  0  0  0  0  0
    1.6969   -9.7994    5.8788 C   0  0  2  0  0  0  0  0  0  0  0  0
    2.3945   -8.7497    6.8236 C   0  0  2  0  0  0  0  0  0  0  0  0
    1.3998   -8.0917    7.6093 O   0  0  0  0  0  0  0  0  0  0  0  0
    3.2772   -9.5271    7.8369 C   0  0  1  0  0  0  0  0  0  0  0  0
    2.5219  -10.2764    8.7811 O   0  0  0  0  0  0  0  0  0  0  0  0
    4.2810  -10.4799    7.1562 C   0  0  0  0  0  0  0  0  0  0  0  0
    3.9846  -10.9960    5.7032 C   0  0  1  0  0  0  0  0  0  0  0  0
    4.1836  -12.3973    5.7700 O   0  0  0  0  0  0  0  0  0  0  0  0
    2.6884  -10.4701    4.8898 C   0  0  1  0  0  0  0  0  0  0  0  0
    2.1374  -11.6990    4.1384 C   0  0  0  0  0  0  0  0  0  0  0  0
    3.0193  -11.8419    3.0318 O   0  0  0  0  0  0  0  0  0  0  0  0
    3.6653  -10.5951    2.7453 C   0  0  0  0  0  0  0  0  0  0  0  0
    2.9476   -9.5578    3.6258 C   0  0  2  0  0  0  0  0  0  0  0  0
    1.6684   -9.1309    2.8160 C   0  0  0  0  0  0  0  0  0  0  0  0
    6.6974   -7.3426    2.6697 C   0  0  1  0  0  0  0  0  0  0  0  0
    7.0379   -8.5211    1.9279 O   0  0  0  0  0  0  0  0  0  0  0  0
    7.7168   -6.2532    2.3231 C   0  0  0  0  0  0  0  0  0  0  0  0
    8.1513   -3.6832    1.2389 H   0  0  0  0  0  0  0  0  0  0  0  0
    8.2830   -4.2032   -0.4469 H   0  0  0  0  0  0  0  0  0  0  0  0
    9.4319   -4.7875    0.7609 H   0  0  0  0  0  0  0  0  0  0  0  0
    7.7755   -6.5445    0.2072 H   0  0  0  0  0  0  0  0  0  0  0  0
    5.7651   -4.4424    1.1165 H   0  0  0  0  0  0  0  0  0  0  0  0
    5.8435   -5.1541   -0.4158 H   0  0  0  0  0  0  0  0  0  0  0  0
    3.9381   -5.1069    2.8238 H   0  0  0  0  0  0  0  0  0  0  0  0
    5.6590   -4.7630    3.1481 H   0  0  0  0  0  0  0  0  0  0  0  0
    4.8553   -5.6941    4.3077 H   0  0  0  0  0  0  0  0  0  0  0  0
    4.9931   -8.8467    5.4511 H   0  0  0  0  0  0  0  0  0  0  0  0
    5.1144   -7.2532    5.2675 H   0  0  0  0  0  0  0  0  0  0  0  0
    3.6968   -7.0422    7.0030 H   0  0  0  0  0  0  0  0  0  0  0  0
    1.5116   -6.2255    5.7735 H   0  0  0  0  0  0  0  0  0  0  0  0
    3.0154   -5.6732    5.2934 H   0  0  0  0  0  0  0  0  0  0  0  0
    2.5182   -6.3814    3.1833 H   0  0  0  0  0  0  0  0  0  0  0  0
    0.3039   -5.9678    2.7621 H   0  0  0  0  0  0  0  0  0  0  0  0
    0.6424   -7.0617    1.4371 H   0  0  0  0  0  0  0  0  0  0  0  0
   -1.9342   -6.8604    2.1798 H   0  0  0  0  0  0  0  0  0  0  0  0
   -2.1849   -8.1487    4.4374 H   0  0  0  0  0  0  0  0  0  0  0  0
   -0.0626   -7.3784    5.2668 H   0  0  0  0  0  0  0  0  0  0  0  0
   -0.3955   -9.4045    6.2514 H   0  0  0  0  0  0  0  0  0  0  0  0
   -0.1419  -10.3063    4.8234 H   0  0  0  0  0  0  0  0  0  0  0  0
    1.4563  -10.6498    6.4978 H   0  0  0  0  0  0  0  0  0  0  0  0
    0.9442   -8.7649    8.0734 H   0  0  0  0  0  0  0  0  0  0  0  0
    3.8527   -8.8033    8.4200 H   0  0  0  0  0  0  0  0  0  0  0  0
    2.0845  -11.0069    8.3247 H   0  0  0  0  0  0  0  0  0  0  0  0
    5.2557   -9.9900    7.1430 H   0  0  0  0  0  0  0  0  0  0  0  0
    4.4857  -11.3170    7.8210 H   0  0  0  0  0  0  0  0  0  0  0  0
    4.8607  -10.7716    5.0982 H   0  0  0  0  0  0  0  0  0  0  0  0
    3.4494  -12.8014    6.2082 H   0  0  0  0  0  0  0  0  0  0  0  0
    2.0651  -12.6081    4.7294 H   0  0  0  0  0  0  0  0  0  0  0  0
    1.1364  -11.5822    3.7422 H   0  0  0  0  0  0  0  0  0  0  0  0
    4.7262  -10.6792    2.9764 H   0  0  0  0  0  0  0  0  0  0  0  0
    3.6131  -10.3662    1.6779 H   0  0  0  0  0  0  0  0  0  0  0  0
    0.9141   -9.8997    2.6076 H   0  0  0  0  0  0  0  0  0  0  0  0
    2.0132   -8.8316    1.8247 H   0  0  0  0  0  0  0  0  0  0  0  0
    6.7843   -7.6159    3.7230 H   0  0  0  0  0  0  0  0  0  0  0  0
    7.9603   -8.6995    2.0417 H   0  0  0  0  0  0  0  0  0  0  0  0
    8.7390   -6.6018    2.4616 H   0  0  0  0  0  0  0  0  0  0  0  0
    7.6271   -5.4418    3.0343 H   0  0  0  0  0  0  0  0  0  0  0  0
  1  2  1  0
  1 37  1  0
  1 38  1  0
  1 39  1  0
  2 36  1  0
  2  3  1  0
  2 40  1  6
  3  4  1  0
  3 41  1  0
  3 42  1  0
  4  5  1  0
  5  6  1  0
  5  7  1  6
  5 34  1  0
  6 43  1  0
  6 44  1  0
  6 45  1  0
  8  7  1  6
  8 12  1  0
  8 32  1  0
  8  9  1  0
  9 10  1  0
  9 46  1  0
  9 47  1  0
 10 21  1  0
 10 11  1  0
 10 48  1  1
 11 12  1  0
 11 49  1  0
 11 50  1  0
 12 13  1  0
 12 51  1  6
 13 18  1  0
 13 33  1  0
 13 14  1  6
 14 15  1  0
 14 52  1  0
 14 53  1  0
 15 17  1  0
 15 16  1  0
 15 54  1  6
 16 17  1  0
 17 18  1  0
 17 55  1  1
 18 19  1  0
 18 56  1  1
 19 20  1  0
 19 57  1  0
 19 58  1  0
 20 28  1  0
 20 21  1  0
 20 59  1  1
 21 22  1  1
 21 23  1  0
 22 60  1  0
 23 24  1  0
 23 25  1  0
 23 61  1  1
 24 62  1  0
 25 26  1  0
 25 63  1  0
 25 64  1  0
 26 27  1  0
 26 28  1  0
 26 65  1  6
 27 66  1  0
 28 32  1  0
 28 29  1  6
 29 30  1  0
 29 67  1  0
 29 68  1  0
 30 31  1  0
 32 31  1  6
 31 69  1  0
 31 70  1  0
 32 33  1  0
 33 71  1  0
 33 72  1  0
 34 35  1  0
 34 36  1  0
 34 73  1  1
 35 74  1  0
 36 75  1  0
 36 76  1  0
M  END
>  <i_m_ct_stereo_status>  (214) 
1

>  <s_m_source_file>  (214) 
/var/tmp/pbs.5076255.sched01/tmpm261n1hm/82shs6bvht.sdf

>  <i_m_source_file_index>  (214) 
10

>  <i_lp_mmshare_version>  (214) 
48012

>  <i_f3d_flags>  (214) 
2

>  <s_epik_input>  (214) 
W09IXVtDQEhdMVtDSDJdW0NASF0oW0NIM10pW0NIMl1PW0NAQF0xKFtDSDNdKU9bQ0BAXTIoW0NASF0zW0NAXTQ1NilbQ0BdNyhbQ0gyXTYpW0NAXTgoW0NIMl1PW0NIMl03KVtDQEhdKFtDSDJdW0NAQEhdNVtDQEBIXTlbQ0BIXShPOSlbQ0gyXTQpW0NAXShbT0hdKShbQ0BASF0oW0NIMl0yKVtDSDJdMylbQ0BASF0oW09IXSlbQ0gyXVtDQEhdOFtPSF0=

>  <s_epik_cmdline>  (214) 
J2VwaWtfcHl0aG9uJywgJy1waHQnLCAnMi4wJywgJy1waCcsICc3LjAnLCAnLXRuJywgJzgnLCAnLW1hJywgJzIwMCcsICctaW1hZScsICc8aW5maWxlLm1hZT4nLCAnLW9tYWUnLCAnPG91dGZpbGUubWFlPic=

>  <r_lp_tautomer_probability>  (214) 
1

>  <r_epik_Ionization_Penalty>  (214) 
6.04712e-07

>  <r_epik_Ionization_Penalty_Charging>  (214) 
0

>  <r_epik_Ionization_Penalty_Neutral>  (214) 
6.04712e-07

>  <r_epik_State_Penalty>  (214) 
-0

>  <r_epik_Charging_Adjusted_Penalty>  (214) 
0

>  <i_epik_Tot_Q>  (214) 
0

>  <i_epik_Tot_abs_Q>  (214) 
0

>  <s_lp_Force_Field>  (214) 
OPLS3e

>  <r_lp_Energy>  (214) 
106.929

>  <b_lp_Chiralities_Consistent>  (214) 
0

>  <s_lp_Variant>  (214) 
61:0-1

>  <s_i_glide_gridfile>  (214) 
pfpi4k_grid

>  <i_i_glide_lignum>  (214) 
10

>  <i_i_glide_rotatable_bonds>  (214) 
6

>  <r_i_docking_score>  (214) 
-2.40866

>  <r_i_glide_ligand_efficiency>  (214) 
-0.0669072

>  <r_i_glide_ligand_efficiency_sa>  (214) 
-0.220923

>  <r_i_glide_ligand_efficiency_ln>  (214) 
-0.525505

>  <r_i_glide_gscore>  (214) 
-2.40866

>  <r_i_glide_lipo>  (214) 
-0.27308

>  <r_i_glide_hbond>  (214) 
0

>  <r_i_glide_metal>  (214) 
-0

>  <r_i_glide_rewards>  (214) 
-0.00402158

>  <r_i_glide_evdw>  (214) 
-29.8164

>  <r_i_glide_ecoul>  (214) 
-5.34229

>  <r_i_glide_erotb>  (214) 
0.160606

>  <r_i_glide_esite>  (214) 
0

>  <r_i_glide_emodel>  (214) 
-34.9403

>  <r_i_glide_energy>  (214) 
-35.1587

>  <r_i_glide_einternal>  (214) 
5.0754

>  <r_i_glide_intrahb_reward>  (214) 
-0

>  <i_i_glide_confnum>  (214) 
3

>  <i_i_glide_posenum>  (214) 
5

>  <r_i_glide_eff_state_penalty>  (214) 
0

>  <ligand_id>  (214) 
61

>  <original_smiles>  (214) 
CC1COC(C)(OC23CC4CC2C25CC6OC6C2CC2C4(O)C(O)CC(O)C24COCC34C5)C(O)C1

>  <smiles>  (214) 
[H]OC1([H])C([H])([H])C([H])(C([H])([H])[H])C([H])([H])OC1(OC12C([H])([H])C3([H])C([H])([H])C1([H])C14C([H])([H])C5([H])OC5([H])C1([H])C([H])([H])C1([H])C3(O[H])C([H])(O[H])C([H])([H])C([H])(O[H])C13C([H])([H])OC([H])([H])C23C4([H])[H])C([H])([H])[H]

$$$$
61:0:1
     RDKit          3D

 76 84  0  0  1  0  0  0  0  0999 V2000
    8.5004   -4.5732    0.8361 C   0  0  0  0  0  0  0  0  0  0  0  0
    7.5759   -5.7588    1.0981 C   0  0  2  0  0  0  0  0  0  0  0  0
    6.1114   -5.3842    0.8138 C   0  0  0  0  0  0  0  0  0  0  0  0
    5.2533   -6.4651    1.1825 O   0  0  0  0  0  0  0  0  0  0  0  0
    5.2652   -6.8205    2.5455 C   0  0  1  0  0  0  0  0  0  0  0  0
    4.8589   -5.5466    3.3888 C   0  0  0  0  0  0  0  0  0  0  0  0
    4.3868   -7.8969    2.7624 O   0  0  0  0  0  0  0  0  0  0  0  0
    3.5762   -8.1448    3.9428 C   0  0  1  0  0  0  0  0  0  0  0  0
    4.2949   -7.9693    5.3038 C   0  0  0  0  0  0  0  0  0  0  0  0
    3.1427   -7.5750    6.2555 C   0  0  1  0  0  0  0  0  0  0  0  0
    2.3582   -6.5678    5.3862 C   0  0  0  0  0  0  0  0  0  0  0  0
    2.3625   -7.1610    3.9672 C   0  0  2  0  0  0  0  0  0  0  0  0
    1.0728   -7.8823    3.5047 C   0  0  2  0  0  0  0  0  0  0  0  0
    0.2624   -7.0457    2.4758 C   0  0  0  0  0  0  0  0  0  0  0  0
   -1.1598   -7.5330    2.5516 C   0  0  1  0  0  0  0  0  0  0  0  0
   -1.3764   -8.9633    2.5708 O   0  0  0  0  0  0  0  0  0  0  0  0
   -1.3203   -8.2588    3.8347 C   0  0  1  0  0  0  0  0  0  0  0  0
   -0.0028   -8.2270    4.5758 C   0  0  1  0  0  0  0  0  0  0  0  0
    0.2172   -9.4900    5.4080 C   0  0  0  0  0  0  0  0  0  0  0  0
    1.6410   -9.7984    5.9370 C   0  0  2  0  0  0  0  0  0  0  0  0
    2.3025   -8.7303    6.8897 C   0  0  2  0  0  0  0  0  0  0  0  0
    1.2860   -8.0851    7.6535 O   0  0  0  0  0  0  0  0  0  0  0  0
    3.1798   -9.4898    7.9238 C   0  0  1  0  0  0  0  0  0  0  0  0
    2.4115  -10.2446    8.8600 O   0  0  0  0  0  0  0  0  0  0  0  0
    4.2198  -10.4267    7.2711 C   0  0  0  0  0  0  0  0  0  0  0  0
    3.9594  -10.9542    5.8189 C   0  0  1  0  0  0  0  0  0  0  0  0
    4.1861  -12.3515    5.8977 O   0  0  0  0  0  0  0  0  0  0  0  0
    2.6712  -10.4607    4.9760 C   0  0  1  0  0  0  0  0  0  0  0  0
    2.1546  -11.7050    4.2188 C   0  0  0  0  0  0  0  0  0  0  0  0
    3.0706  -11.8457    3.1367 O   0  0  0  0  0  0  0  0  0  0  0  0
    3.6986  -10.5881    2.8549 C   0  0  0  0  0  0  0  0  0  0  0  0
    2.9383   -9.5557    3.7080 C   0  0  2  0  0  0  0  0  0  0  0  0
    1.6818   -9.1422    2.8678 C   0  0  0  0  0  0  0  0  0  0  0  0
    6.6973   -7.3530    2.8527 C   0  0  1  0  0  0  0  0  0  0  0  0
    7.0110   -8.5491    2.1341 O   0  0  0  0  0  0  0  0  0  0  0  0
    7.7383   -6.2830    2.5436 C   0  0  0  0  0  0  0  0  0  0  0  0
    8.2489   -3.7277    1.4774 H   0  0  0  0  0  0  0  0  0  0  0  0
    8.4244   -4.2406   -0.2009 H   0  0  0  0  0  0  0  0  0  0  0  0
    9.5348   -4.8437    1.0410 H   0  0  0  0  0  0  0  0  0  0  0  0
    7.8505   -6.5708    0.4260 H   0  0  0  0  0  0  0  0  0  0  0  0
    5.8513   -4.4479    1.3094 H   0  0  0  0  0  0  0  0  0  0  0  0
    5.9730   -5.1279   -0.2397 H   0  0  0  0  0  0  0  0  0  0  0  0
    3.9180   -5.1438    2.9687 H   0  0  0  0  0  0  0  0  0  0  0  0
    5.6336   -4.7780    3.3080 H   0  0  0  0  0  0  0  0  0  0  0  0
    4.8112   -5.7033    4.4179 H   0  0  0  0  0  0  0  0  0  0  0  0
    4.9425   -8.7743    5.5756 H   0  0  0  0  0  0  0  0  0  0  0  0
    5.0173   -7.2073    5.4015 H   0  0  0  0  0  0  0  0  0  0  0  0
    3.5715   -7.0000    7.0843 H   0  0  0  0  0  0  0  0  0  0  0  0
    1.4059   -6.2270    5.7954 H   0  0  0  0  0  0  0  0  0  0  0  0
    2.9187   -5.6443    5.3527 H   0  0  0  0  0  0  0  0  0  0  0  0
    2.4947   -6.3666    3.2387 H   0  0  0  0  0  0  0  0  0  0  0  0
    0.2576   -5.9961    2.7710 H   0  0  0  0  0  0  0  0  0  0  0  0
    0.6406   -7.0958    1.4589 H   0  0  0  0  0  0  0  0  0  0  0  0
   -1.9603   -6.9455    2.1340 H   0  0  0  0  0  0  0  0  0  0  0  0
   -2.2397   -8.2327    4.3942 H   0  0  0  0  0  0  0  0  0  0  0  0
   -0.1409   -7.4047    5.2720 H   0  0  0  0  0  0  0  0  0  0  0  0
   -0.4600   -9.4337    6.2608 H   0  0  0  0  0  0  0  0  0  0  0  0
   -0.1628  -10.3393    4.8480 H   0  0  0  0  0  0  0  0  0  0  0  0
    1.3889  -10.6429    6.5630 H   0  0  0  0  0  0  0  0  0  0  0  0
    0.8225   -8.7624    8.1191 H   0  0  0  0  0  0  0  0  0  0  0  0
    3.7211   -8.7575    8.5242 H   0  0  0  0  0  0  0  0  0  0  0  0
    2.0445  -11.0078    8.4174 H   0  0  0  0  0  0  0  0  0  0  0  0
    5.1823   -9.9120    7.2817 H   0  0  0  0  0  0  0  0  0  0  0  0
    4.4251  -11.2554    7.9493 H   0  0  0  0  0  0  0  0  0  0  0  0
    4.8456  -10.7128    5.2354 H   0  0  0  0  0  0  0  0  0  0  0  0
    3.4644  -12.7657    6.3500 H   0  0  0  0  0  0  0  0  0  0  0  0
    2.0862  -12.6140    4.8116 H   0  0  0  0  0  0  0  0  0  0  0  0
    1.1607  -11.6057    3.8022 H   0  0  0  0  0  0  0  0  0  0  0  0
    4.7548  -10.6451    3.1075 H   0  0  0  0  0  0  0  0  0  0  0  0
    3.6608  -10.3735    1.7848 H   0  0  0  0  0  0  0  0  0  0  0  0
    0.9418   -9.9203    2.6556 H   0  0  0  0  0  0  0  0  0  0  0  0
    2.0375   -8.8454    1.8799 H   0  0  0  0  0  0  0  0  0  0  0  0
    6.7399   -7.6281    3.9120 H   0  0  0  0  0  0  0  0  0  0  0  0
    6.3328   -9.1842    2.2920 H   0  0  0  0  0  0  0  0  0  0  0  0
    8.7487   -6.6513    2.7080 H   0  0  0  0  0  0  0  0  0  0  0  0
    7.6305   -5.4641    3.2569 H   0  0  0  0  0  0  0  0  0  0  0  0
  1  2  1  0
  1 37  1  0
  1 38  1  0
  1 39  1  0
  2 36  1  0
  2  3  1  0
  2 40  1  6
  3  4  1  0
  3 41  1  0
  3 42  1  0
  4  5  1  0
  5  6  1  0
  5  7  1  6
  5 34  1  0
  6 43  1  0
  6 44  1  0
  6 45  1  0
  8  7  1  6
  8 12  1  0
  8 32  1  0
  8  9  1  0
  9 10  1  0
  9 46  1  0
  9 47  1  0
 10 21  1  0
 10 11  1  0
 10 48  1  1
 11 12  1  0
 11 49  1  0
 11 50  1  0
 12 13  1  0
 12 51  1  6
 13 18  1  0
 13 33  1  0
 13 14  1  6
 14 15  1  0
 14 52  1  0
 14 53  1  0
 15 17  1  0
 15 16  1  0
 15 54  1  6
 16 17  1  0
 17 18  1  0
 17 55  1  1
 18 19  1  0
 18 56  1  1
 19 20  1  0
 19 57  1  0
 19 58  1  0
 20 28  1  0
 20 21  1  0
 20 59  1  1
 21 22  1  1
 21 23  1  0
 22 60  1  0
 23 24  1  0
 23 25  1  0
 23 61  1  1
 24 62  1  0
 25 26  1  0
 25 63  1  0
 25 64  1  0
 26 27  1  0
 26 28  1  0
 26 65  1  6
 27 66  1  0
 28 32  1  0
 28 29  1  6
 29 30  1  0
 29 67  1  0
 29 68  1  0
 30 31  1  0
 32 31  1  6
 31 69  1  0
 31 70  1  0
 32 33  1  0
 33 71  1  0
 33 72  1  0
 34 35  1  0
 34 36  1  0
 34 73  1  1
 35 74  1  0
 36 75  1  0
 36 76  1  0
M  END
>  <i_m_ct_stereo_status>  (215) 
1

>  <s_m_source_file>  (215) 
/var/tmp/pbs.5076255.sched01/tmpm261n1hm/82shs6bvht.sdf

>  <i_m_source_file_index>  (215) 
10

>  <i_lp_mmshare_version>  (215) 
48012

>  <i_f3d_flags>  (215) 
2

>  <s_epik_input>  (215) 
W09IXVtDQEhdMVtDSDJdW0NASF0oW0NIM10pW0NIMl1PW0NAQF0xKFtDSDNdKU9bQ0BAXTIoW0NASF0zW0NAXTQ1NilbQ0BdNyhbQ0gyXTYpW0NAXTgoW0NIMl1PW0NIMl03KVtDQEhdKFtDSDJdW0NAQEhdNVtDQEBIXTlbQ0BIXShPOSlbQ0gyXTQpW0NAXShbT0hdKShbQ0BASF0oW0NIMl0yKVtDSDJdMylbQ0BASF0oW09IXSlbQ0gyXVtDQEhdOFtPSF0=

>  <s_epik_cmdline>  (215) 
J2VwaWtfcHl0aG9uJywgJy1waHQnLCAnMi4wJywgJy1waCcsICc3LjAnLCAnLXRuJywgJzgnLCAnLW1hJywgJzIwMCcsICctaW1hZScsICc8aW5maWxlLm1hZT4nLCAnLW9tYWUnLCAnPG91dGZpbGUubWFlPic=

>  <r_lp_tautomer_probability>  (215) 
1

>  <r_epik_Ionization_Penalty>  (215) 
6.04712e-07

>  <r_epik_Ionization_Penalty_Charging>  (215) 
0

>  <r_epik_Ionization_Penalty_Neutral>  (215) 
6.04712e-07

>  <r_epik_State_Penalty>  (215) 
-0

>  <r_epik_Charging_Adjusted_Penalty>  (215) 
0

>  <i_epik_Tot_Q>  (215) 
0

>  <i_epik_Tot_abs_Q>  (215) 
0

>  <s_lp_Force_Field>  (215) 
OPLS3e

>  <r_lp_Energy>  (215) 
106.929

>  <b_lp_Chiralities_Consistent>  (215) 
0

>  <s_lp_Variant>  (215) 
61:0-1

>  <s_i_glide_gridfile>  (215) 
pfpi4k_grid

>  <i_i_glide_lignum>  (215) 
10

>  <i_i_glide_rotatable_bonds>  (215) 
6

>  <r_i_docking_score>  (215) 
-2.32621

>  <r_i_glide_ligand_efficiency>  (215) 
-0.0646169

>  <r_i_glide_ligand_efficiency_sa>  (215) 
-0.21336

>  <r_i_glide_ligand_efficiency_ln>  (215) 
-0.507516

>  <r_i_glide_gscore>  (215) 
-2.32621

>  <r_i_glide_lipo>  (215) 
-0.208864

>  <r_i_glide_hbond>  (215) 
0

>  <r_i_glide_metal>  (215) 
-0

>  <r_i_glide_rewards>  (215) 
-0.00358085

>  <r_i_glide_evdw>  (215) 
-29.6398

>  <r_i_glide_ecoul>  (215) 
-5.28255

>  <r_i_glide_erotb>  (215) 
0.160606

>  <r_i_glide_esite>  (215) 
0

>  <r_i_glide_emodel>  (215) 
-34.5294

>  <r_i_glide_energy>  (215) 
-34.9223

>  <r_i_glide_einternal>  (215) 
4.79611

>  <r_i_glide_intrahb_reward>  (215) 
-0

>  <i_i_glide_confnum>  (215) 
3

>  <i_i_glide_posenum>  (215) 
1

>  <r_i_glide_eff_state_penalty>  (215) 
0

>  <ligand_id>  (215) 
61

>  <original_smiles>  (215) 
CC1COC(C)(OC23CC4CC2C25CC6OC6C2CC2C4(O)C(O)CC(O)C24COCC34C5)C(O)C1

>  <smiles>  (215) 
[H]OC1([H])C([H])([H])C([H])(C([H])([H])[H])C([H])([H])OC1(OC12C([H])([H])C3([H])C([H])([H])C1([H])C14C([H])([H])C5([H])OC5([H])C1([H])C([H])([H])C1([H])C3(O[H])C([H])(O[H])C([H])([H])C([H])(O[H])C13C([H])([H])OC([H])([H])C23C4([H])[H])C([H])([H])[H]

$$$$
61:0:2
     RDKit          3D

 76 84  0  0  1  0  0  0  0  0999 V2000
    8.3917   -4.6286    0.5736 C   0  0  0  0  0  0  0  0  0  0  0  0
    7.4656   -5.8081    0.8806 C   0  0  2  0  0  0  0  0  0  0  0  0
    6.0020   -5.4482    0.5697 C   0  0  0  0  0  0  0  0  0  0  0  0
    5.1542   -6.5187    1.0031 O   0  0  0  0  0  0  0  0  0  0  0  0
    5.1567   -6.7960    2.3733 C   0  0  1  0  0  0  0  0  0  0  0  0
    4.7338   -5.4778    3.1564 C   0  0  0  0  0  0  0  0  0  0  0  0
    4.2584   -7.8508    2.6374 O   0  0  0  0  0  0  0  0  0  0  0  0
    3.5049   -8.1094    3.8420 C   0  0  1  0  0  0  0  0  0  0  0  0
    4.2672   -7.8921    5.1752 C   0  0  0  0  0  0  0  0  0  0  0  0
    3.1278   -7.4947    6.1498 C   0  0  1  0  0  0  0  0  0  0  0  0
    2.2919   -6.5296    5.2843 C   0  0  0  0  0  0  0  0  0  0  0  0
    2.2745   -7.1430    3.8728 C   0  0  2  0  0  0  0  0  0  0  0  0
    0.9890   -7.9056    3.4620 C   0  0  2  0  0  0  0  0  0  0  0  0
    0.1343   -7.1034    2.4339 C   0  0  0  0  0  0  0  0  0  0  0  0
   -1.2725   -7.6265    2.5728 C   0  0  1  0  0  0  0  0  0  0  0  0
   -1.4548   -9.0459    2.6302 O   0  0  0  0  0  0  0  0  0  0  0  0
   -1.3740   -8.3130    3.8567 C   0  0  1  0  0  0  0  0  0  0  0  0
   -0.0526   -8.2339    4.5780 C   0  0  1  0  0  0  0  0  0  0  0  0
    0.2132   -9.4713    5.4302 C   0  0  0  0  0  0  0  0  0  0  0  0
    1.6609   -9.7440    5.9307 C   0  0  2  0  0  0  0  0  0  0  0  0
    2.3234   -8.6470    6.8458 C   0  0  2  0  0  0  0  0  0  0  0  0
    1.3137   -7.9966    7.6164 O   0  0  0  0  0  0  0  0  0  0  0  0
    3.2456   -9.3662    7.8637 C   0  0  1  0  0  0  0  0  0  0  0  0
    2.5308  -10.1239    8.8355 O   0  0  0  0  0  0  0  0  0  0  0  0
    4.2768  -10.3016    7.2006 C   0  0  0  0  0  0  0  0  0  0  0  0
    3.9784  -10.8720    5.7693 C   0  0  1  0  0  0  0  0  0  0  0  0
    4.2160  -12.2623    5.8768 O   0  0  0  0  0  0  0  0  0  0  0  0
    2.6666  -10.4125    4.9527 C   0  0  1  0  0  0  0  0  0  0  0  0
    2.1478  -11.6828    4.2424 C   0  0  0  0  0  0  0  0  0  0  0  0
    3.0324  -11.8315    3.1365 O   0  0  0  0  0  0  0  0  0  0  0  0
    3.6312  -10.5722    2.8036 C   0  0  0  0  0  0  0  0  0  0  0  0
    2.8841   -9.5336    3.6581 C   0  0  2  0  0  0  0  0  0  0  0  0
    1.5898   -9.1717    2.8455 C   0  0  0  0  0  0  0  0  0  0  0  0
    6.5876   -7.3296    2.7078 C   0  0  1  0  0  0  0  0  0  0  0  0
    6.9300   -8.5257    2.0088 O   0  0  0  0  0  0  0  0  0  0  0  0
    7.6279   -6.2685    2.3471 C   0  0  0  0  0  0  0  0  0  0  0  0
    8.1434   -3.7549    1.1827 H   0  0  0  0  0  0  0  0  0  0  0  0
    8.3203   -4.3326   -0.4763 H   0  0  0  0  0  0  0  0  0  0  0  0
    9.4139   -4.8943    0.7841 H   0  0  0  0  0  0  0  0  0  0  0  0
    7.7545   -6.6417    0.2414 H   0  0  0  0  0  0  0  0  0  0  0  0
    5.7427   -4.4819    1.0072 H   0  0  0  0  0  0  0  0  0  0  0  0
    5.8527   -5.2535   -0.4945 H   0  0  0  0  0  0  0  0  0  0  0  0
    3.8123   -5.0875    2.6679 H   0  0  0  0  0  0  0  0  0  0  0  0
    5.5209   -4.7213    3.0327 H   0  0  0  0  0  0  0  0  0  0  0  0
    4.6695   -5.6017    4.2162 H   0  0  0  0  0  0  0  0  0  0  0  0
    4.9071   -8.6978    5.4454 H   0  0  0  0  0  0  0  0  0  0  0  0
    4.9778   -7.0906    5.2087 H   0  0  0  0  0  0  0  0  0  0  0  0
    3.5662   -6.8914    6.9547 H   0  0  0  0  0  0  0  0  0  0  0  0
    1.3487   -6.1773    5.7066 H   0  0  0  0  0  0  0  0  0  0  0  0
    2.8368   -5.6001    5.2069 H   0  0  0  0  0  0  0  0  0  0  0  0
    2.3754   -6.3598    3.1246 H   0  0  0  0  0  0  0  0  0  0  0  0
    0.1260   -6.0560    2.7029 H   0  0  0  0  0  0  0  0  0  0  0  0
    0.4791   -7.1812    1.4093 H   0  0  0  0  0  0  0  0  0  0  0  0
   -2.1010   -7.0372    2.1761 H   0  0  0  0  0  0  0  0  0  0  0  0
   -2.2843   -8.2889    4.4642 H   0  0  0  0  0  0  0  0  0  0  0  0
   -0.1872   -7.3989    5.2494 H   0  0  0  0  0  0  0  0  0  0  0  0
   -0.4377   -9.4124    6.3018 H   0  0  0  0  0  0  0  0  0  0  0  0
   -0.1582  -10.3428    4.9027 H   0  0  0  0  0  0  0  0  0  0  0  0
    1.4522  -10.5695    6.5920 H   0  0  0  0  0  0  0  0  0  0  0  0
    0.6828   -7.6633    6.9991 H   0  0  0  0  0  0  0  0  0  0  0  0
    3.7906   -8.6058    8.4269 H   0  0  0  0  0  0  0  0  0  0  0  0
    2.0942  -10.8522    8.3949 H   0  0  0  0  0  0  0  0  0  0  0  0
    5.2293   -9.7739    7.1691 H   0  0  0  0  0  0  0  0  0  0  0  0
    4.5145  -11.1096    7.8880 H   0  0  0  0  0  0  0  0  0  0  0  0
    4.8448  -10.6400    5.1517 H   0  0  0  0  0  0  0  0  0  0  0  0
    3.4748  -12.6787    6.2998 H   0  0  0  0  0  0  0  0  0  0  0  0
    2.1089  -12.5755    4.8604 H   0  0  0  0  0  0  0  0  0  0  0  0
    1.1448  -11.6120    3.8473 H   0  0  0  0  0  0  0  0  0  0  0  0
    4.6940  -10.6117    3.0296 H   0  0  0  0  0  0  0  0  0  0  0  0
    3.5626  -10.3819    1.7292 H   0  0  0  0  0  0  0  0  0  0  0  0
    0.8539   -9.9681    2.6688 H   0  0  0  0  0  0  0  0  0  0  0  0
    1.9112   -8.8940    1.8400 H   0  0  0  0  0  0  0  0  0  0  0  0
    6.6335   -7.5769    3.7733 H   0  0  0  0  0  0  0  0  0  0  0  0
    6.8738   -8.3530    1.0744 H   0  0  0  0  0  0  0  0  0  0  0  0
    8.6353   -6.6388    2.5276 H   0  0  0  0  0  0  0  0  0  0  0  0
    7.5213   -5.4315    3.0236 H   0  0  0  0  0  0  0  0  0  0  0  0
  1  2  1  0
  1 37  1  0
  1 38  1  0
  1 39  1  0
  2 36  1  0
  2  3  1  0
  2 40  1  6
  3  4  1  0
  3 41  1  0
  3 42  1  0
  4  5  1  0
  5  6  1  0
  5  7  1  6
  5 34  1  0
  6 43  1  0
  6 44  1  0
  6 45  1  0
  8  7  1  6
  8 12  1  0
  8 32  1  0
  8  9  1  0
  9 10  1  0
  9 46  1  0
  9 47  1  0
 10 21  1  0
 10 11  1  0
 10 48  1  1
 11 12  1  0
 11 49  1  0
 11 50  1  0
 12 13  1  0
 12 51  1  6
 13 18  1  0
 13 33  1  0
 13 14  1  6
 14 15  1  0
 14 52  1  0
 14 53  1  0
 15 17  1  0
 15 16  1  0
 15 54  1  6
 16 17  1  0
 17 18  1  0
 17 55  1  1
 18 19  1  0
 18 56  1  1
 19 20  1  0
 19 57  1  0
 19 58  1  0
 20 28  1  0
 20 21  1  0
 20 59  1  1
 21 22  1  1
 21 23  1  0
 22 60  1  0
 23 24  1  0
 23 25  1  0
 23 61  1  1
 24 62  1  0
 25 26  1  0
 25 63  1  0
 25 64  1  0
 26 27  1  0
 26 28  1  0
 26 65  1  6
 27 66  1  0
 28 32  1  0
 28 29  1  6
 29 30  1  0
 29 67  1  0
 29 68  1  0
 30 31  1  0
 32 31  1  6
 31 69  1  0
 31 70  1  0
 32 33  1  0
 33 71  1  0
 33 72  1  0
 34 35  1  0
 34 36  1  0
 34 73  1  1
 35 74  1  0
 36 75  1  0
 36 76  1  0
M  END
>  <i_m_ct_stereo_status>  (216) 
1

>  <s_m_source_file>  (216) 
/var/tmp/pbs.5076255.sched01/tmpm261n1hm/82shs6bvht.sdf

>  <i_m_source_file_index>  (216) 
10

>  <i_lp_mmshare_version>  (216) 
48012

>  <i_f3d_flags>  (216) 
2

>  <s_epik_input>  (216) 
W09IXVtDQEhdMVtDSDJdW0NASF0oW0NIM10pW0NIMl1PW0NAQF0xKFtDSDNdKU9bQ0BAXTIoW0NASF0zW0NAXTQ1NilbQ0BdNyhbQ0gyXTYpW0NAXTgoW0NIMl1PW0NIMl03KVtDQEhdKFtDSDJdW0NAQEhdNVtDQEBIXTlbQ0BIXShPOSlbQ0gyXTQpW0NAXShbT0hdKShbQ0BASF0oW0NIMl0yKVtDSDJdMylbQ0BASF0oW09IXSlbQ0gyXVtDQEhdOFtPSF0=

>  <s_epik_cmdline>  (216) 
J2VwaWtfcHl0aG9uJywgJy1waHQnLCAnMi4wJywgJy1waCcsICc3LjAnLCAnLXRuJywgJzgnLCAnLW1hJywgJzIwMCcsICctaW1hZScsICc8aW5maWxlLm1hZT4nLCAnLW9tYWUnLCAnPG91dGZpbGUubWFlPic=

>  <r_lp_tautomer_probability>  (216) 
1

>  <r_epik_Ionization_Penalty>  (216) 
6.04712e-07

>  <r_epik_Ionization_Penalty_Charging>  (216) 
0

>  <r_epik_Ionization_Penalty_Neutral>  (216) 
6.04712e-07

>  <r_epik_State_Penalty>  (216) 
-0

>  <r_epik_Charging_Adjusted_Penalty>  (216) 
0

>  <i_epik_Tot_Q>  (216) 
0

>  <i_epik_Tot_abs_Q>  (216) 
0

>  <s_lp_Force_Field>  (216) 
OPLS3e

>  <r_lp_Energy>  (216) 
106.929

>  <b_lp_Chiralities_Consistent>  (216) 
0

>  <s_lp_Variant>  (216) 
61:0-1

>  <s_i_glide_gridfile>  (216) 
pfpi4k_grid

>  <i_i_glide_lignum>  (216) 
10

>  <i_i_glide_rotatable_bonds>  (216) 
6

>  <r_i_docking_score>  (216) 
-2.14506

>  <r_i_glide_ligand_efficiency>  (216) 
-0.0595849

>  <r_i_glide_ligand_efficiency_sa>  (216) 
-0.196745

>  <r_i_glide_ligand_efficiency_ln>  (216) 
-0.467993

>  <r_i_glide_gscore>  (216) 
-2.14506

>  <r_i_glide_lipo>  (216) 
-0.259976

>  <r_i_glide_hbond>  (216) 
0

>  <r_i_glide_metal>  (216) 
-0

>  <r_i_glide_rewards>  (216) 
-0.00194193

>  <r_i_glide_evdw>  (216) 
-30.37

>  <r_i_glide_ecoul>  (216) 
-3.50161

>  <r_i_glide_erotb>  (216) 
0.160606

>  <r_i_glide_esite>  (216) 
0

>  <r_i_glide_emodel>  (216) 
-33.4442

>  <r_i_glide_energy>  (216) 
-33.8716

>  <r_i_glide_einternal>  (216) 
4.30325

>  <r_i_glide_intrahb_reward>  (216) 
-0

>  <i_i_glide_confnum>  (216) 
3

>  <i_i_glide_posenum>  (216) 
12

>  <r_i_glide_eff_state_penalty>  (216) 
0

>  <ligand_id>  (216) 
61

>  <original_smiles>  (216) 
CC1COC(C)(OC23CC4CC2C25CC6OC6C2CC2C4(O)C(O)CC(O)C24COCC34C5)C(O)C1

>  <smiles>  (216) 
[H]OC1([H])C([H])([H])C([H])(C([H])([H])[H])C([H])([H])OC1(OC12C([H])([H])C3([H])C([H])([H])C1([H])C14C([H])([H])C5([H])OC5([H])C1([H])C([H])([H])C1([H])C3(O[H])C([H])(O[H])C([H])([H])C([H])(O[H])C13C([H])([H])OC([H])([H])C23C4([H])[H])C([H])([H])[H]

$$$$
62:0:0
     RDKit          3D

 47 51  0  0  1  0  0  0  0  0999 V2000
   -0.1450    0.9538   10.1007 C   0  0  0  0  0  0  0  0  0  0  0  0
   -0.4667    0.8475    8.7095 O   0  0  0  0  0  0  0  0  0  0  0  0
    0.3891    1.4577    7.7201 C   0  0  2  0  0  0  0  0  0  0  0  0
    0.3068    3.0244    7.9736 C   0  0  1  0  0  0  0  0  0  0  0  0
    0.9353    3.9885    6.9371 C   0  0  0  0  0  0  0  0  0  0  0  0
   -1.1071    3.5532    8.3580 C   0  0  0  0  0  0  0  0  0  0  0  0
   -2.2598    3.0642    7.4944 C   0  0  0  0  0  0  0  0  0  0  0  0
   -3.3886    2.9302    7.9538 O   0  0  0  0  0  0  0  0  0  0  0  0
   -1.9821    2.7680    6.0367 C   0  0  0  0  0  0  0  0  0  0  0  0
   -2.1792    3.6355    5.1851 O   0  0  0  0  0  0  0  0  0  0  0  0
   -1.4790    1.3548    5.6879 C   0  0  1  0  0  0  0  0  0  0  0  0
   -1.2606    1.2883    4.2638 O   0  0  0  0  0  0  0  0  0  0  0  0
    0.0885    1.4034    4.0640 C   0  0  0  0  0  0  0  0  0  0  0  0
    0.8043    1.6356    2.8701 C   0  0  0  0  0  0  0  0  0  0  0  0
    0.1347    1.7486    1.6864 O   0  0  0  0  0  0  0  0  0  0  0  0
    2.2175    1.7786    2.9050 C   0  0  0  0  0  0  0  0  0  0  0  0
    2.9307    1.6839    4.1233 C   0  0  0  0  0  0  0  0  0  0  0  0
    2.2396    1.4253    5.3254 C   0  0  0  0  0  0  0  0  0  0  0  0
    0.8429    1.2737    5.2158 C   0  0  0  0  0  0  0  0  0  0  0  0
   -0.1057    0.9071    6.3245 C   0  0  1  0  0  0  0  0  0  0  0  0
   -0.1638   -0.6526    6.4075 C   0  0  0  0  0  0  0  0  0  0  0  0
    1.1898   -1.3127    6.7139 C   0  0  0  0  0  0  0  0  0  0  0  0
    1.8459   -0.6672    7.9417 C   0  0  0  0  0  0  0  0  0  0  0  0
    1.8431    0.8834    7.8665 C   0  0  1  0  0  0  0  0  0  0  0  0
    2.8181    1.3018    6.7306 C   0  0  0  0  0  0  0  0  0  0  0  0
   -0.9262    0.4649   10.6824 H   0  0  0  0  0  0  0  0  0  0  0  0
   -0.0869    1.9762   10.4644 H   0  0  0  0  0  0  0  0  0  0  0  0
    0.7925    0.4648   10.3604 H   0  0  0  0  0  0  0  0  0  0  0  0
    0.8976    3.2050    8.8656 H   0  0  0  0  0  0  0  0  0  0  0  0
    0.5491    3.8577    5.9297 H   0  0  0  0  0  0  0  0  0  0  0  0
    2.0188    3.9132    6.8961 H   0  0  0  0  0  0  0  0  0  0  0  0
    0.7423    5.0258    7.2140 H   0  0  0  0  0  0  0  0  0  0  0  0
   -1.3449    3.2764    9.3829 H   0  0  0  0  0  0  0  0  0  0  0  0
   -1.1194    4.6454    8.3579 H   0  0  0  0  0  0  0  0  0  0  0  0
   -2.2739    0.6551    5.9555 H   0  0  0  0  0  0  0  0  0  0  0  0
    0.2140    2.6184    1.3005 H   0  0  0  0  0  0  0  0  0  0  0  0
    2.7597    1.9572    1.9953 H   0  0  0  0  0  0  0  0  0  0  0  0
    4.0068    1.8038    4.1326 H   0  0  0  0  0  0  0  0  0  0  0  0
   -0.8710   -0.9610    7.1699 H   0  0  0  0  0  0  0  0  0  0  0  0
   -0.5517   -1.0764    5.4781 H   0  0  0  0  0  0  0  0  0  0  0  0
    1.0590   -2.3844    6.8805 H   0  0  0  0  0  0  0  0  0  0  0  0
    1.8391   -1.2336    5.8433 H   0  0  0  0  0  0  0  0  0  0  0  0
    1.3235   -1.0169    8.8298 H   0  0  0  0  0  0  0  0  0  0  0  0
    2.8667   -1.0460    8.0441 H   0  0  0  0  0  0  0  0  0  0  0  0
    2.2840    1.2321    8.7984 H   0  0  0  0  0  0  0  0  0  0  0  0
    3.6595    0.6161    6.6857 H   0  0  0  0  0  0  0  0  0  0  0  0
    3.2745    2.2549    6.9850 H   0  0  0  0  0  0  0  0  0  0  0  0
  1  2  1  0
  1 26  1  0
  1 27  1  0
  1 28  1  0
  3  2  1  1
  3 20  1  0
  3 24  1  0
  3  4  1  0
  4  5  1  0
  4  6  1  0
  4 29  1  1
  5 30  1  0
  5 31  1  0
  5 32  1  0
  6  7  1  0
  6 33  1  0
  6 34  1  0
  7  8  2  0
  7  9  1  0
  9 10  2  0
  9 11  1  0
 11 20  1  0
 11 12  1  0
 11 35  1  6
 12 13  1  0
 13 19  2  0
 13 14  1  0
 14 15  1  0
 14 16  2  0
 15 36  1  0
 16 17  1  0
 16 37  1  0
 17 18  2  0
 17 38  1  0
 18 25  1  0
 18 19  1  0
 19 20  1  0
 20 21  1  1
 21 22  1  0
 21 39  1  0
 21 40  1  0
 22 23  1  0
 22 41  1  0
 22 42  1  0
 23 24  1  0
 23 43  1  0
 23 44  1  0
 24 25  1  0
 24 45  1  1
 25 46  1  0
 25 47  1  0
M  END
>  <i_m_ct_stereo_status>  (217) 
1

>  <s_m_source_file>  (217) 
/var/tmp/pbs.5076255.sched01/tmpm261n1hm/82shs6bvht.sdf

>  <i_m_source_file_index>  (217) 
11

>  <i_lp_mmshare_version>  (217) 
48012

>  <i_f3d_flags>  (217) 
0

>  <s_epik_input>  (217) 
W0NIM11PW0NAXTEoW0NAQF0yMzQpW0NAQEhdKFtDSDJdW0NIMl1bQ0gyXTQpW0NIMl1jNWMzYyhjKFtPSF0pW2NIXVtjSF01KU9bQ0BASF0yQyg9TylDKD1PKVtDSDJdW0NAQEhdMVtDSDNd

>  <s_epik_cmdline>  (217) 
J2VwaWtfcHl0aG9uJywgJy1waHQnLCAnMi4wJywgJy1waCcsICc3LjAnLCAnLXRuJywgJzgnLCAnLW1hJywgJzIwMCcsICctaW1hZScsICc8aW5maWxlLm1hZT4nLCAnLW9tYWUnLCAnPG91dGZpbGUubWFlPic=

>  <r_lp_tautomer_probability>  (217) 
1

>  <r_epik_Ionization_Penalty>  (217) 
0.0052979

>  <r_epik_Ionization_Penalty_Charging>  (217) 
0

>  <r_epik_Ionization_Penalty_Neutral>  (217) 
0.0052979

>  <r_epik_State_Penalty>  (217) 
0.0038667

>  <r_epik_Charging_Adjusted_Penalty>  (217) 
0.0038667

>  <i_epik_Tot_Q>  (217) 
0

>  <i_epik_Tot_abs_Q>  (217) 
0

>  <s_lp_Force_Field>  (217) 
OPLS3e

>  <r_lp_Energy>  (217) 
62.9451

>  <b_lp_Chiralities_Consistent>  (217) 
1

>  <s_lp_Variant>  (217) 
62:0-1

>  <s_i_glide_gridfile>  (217) 
pfpi4k_grid

>  <i_i_glide_lignum>  (217) 
11

>  <i_i_glide_rotatable_bonds>  (217) 
2

>  <r_i_docking_score>  (217) 
-2.64699

>  <r_i_glide_ligand_efficiency>  (217) 
-0.105879

>  <r_i_glide_ligand_efficiency_sa>  (217) 
-0.309593

>  <r_i_glide_ligand_efficiency_ln>  (217) 
-0.627415

>  <r_i_glide_gscore>  (217) 
-2.64699

>  <r_i_glide_lipo>  (217) 
-0.000583373

>  <r_i_glide_hbond>  (217) 
0

>  <r_i_glide_metal>  (217) 
-0

>  <r_i_glide_rewards>  (217) 
-1.28282

>  <r_i_glide_evdw>  (217) 
-18.3689

>  <r_i_glide_ecoul>  (217) 
-2.96763

>  <r_i_glide_erotb>  (217) 
0

>  <r_i_glide_esite>  (217) 
0

>  <r_i_glide_emodel>  (217) 
-23.166

>  <r_i_glide_energy>  (217) 
-21.3365

>  <r_i_glide_einternal>  (217) 
2.75946

>  <r_i_glide_intrahb_reward>  (217) 
-0

>  <i_i_glide_confnum>  (217) 
2

>  <i_i_glide_posenum>  (217) 
4

>  <r_i_glide_eff_state_penalty>  (217) 
0

>  <ligand_id>  (217) 
62

>  <original_smiles>  (217) 
COC12C(C)CC(=O)C(=O)C3Oc4c(O)ccc5c4C31CCCC2C5

>  <smiles>  (217) 
[H]Oc1c([H])c([H])c2c3c1OC1([H])C(=O)C(=O)C([H])([H])C([H])(C([H])([H])[H])C4(OC([H])([H])[H])C([H])(C2([H])[H])C([H])([H])C([H])([H])C([H])([H])C314

$$$$
62:0:1
     RDKit          3D

 47 51  0  0  1  0  0  0  0  0999 V2000
    1.0384    1.8630    9.7598 C   0  0  0  0  0  0  0  0  0  0  0  0
    0.3277    1.4678    8.5828 O   0  0  0  0  0  0  0  0  0  0  0  0
    0.7693    1.9118    7.2879 C   0  0  2  0  0  0  0  0  0  0  0  0
    0.5698    3.4889    7.2743 C   0  0  1  0  0  0  0  0  0  0  0  0
    0.7458    4.2578    5.9419 C   0  0  0  0  0  0  0  0  0  0  0  0
   -0.7187    3.9958    7.9899 C   0  0  0  0  0  0  0  0  0  0  0  0
   -2.0117    3.2669    7.6328 C   0  0  0  0  0  0  0  0  0  0  0  0
   -2.9353    3.1554    8.4359 O   0  0  0  0  0  0  0  0  0  0  0  0
   -2.1355    2.6957    6.2399 C   0  0  0  0  0  0  0  0  0  0  0  0
   -2.6942    3.3461    5.3558 O   0  0  0  0  0  0  0  0  0  0  0  0
   -1.5877    1.2838    6.0037 C   0  0  1  0  0  0  0  0  0  0  0  0
   -1.7901    0.9441    4.6160 O   0  0  0  0  0  0  0  0  0  0  0  0
   -0.5935    1.1031    3.9838 C   0  0  0  0  0  0  0  0  0  0  0  0
   -0.2938    1.1305    2.6007 C   0  0  0  0  0  0  0  0  0  0  0  0
   -1.2869    0.9539    1.6936 O   0  0  0  0  0  0  0  0  0  0  0  0
    1.0369    1.3433    2.1633 C   0  0  0  0  0  0  0  0  0  0  0  0
    2.0888    1.5504    3.0915 C   0  0  0  0  0  0  0  0  0  0  0  0
    1.8208    1.5033    4.4763 C   0  0  0  0  0  0  0  0  0  0  0  0
    0.4836    1.2491    4.8411 C   0  0  0  0  0  0  0  0  0  0  0  0
   -0.0442    1.0599    6.2408 C   0  0  1  0  0  0  0  0  0  0  0  0
    0.1049   -0.4538    6.6149 C   0  0  0  0  0  0  0  0  0  0  0  0
    1.5559   -0.9539    6.5823 C   0  0  0  0  0  0  0  0  0  0  0  0
    2.4694   -0.0342    7.4024 C   0  0  0  0  0  0  0  0  0  0  0  0
    2.2581    1.4670    7.0664 C   0  0  1  0  0  0  0  0  0  0  0  0
    2.7932    1.7044    5.6294 C   0  0  0  0  0  0  0  0  0  0  0  0
    0.5225    1.4509   10.6263 H   0  0  0  0  0  0  0  0  0  0  0  0
    1.0860    2.9395    9.9056 H   0  0  0  0  0  0  0  0  0  0  0  0
    2.0572    1.4843    9.7910 H   0  0  0  0  0  0  0  0  0  0  0  0
    1.3765    3.8844    7.8906 H   0  0  0  0  0  0  0  0  0  0  0  0
    0.0947    3.9022    5.1468 H   0  0  0  0  0  0  0  0  0  0  0  0
    1.7654    4.2389    5.5745 H   0  0  0  0  0  0  0  0  0  0  0  0
    0.5229    5.3172    6.0799 H   0  0  0  0  0  0  0  0  0  0  0  0
   -0.6011    3.9184    9.0697 H   0  0  0  0  0  0  0  0  0  0  0  0
   -0.8606    5.0619    7.8018 H   0  0  0  0  0  0  0  0  0  0  0  0
   -2.1864    0.6073    6.6171 H   0  0  0  0  0  0  0  0  0  0  0  0
   -1.0120    0.9377    0.7664 H   0  0  0  0  0  0  0  0  0  0  0  0
    1.2493    1.3515    1.1114 H   0  0  0  0  0  0  0  0  0  0  0  0
    3.0931    1.7374    2.7432 H   0  0  0  0  0  0  0  0  0  0  0  0
   -0.2996   -0.6401    7.6093 H   0  0  0  0  0  0  0  0  0  0  0  0
   -0.4882   -1.0785    5.9449 H   0  0  0  0  0  0  0  0  0  0  0  0
    1.6122   -1.9742    6.9666 H   0  0  0  0  0  0  0  0  0  0  0  0
    1.9009   -1.0142    5.5489 H   0  0  0  0  0  0  0  0  0  0  0  0
    2.2800   -0.2275    8.4549 H   0  0  0  0  0  0  0  0  0  0  0  0
    3.5101   -0.3230    7.2420 H   0  0  0  0  0  0  0  0  0  0  0  0
    2.9111    2.0236    7.7323 H   0  0  0  0  0  0  0  0  0  0  0  0
    3.6610    1.0736    5.4352 H   0  0  0  0  0  0  0  0  0  0  0  0
    3.1846    2.7146    5.5478 H   0  0  0  0  0  0  0  0  0  0  0  0
  1  2  1  0
  1 26  1  0
  1 27  1  0
  1 28  1  0
  3  2  1  1
  3 20  1  0
  3 24  1  0
  3  4  1  0
  4  5  1  0
  4  6  1  0
  4 29  1  1
  5 30  1  0
  5 31  1  0
  5 32  1  0
  6  7  1  0
  6 33  1  0
  6 34  1  0
  7  8  2  0
  7  9  1  0
  9 10  2  0
  9 11  1  0
 11 20  1  0
 11 12  1  0
 11 35  1  1
 12 13  1  0
 13 19  2  0
 13 14  1  0
 14 15  1  0
 14 16  2  0
 15 36  1  0
 16 17  1  0
 16 37  1  0
 17 18  2  0
 17 38  1  0
 18 25  1  0
 18 19  1  0
 19 20  1  0
 20 21  1  1
 21 22  1  0
 21 39  1  0
 21 40  1  0
 22 23  1  0
 22 41  1  0
 22 42  1  0
 23 24  1  0
 23 43  1  0
 23 44  1  0
 24 25  1  0
 24 45  1  1
 25 46  1  0
 25 47  1  0
M  END
>  <i_m_ct_stereo_status>  (218) 
1

>  <s_m_source_file>  (218) 
/var/tmp/pbs.5076255.sched01/tmpm261n1hm/82shs6bvht.sdf

>  <i_m_source_file_index>  (218) 
11

>  <i_lp_mmshare_version>  (218) 
48012

>  <i_f3d_flags>  (218) 
0

>  <s_epik_input>  (218) 
W0NIM11PW0NAXTEoW0NAQF0yMzQpW0NAQEhdKFtDSDJdW0NIMl1bQ0gyXTQpW0NIMl1jNWMzYyhjKFtPSF0pW2NIXVtjSF01KU9bQ0BASF0yQyg9TylDKD1PKVtDSDJdW0NAQEhdMVtDSDNd

>  <s_epik_cmdline>  (218) 
J2VwaWtfcHl0aG9uJywgJy1waHQnLCAnMi4wJywgJy1waCcsICc3LjAnLCAnLXRuJywgJzgnLCAnLW1hJywgJzIwMCcsICctaW1hZScsICc8aW5maWxlLm1hZT4nLCAnLW9tYWUnLCAnPG91dGZpbGUubWFlPic=

>  <r_lp_tautomer_probability>  (218) 
1

>  <r_epik_Ionization_Penalty>  (218) 
0.0052979

>  <r_epik_Ionization_Penalty_Charging>  (218) 
0

>  <r_epik_Ionization_Penalty_Neutral>  (218) 
0.0052979

>  <r_epik_State_Penalty>  (218) 
0.0038667

>  <r_epik_Charging_Adjusted_Penalty>  (218) 
0.0038667

>  <i_epik_Tot_Q>  (218) 
0

>  <i_epik_Tot_abs_Q>  (218) 
0

>  <s_lp_Force_Field>  (218) 
OPLS3e

>  <r_lp_Energy>  (218) 
62.9451

>  <b_lp_Chiralities_Consistent>  (218) 
1

>  <s_lp_Variant>  (218) 
62:0-1

>  <s_i_glide_gridfile>  (218) 
pfpi4k_grid

>  <i_i_glide_lignum>  (218) 
11

>  <i_i_glide_rotatable_bonds>  (218) 
2

>  <r_i_docking_score>  (218) 
-2.48432

>  <r_i_glide_ligand_efficiency>  (218) 
-0.0993728

>  <r_i_glide_ligand_efficiency_sa>  (218) 
-0.290568

>  <r_i_glide_ligand_efficiency_ln>  (218) 
-0.588859

>  <r_i_glide_gscore>  (218) 
-2.48432

>  <r_i_glide_lipo>  (218) 
0

>  <r_i_glide_hbond>  (218) 
0

>  <r_i_glide_metal>  (218) 
-0

>  <r_i_glide_rewards>  (218) 
-1.26569

>  <r_i_glide_evdw>  (218) 
-17.9824

>  <r_i_glide_ecoul>  (218) 
-2.13012

>  <r_i_glide_erotb>  (218) 
0

>  <r_i_glide_esite>  (218) 
0

>  <r_i_glide_emodel>  (218) 
-23.8958

>  <r_i_glide_energy>  (218) 
-20.1125

>  <r_i_glide_einternal>  (218) 
0.00798513

>  <r_i_glide_intrahb_reward>  (218) 
-0

>  <i_i_glide_confnum>  (218) 
1

>  <i_i_glide_posenum>  (218) 
14

>  <r_i_glide_eff_state_penalty>  (218) 
0

>  <ligand_id>  (218) 
62

>  <original_smiles>  (218) 
COC12C(C)CC(=O)C(=O)C3Oc4c(O)ccc5c4C31CCCC2C5

>  <smiles>  (218) 
[H]Oc1c([H])c([H])c2c3c1OC1([H])C(=O)C(=O)C([H])([H])C([H])(C([H])([H])[H])C4(OC([H])([H])[H])C([H])(C2([H])[H])C([H])([H])C([H])([H])C([H])([H])C314

$$$$
62:0:2
     RDKit          3D

 47 51  0  0  1  0  0  0  0  0999 V2000
    2.5377    4.4231    2.5779 C   0  0  0  0  0  0  0  0  0  0  0  0
    3.0470    4.6199    3.8804 O   0  0  0  0  0  0  0  0  0  0  0  0
    2.3626    4.1985    5.0914 C   0  0  2  0  0  0  0  0  0  0  0  0
    2.9860    2.7807    5.4824 C   0  0  1  0  0  0  0  0  0  0  0  0
    2.3767    1.9868    6.6569 C   0  0  0  0  0  0  0  0  0  0  0  0
    3.2024    1.7791    4.2824 C   0  0  0  0  0  0  0  0  0  0  0  0
    1.9968    1.4831    3.3948 C   0  0  0  0  0  0  0  0  0  0  0  0
    2.1777    1.1554    2.2139 O   0  0  0  0  0  0  0  0  0  0  0  0
    0.5821    1.7969    3.8903 C   0  0  0  0  0  0  0  0  0  0  0  0
   -0.1234    0.8338    4.2192 O   0  0  0  0  0  0  0  0  0  0  0  0
    0.0320    3.2596    3.9685 C   0  0  1  0  0  0  0  0  0  0  0  0
   -1.2832    3.2043    4.5380 O   0  0  0  0  0  0  0  0  0  0  0  0
   -1.1533    3.5939    5.8456 C   0  0  0  0  0  0  0  0  0  0  0  0
   -2.0920    3.4686    6.9027 C   0  0  0  0  0  0  0  0  0  0  0  0
   -3.3225    2.9129    6.6542 O   0  0  0  0  0  0  0  0  0  0  0  0
   -1.7302    3.8950    8.1926 C   0  0  0  0  0  0  0  0  0  0  0  0
   -0.4566    4.4290    8.4673 C   0  0  0  0  0  0  0  0  0  0  0  0
    0.4782    4.5733    7.4151 C   0  0  0  0  0  0  0  0  0  0  0  0
    0.0523    4.1709    6.1487 C   0  0  0  0  0  0  0  0  0  0  0  0
    0.8117    4.3215    4.8461 C   0  0  1  0  0  0  0  0  0  0  0  0
    0.4763    5.7771    4.3243 C   0  0  0  0  0  0  0  0  0  0  0  0
    0.9055    6.9134    5.2349 C   0  0  0  0  0  0  0  0  0  0  0  0
    2.3722    6.7360    5.6796 C   0  0  0  0  0  0  0  0  0  0  0  0
    2.6682    5.3010    6.2030 C   0  0  1  0  0  0  0  0  0  0  0  0
    1.9021    5.1144    7.5458 C   0  0  0  0  0  0  0  0  0  0  0  0
    3.1403    4.7426    1.7697 H   0  0  0  0  0  0  0  0  0  0  0  0
    1.4980    4.6355    2.3593 H   0  0  0  0  0  0  0  0  0  0  0  0
    2.4624    3.3937    2.2554 H   0  0  0  0  0  0  0  0  0  0  0  0
    4.0012    2.9897    5.8140 H   0  0  0  0  0  0  0  0  0  0  0  0
    1.3110    1.8108    6.5362 H   0  0  0  0  0  0  0  0  0  0  0  0
    2.5296    2.4615    7.6204 H   0  0  0  0  0  0  0  0  0  0  0  0
    2.8448    1.0060    6.7559 H   0  0  0  0  0  0  0  0  0  0  0  0
    4.0348    2.1356    3.6801 H   0  0  0  0  0  0  0  0  0  0  0  0
    3.5179    0.8085    4.6578 H   0  0  0  0  0  0  0  0  0  0  0  0
   -0.1116    3.6146    2.9457 H   0  0  0  0  0  0  0  0  0  0  0  0
   -3.8872    2.9456    7.4315 H   0  0  0  0  0  0  0  0  0  0  0  0
   -2.4402    3.8021    9.0135 H   0  0  0  0  0  0  0  0  0  0  0  0
   -0.1843    4.7312    9.4630 H   0  0  0  0  0  0  0  0  0  0  0  0
    0.9746    6.0926    3.4022 H   0  0  0  0  0  0  0  0  0  0  0  0
   -0.5681    5.8631    4.0455 H   0  0  0  0  0  0  0  0  0  0  0  0
    0.7944    7.8663    4.7086 H   0  0  0  0  0  0  0  0  0  0  0  0
    0.2337    6.9552    6.0898 H   0  0  0  0  0  0  0  0  0  0  0  0
    3.0313    6.9785    4.8429 H   0  0  0  0  0  0  0  0  0  0  0  0
    2.5898    7.4865    6.4408 H   0  0  0  0  0  0  0  0  0  0  0  0
    3.7331    5.2912    6.4496 H   0  0  0  0  0  0  0  0  0  0  0  0
    1.8587    6.0444    8.1099 H   0  0  0  0  0  0  0  0  0  0  0  0
    2.4562    4.4582    8.2115 H   0  0  0  0  0  0  0  0  0  0  0  0
  1  2  1  0
  1 26  1  0
  1 27  1  0
  1 28  1  0
  3  2  1  6
  3 20  1  0
  3 24  1  0
  3  4  1  0
  4  5  1  0
  4  6  1  0
  4 29  1  1
  5 30  1  0
  5 31  1  0
  5 32  1  0
  6  7  1  0
  6 33  1  0
  6 34  1  0
  7  8  2  0
  7  9  1  0
  9 10  2  0
  9 11  1  0
 11 20  1  0
 11 12  1  0
 11 35  1  6
 12 13  1  0
 13 19  2  0
 13 14  1  0
 14 15  1  0
 14 16  2  0
 15 36  1  0
 16 17  1  0
 16 37  1  0
 17 18  2  0
 17 38  1  0
 18 25  1  0
 18 19  1  0
 19 20  1  0
 20 21  1  6
 21 22  1  0
 21 39  1  0
 21 40  1  0
 22 23  1  0
 22 41  1  0
 22 42  1  0
 23 24  1  0
 23 43  1  0
 23 44  1  0
 24 25  1  0
 24 45  1  1
 25 46  1  0
 25 47  1  0
M  END
>  <i_m_ct_stereo_status>  (219) 
1

>  <s_m_source_file>  (219) 
/var/tmp/pbs.5076255.sched01/tmpm261n1hm/82shs6bvht.sdf

>  <i_m_source_file_index>  (219) 
11

>  <i_lp_mmshare_version>  (219) 
48012

>  <i_f3d_flags>  (219) 
0

>  <s_epik_input>  (219) 
W0NIM11PW0NAXTEoW0NAQF0yMzQpW0NAQEhdKFtDSDJdW0NIMl1bQ0gyXTQpW0NIMl1jNWMzYyhjKFtPSF0pW2NIXVtjSF01KU9bQ0BASF0yQyg9TylDKD1PKVtDSDJdW0NAQEhdMVtDSDNd

>  <s_epik_cmdline>  (219) 
J2VwaWtfcHl0aG9uJywgJy1waHQnLCAnMi4wJywgJy1waCcsICc3LjAnLCAnLXRuJywgJzgnLCAnLW1hJywgJzIwMCcsICctaW1hZScsICc8aW5maWxlLm1hZT4nLCAnLW9tYWUnLCAnPG91dGZpbGUubWFlPic=

>  <r_lp_tautomer_probability>  (219) 
1

>  <r_epik_Ionization_Penalty>  (219) 
0.0052979

>  <r_epik_Ionization_Penalty_Charging>  (219) 
0

>  <r_epik_Ionization_Penalty_Neutral>  (219) 
0.0052979

>  <r_epik_State_Penalty>  (219) 
0.0038667

>  <r_epik_Charging_Adjusted_Penalty>  (219) 
0.0038667

>  <i_epik_Tot_Q>  (219) 
0

>  <i_epik_Tot_abs_Q>  (219) 
0

>  <s_lp_Force_Field>  (219) 
OPLS3e

>  <r_lp_Energy>  (219) 
62.9451

>  <b_lp_Chiralities_Consistent>  (219) 
1

>  <s_lp_Variant>  (219) 
62:0-1

>  <s_i_glide_gridfile>  (219) 
pfpi4k_grid

>  <i_i_glide_lignum>  (219) 
11

>  <i_i_glide_rotatable_bonds>  (219) 
2

>  <r_i_docking_score>  (219) 
-1.97771

>  <r_i_glide_ligand_efficiency>  (219) 
-0.0791085

>  <r_i_glide_ligand_efficiency_sa>  (219) 
-0.231315

>  <r_i_glide_ligand_efficiency_ln>  (219) 
-0.468777

>  <r_i_glide_gscore>  (219) 
-1.97771

>  <r_i_glide_lipo>  (219) 
-0.0768271

>  <r_i_glide_hbond>  (219) 
0

>  <r_i_glide_metal>  (219) 
-0

>  <r_i_glide_rewards>  (219) 
-1.07464

>  <r_i_glide_evdw>  (219) 
-17.2391

>  <r_i_glide_ecoul>  (219) 
-1.29509

>  <r_i_glide_erotb>  (219) 
0

>  <r_i_glide_esite>  (219) 
-0.0335318

>  <r_i_glide_emodel>  (219) 
-9.06397

>  <r_i_glide_energy>  (219) 
-18.5342

>  <r_i_glide_einternal>  (219) 
15.8315

>  <r_i_glide_intrahb_reward>  (219) 
-0

>  <i_i_glide_confnum>  (219) 
1

>  <i_i_glide_posenum>  (219) 
2

>  <r_i_glide_eff_state_penalty>  (219) 
0

>  <ligand_id>  (219) 
62

>  <original_smiles>  (219) 
COC12C(C)CC(=O)C(=O)C3Oc4c(O)ccc5c4C31CCCC2C5

>  <smiles>  (219) 
[H]Oc1c([H])c([H])c2c3c1OC1([H])C(=O)C(=O)C([H])([H])C([H])(C([H])([H])[H])C4(OC([H])([H])[H])C([H])(C2([H])[H])C([H])([H])C([H])([H])C([H])([H])C314

$$$$
63:0:0
     RDKit          3D

 63 67  0  0  1  0  0  0  0  0999 V2000
    8.6856   -3.6187   -1.2332 C   0  0  0  0  0  0  0  0  0  0  0  0
    8.1074   -3.0885    0.0610 C   0  0  0  0  0  0  0  0  0  0  0  0
    8.2394   -1.8960    0.3643 O   0  0  0  0  0  0  0  0  0  0  0  0
    7.3231   -3.9897    0.6779 O   0  0  0  0  0  0  0  0  0  0  0  0
    6.3874   -3.6514    1.6971 C   0  0  2  0  0  0  0  0  0  0  0  0
    5.8751   -4.8863    2.4250 C   0  0  0  0  0  0  0  0  0  0  0  0
    5.9403   -4.9455    3.6371 O   0  0  0  0  0  0  0  0  0  0  0  0
    5.2149   -5.9879    1.5935 C   0  0  1  0  0  0  0  0  0  0  0  0
    3.9683   -6.6579    2.1807 C   0  0  1  0  0  0  0  0  0  0  0  0
    4.1624   -7.9151    3.0258 C   0  0  0  0  0  0  0  0  0  0  0  0
    2.8999   -5.7391    2.8088 C   0  0  0  0  0  0  0  0  0  0  0  0
    2.8067   -4.3680    2.0746 C   0  0  0  0  0  0  0  0  0  0  0  0
    3.4697   -4.3063    0.6640 C   0  0  2  0  0  0  0  0  0  0  0  0
    4.3430   -5.5506    0.4281 C   0  0  1  0  0  0  0  0  0  0  0  0
    5.0306   -5.4817   -0.9034 C   0  0  0  0  0  0  0  0  0  0  0  0
    4.6973   -4.2893   -1.8064 C   0  0  0  0  0  0  0  0  0  0  0  0
    4.9108   -2.9764   -1.1322 C   0  0  1  0  0  0  0  0  0  0  0  0
    4.3309   -1.8495   -1.9782 C   0  0  0  0  0  0  0  0  0  0  0  0
    5.1740   -0.6027   -1.8174 C   0  0  0  0  0  0  0  0  0  0  0  0
    4.0467   -2.0932   -3.4811 C   0  0  0  0  0  0  0  0  0  0  0  0
    3.0042   -1.6148   -1.2959 C   0  0  0  0  0  0  0  0  0  0  0  0
    3.2426   -1.8108    0.1902 C   0  0  0  0  0  0  0  0  0  0  0  0
    4.2373   -2.9641    0.3021 C   0  0  1  0  0  0  0  0  0  0  0  0
    5.3377   -2.5793    1.3267 C   0  0  1  0  0  0  0  0  0  0  0  0
    4.8398   -2.0287    2.5514 O   0  0  0  0  0  0  0  0  0  0  0  0
    5.0549   -0.7603    2.8849 C   0  0  0  0  0  0  0  0  0  0  0  0
    4.4419   -0.3411    4.1977 C   0  0  0  0  0  0  0  0  0  0  0  0
    5.6741    0.0604    2.1885 O   0  0  0  0  0  0  0  0  0  0  0  0
    3.6387   -6.8889    0.7235 C   0  0  0  0  0  0  0  0  0  0  0  0
    7.9030   -3.8778   -1.9396 H   0  0  0  0  0  0  0  0  0  0  0  0
    9.4044   -4.4302   -1.0771 H   0  0  0  0  0  0  0  0  0  0  0  0
    9.1276   -2.7846   -1.7509 H   0  0  0  0  0  0  0  0  0  0  0  0
    6.9510   -3.0879    2.4574 H   0  0  0  0  0  0  0  0  0  0  0  0
    5.9507   -6.7461    1.2906 H   0  0  0  0  0  0  0  0  0  0  0  0
    3.2304   -8.4693    3.1425 H   0  0  0  0  0  0  0  0  0  0  0  0
    4.5584   -7.6787    4.0149 H   0  0  0  0  0  0  0  0  0  0  0  0
    4.8732   -8.5906    2.5409 H   0  0  0  0  0  0  0  0  0  0  0  0
    1.9307   -6.2311    2.7449 H   0  0  0  0  0  0  0  0  0  0  0  0
    3.0944   -5.5891    3.8652 H   0  0  0  0  0  0  0  0  0  0  0  0
    1.7742   -4.0433    2.0171 H   0  0  0  0  0  0  0  0  0  0  0  0
    3.2647   -3.6518    2.7560 H   0  0  0  0  0  0  0  0  0  0  0  0
    2.6314   -4.3835   -0.0433 H   0  0  0  0  0  0  0  0  0  0  0  0
    6.1080   -5.5011   -0.7377 H   0  0  0  0  0  0  0  0  0  0  0  0
    4.8336   -6.3969   -1.4351 H   0  0  0  0  0  0  0  0  0  0  0  0
    5.2664   -4.3957   -2.7305 H   0  0  0  0  0  0  0  0  0  0  0  0
    3.6334   -4.2070   -2.0360 H   0  0  0  0  0  0  0  0  0  0  0  0
    5.9908   -2.8083   -1.1295 H   0  0  0  0  0  0  0  0  0  0  0  0
    4.6987    0.2186   -2.3411 H   0  0  0  0  0  0  0  0  0  0  0  0
    6.1633   -0.7955   -2.2068 H   0  0  0  0  0  0  0  0  0  0  0  0
    5.3076   -0.3117   -0.7752 H   0  0  0  0  0  0  0  0  0  0  0  0
    3.6264   -1.2038   -3.9466 H   0  0  0  0  0  0  0  0  0  0  0  0
    3.3101   -2.8822   -3.6706 H   0  0  0  0  0  0  0  0  0  0  0  0
    4.9633   -2.3533   -4.0117 H   0  0  0  0  0  0  0  0  0  0  0  0
    2.6101   -0.6635   -1.5501 H   0  0  0  0  0  0  0  0  0  0  0  0
    2.2755   -2.3609   -1.6181 H   0  0  0  0  0  0  0  0  0  0  0  0
    3.6400   -0.8750    0.5834 H   0  0  0  0  0  0  0  0  0  0  0  0
    2.3114   -1.9949    0.7300 H   0  0  0  0  0  0  0  0  0  0  0  0
    5.8675   -1.7826    0.8246 H   0  0  0  0  0  0  0  0  0  0  0  0
    4.8045   -0.9850    5.0006 H   0  0  0  0  0  0  0  0  0  0  0  0
    3.3563   -0.4242    4.1272 H   0  0  0  0  0  0  0  0  0  0  0  0
    4.6911    0.6937    4.4354 H   0  0  0  0  0  0  0  0  0  0  0  0
    4.1456   -7.7656    0.2913 H   0  0  0  0  0  0  0  0  0  0  0  0
    2.5732   -6.8809    0.5250 H   0  0  0  0  0  0  0  0  0  0  0  0
  1  2  1  0
  1 30  1  0
  1 31  1  0
  1 32  1  0
  2  3  2  0
  2  4  1  0
  4  5  1  0
  5 24  1  0
  5  6  1  0
  5 33  1  1
  6  7  2  0
  6  8  1  0
  8 14  1  0
  8  9  1  0
  8 34  1  6
  9 29  1  0
  9 10  1  1
  9 11  1  0
 10 35  1  0
 10 36  1  0
 10 37  1  0
 11 12  1  0
 11 38  1  0
 11 39  1  0
 12 13  1  0
 12 40  1  0
 12 41  1  0
 13 23  1  0
 13 14  1  0
 13 42  1  6
 14 15  1  6
 14 29  1  0
 15 16  1  0
 15 43  1  0
 15 44  1  0
 16 17  1  0
 16 45  1  0
 16 46  1  0
 17 23  1  0
 17 18  1  0
 17 47  1  1
 18 19  1  0
 18 20  1  0
 18 21  1  0
 19 48  1  0
 19 49  1  0
 19 50  1  0
 20 51  1  0
 20 52  1  0
 20 53  1  0
 21 22  1  0
 21 54  1  0
 21 55  1  0
 23 22  1  6
 22 56  1  0
 22 57  1  0
 23 24  1  0
 24 25  1  0
 24 58  1  6
 25 26  1  0
 26 27  1  0
 26 28  2  0
 27 59  1  0
 27 60  1  0
 27 61  1  0
 29 62  1  0
 29 63  1  0
M  END
>  <i_m_ct_stereo_status>  (220) 
1

>  <s_m_source_file>  (220) 
/var/tmp/pbs.5076255.sched01/tmpm261n1hm/82shs6bvht.sdf

>  <i_m_source_file_index>  (220) 
12

>  <i_lp_mmshare_version>  (220) 
48012

>  <i_f3d_flags>  (220) 
0

>  <s_epik_input>  (220) 
W0NIM11DKD1PKU9bQ0BIXShDMT1PKVtDQEhdKE9DKD1PKVtDSDNdKVtDQEBdMihbQ0BASF0oW0NIMl1bQ0gyXTMpQyhbQ0gzXSkoW0NIM10pW0NIMl1bQ0gyXTIpW0NAQEhdNFtDSDJdW0NIMl1bQ0BAXShbQ0BIXTFbQ0BdMzQ1KShbQ0gzXSlbQ0gyXTU=

>  <s_epik_cmdline>  (220) 
J2VwaWtfcHl0aG9uJywgJy1waHQnLCAnMi4wJywgJy1waCcsICc3LjAnLCAnLXRuJywgJzgnLCAnLW1hJywgJzIwMCcsICctaW1hZScsICc8aW5maWxlLm1hZT4nLCAnLW9tYWUnLCAnPG91dGZpbGUubWFlPic=

>  <r_lp_tautomer_probability>  (220) 
1

>  <r_epik_Ionization_Penalty>  (220) 
1.25276e-11

>  <r_epik_Ionization_Penalty_Charging>  (220) 
0

>  <r_epik_Ionization_Penalty_Neutral>  (220) 
1.25276e-11

>  <r_epik_State_Penalty>  (220) 
-0

>  <r_epik_Charging_Adjusted_Penalty>  (220) 
0

>  <i_epik_Tot_Q>  (220) 
0

>  <i_epik_Tot_abs_Q>  (220) 
0

>  <s_epik_Chemistry_Notes>  (220) 
This compound has an ester and may undergo hydrolysis at high or low pH.

>  <s_lp_Force_Field>  (220) 
OPLS3e

>  <r_lp_Energy>  (220) 
52.1348

>  <b_lp_Chiralities_Consistent>  (220) 
1

>  <s_lp_Variant>  (220) 
63:0-1

>  <s_i_glide_gridfile>  (220) 
pfpi4k_grid

>  <i_i_glide_lignum>  (220) 
12

>  <i_i_glide_rotatable_bonds>  (220) 
4

>  <r_i_docking_score>  (220) 
-2.34216

>  <r_i_glide_ligand_efficiency>  (220) 
-0.0807643

>  <r_i_glide_ligand_efficiency_sa>  (220) 
-0.248134

>  <r_i_glide_ligand_efficiency_ln>  (220) 
-0.536296

>  <r_i_glide_gscore>  (220) 
-2.34216

>  <r_i_glide_lipo>  (220) 
-0.581055

>  <r_i_glide_hbond>  (220) 
-0.271788

>  <r_i_glide_metal>  (220) 
-0

>  <r_i_glide_rewards>  (220) 
-1.14418

>  <r_i_glide_evdw>  (220) 
-5.62493

>  <r_i_glide_ecoul>  (220) 
-2.04088

>  <r_i_glide_erotb>  (220) 
0.242241

>  <r_i_glide_esite>  (220) 
0

>  <r_i_glide_emodel>  (220) 
-5.89323

>  <r_i_glide_energy>  (220) 
-7.66581

>  <r_i_glide_einternal>  (220) 
2.25274

>  <r_i_glide_intrahb_reward>  (220) 
-0

>  <i_i_glide_confnum>  (220) 
1

>  <i_i_glide_posenum>  (220) 
32

>  <r_i_glide_eff_state_penalty>  (220) 
0

>  <ligand_id>  (220) 
63

>  <original_smiles>  (220) 
CC(=O)OC1C(=O)C2C3(C)CCC4C2(CCC2C(C)(C)CCC24C1OC(C)=O)C3

>  <smiles>  (220) 
[H]C([H])([H])C(=O)OC1([H])C(=O)C2([H])C3(C([H])([H])[H])C([H])([H])C([H])([H])C4([H])C2(C([H])([H])C([H])([H])C2([H])C(C([H])([H])[H])(C([H])([H])[H])C([H])([H])C([H])([H])C24C1([H])OC(=O)C([H])([H])[H])C3([H])[H]

$$$$
63:0:1
     RDKit          3D

 63 67  0  0  1  0  0  0  0  0999 V2000
    7.0395   -1.2621    0.9719 C   0  0  0  0  0  0  0  0  0  0  0  0
    5.9961   -1.4137    2.0678 C   0  0  0  0  0  0  0  0  0  0  0  0
    5.4038   -0.4483    2.5374 O   0  0  0  0  0  0  0  0  0  0  0  0
    5.7674   -2.7116    2.3569 O   0  0  0  0  0  0  0  0  0  0  0  0
    4.5232   -3.1592    2.8713 C   0  0  2  0  0  0  0  0  0  0  0  0
    4.6052   -4.5668    3.4849 C   0  0  0  0  0  0  0  0  0  0  0  0
    4.0240   -4.7709    4.5487 O   0  0  0  0  0  0  0  0  0  0  0  0
    5.3034   -5.6649    2.6916 C   0  0  1  0  0  0  0  0  0  0  0  0
    4.6804   -7.0882    2.6654 C   0  0  1  0  0  0  0  0  0  0  0  0
    5.1312   -8.0688    3.7460 C   0  0  0  0  0  0  0  0  0  0  0  0
    3.1575   -7.1891    2.4531 C   0  0  0  0  0  0  0  0  0  0  0  0
    2.6229   -6.0835    1.4991 C   0  0  0  0  0  0  0  0  0  0  0  0
    3.7185   -5.3696    0.6455 C   0  0  2  0  0  0  0  0  0  0  0  0
    5.1507   -5.6902    1.1598 C   0  0  1  0  0  0  0  0  0  0  0  0
    6.2444   -4.9757    0.3684 C   0  0  0  0  0  0  0  0  0  0  0  0
    5.7300   -4.2366   -0.8621 C   0  0  0  0  0  0  0  0  0  0  0  0
    4.6099   -3.2371   -0.5176 C   0  0  1  0  0  0  0  0  0  0  0  0
    3.9421   -2.5456   -1.7342 C   0  0  0  0  0  0  0  0  0  0  0  0
    3.6818   -1.0591   -1.4401 C   0  0  0  0  0  0  0  0  0  0  0  0
    4.7538   -2.6056   -3.0451 C   0  0  0  0  0  0  0  0  0  0  0  0
    2.6292   -3.2995   -1.8498 C   0  0  0  0  0  0  0  0  0  0  0  0
    2.2213   -3.5845   -0.4010 C   0  0  0  0  0  0  0  0  0  0  0  0
    3.4981   -3.8362    0.4281 C   0  0  1  0  0  0  0  0  0  0  0  0
    3.4176   -2.9996    1.7725 C   0  0  1  0  0  0  0  0  0  0  0  0
    2.1564   -3.0559    2.4422 O   0  0  0  0  0  0  0  0  0  0  0  0
    1.4952   -1.9733    2.9421 C   0  0  0  0  0  0  0  0  0  0  0  0
    2.0178   -0.6029    2.5067 C   0  0  0  0  0  0  0  0  0  0  0  0
    0.5288   -2.0625    3.6856 O   0  0  0  0  0  0  0  0  0  0  0  0
    5.4089   -7.1971    1.3325 C   0  0  0  0  0  0  0  0  0  0  0  0
    6.7552   -1.8729    0.1215 H   0  0  0  0  0  0  0  0  0  0  0  0
    8.0402   -1.5376    1.2829 H   0  0  0  0  0  0  0  0  0  0  0  0
    7.0702   -0.2396    0.6067 H   0  0  0  0  0  0  0  0  0  0  0  0
    4.2473   -2.5100    3.7046 H   0  0  0  0  0  0  0  0  0  0  0  0
    6.3612   -5.7312    2.9614 H   0  0  0  0  0  0  0  0  0  0  0  0
    4.8564   -9.0936    3.4963 H   0  0  0  0  0  0  0  0  0  0  0  0
    4.7018   -7.8222    4.7161 H   0  0  0  0  0  0  0  0  0  0  0  0
    6.2175   -8.0422    3.8512 H   0  0  0  0  0  0  0  0  0  0  0  0
    2.9174   -8.1622    2.0244 H   0  0  0  0  0  0  0  0  0  0  0  0
    2.6315   -7.1511    3.4068 H   0  0  0  0  0  0  0  0  0  0  0  0
    1.8510   -6.4971    0.8582 H   0  0  0  0  0  0  0  0  0  0  0  0
    2.1046   -5.3773    2.1411 H   0  0  0  0  0  0  0  0  0  0  0  0
    3.6327   -5.8488   -0.3331 H   0  0  0  0  0  0  0  0  0  0  0  0
    6.8136   -4.2964    0.9980 H   0  0  0  0  0  0  0  0  0  0  0  0
    6.9969   -5.6990    0.0760 H   0  0  0  0  0  0  0  0  0  0  0  0
    6.5569   -3.7024   -1.3162 H   0  0  0  0  0  0  0  0  0  0  0  0
    5.3787   -4.9637   -1.5912 H   0  0  0  0  0  0  0  0  0  0  0  0
    5.0900   -2.4080   -0.0264 H   0  0  0  0  0  0  0  0  0  0  0  0
    3.1076   -0.6190   -2.2549 H   0  0  0  0  0  0  0  0  0  0  0  0
    4.6099   -0.4924   -1.3426 H   0  0  0  0  0  0  0  0  0  0  0  0
    3.1149   -0.9041   -0.5225 H   0  0  0  0  0  0  0  0  0  0  0  0
    4.2402   -2.0787   -3.8462 H   0  0  0  0  0  0  0  0  0  0  0  0
    4.9339   -3.6253   -3.3908 H   0  0  0  0  0  0  0  0  0  0  0  0
    5.7234   -2.1310   -2.9046 H   0  0  0  0  0  0  0  0  0  0  0  0
    1.8666   -2.7438   -2.4101 H   0  0  0  0  0  0  0  0  0  0  0  0
    2.7981   -4.2211   -2.3617 H   0  0  0  0  0  0  0  0  0  0  0  0
    1.7705   -2.6773   -0.0121 H   0  0  0  0  0  0  0  0  0  0  0  0
    1.4937   -4.3986   -0.3671 H   0  0  0  0  0  0  0  0  0  0  0  0
    3.5171   -1.9894    1.3918 H   0  0  0  0  0  0  0  0  0  0  0  0
    2.0203   -0.5148    1.4193 H   0  0  0  0  0  0  0  0  0  0  0  0
    3.0258   -0.4543    2.8899 H   0  0  0  0  0  0  0  0  0  0  0  0
    1.4033    0.2113    2.9003 H   0  0  0  0  0  0  0  0  0  0  0  0
    6.4665   -7.4686    1.4236 H   0  0  0  0  0  0  0  0  0  0  0  0
    4.8985   -7.8010    0.5842 H   0  0  0  0  0  0  0  0  0  0  0  0
  1  2  1  0
  1 30  1  0
  1 31  1  0
  1 32  1  0
  2  3  2  0
  2  4  1  0
  4  5  1  0
  5 24  1  0
  5  6  1  0
  5 33  1  1
  6  7  2  0
  6  8  1  0
  8 14  1  0
  8  9  1  0
  8 34  1  6
  9 29  1  0
  9 10  1  1
  9 11  1  0
 10 35  1  0
 10 36  1  0
 10 37  1  0
 11 12  1  0
 11 38  1  0
 11 39  1  0
 12 13  1  0
 12 40  1  0
 12 41  1  0
 13 23  1  0
 13 14  1  0
 13 42  1  6
 14 15  1  6
 14 29  1  0
 15 16  1  0
 15 43  1  0
 15 44  1  0
 16 17  1  0
 16 45  1  0
 16 46  1  0
 17 23  1  0
 17 18  1  0
 17 47  1  1
 18 19  1  0
 18 20  1  0
 18 21  1  0
 19 48  1  0
 19 49  1  0
 19 50  1  0
 20 51  1  0
 20 52  1  0
 20 53  1  0
 21 22  1  0
 21 54  1  0
 21 55  1  0
 23 22  1  6
 22 56  1  0
 22 57  1  0
 23 24  1  0
 24 25  1  0
 24 58  1  6
 25 26  1  0
 26 27  1  0
 26 28  2  0
 27 59  1  0
 27 60  1  0
 27 61  1  0
 29 62  1  0
 29 63  1  0
M  END
>  <i_m_ct_stereo_status>  (221) 
1

>  <s_m_source_file>  (221) 
/var/tmp/pbs.5076255.sched01/tmpm261n1hm/82shs6bvht.sdf

>  <i_m_source_file_index>  (221) 
12

>  <i_lp_mmshare_version>  (221) 
48012

>  <i_f3d_flags>  (221) 
0

>  <s_epik_input>  (221) 
W0NIM11DKD1PKU9bQ0BIXShDMT1PKVtDQEhdKE9DKD1PKVtDSDNdKVtDQEBdMihbQ0BASF0oW0NIMl1bQ0gyXTMpQyhbQ0gzXSkoW0NIM10pW0NIMl1bQ0gyXTIpW0NAQEhdNFtDSDJdW0NIMl1bQ0BAXShbQ0BIXTFbQ0BdMzQ1KShbQ0gzXSlbQ0gyXTU=

>  <s_epik_cmdline>  (221) 
J2VwaWtfcHl0aG9uJywgJy1waHQnLCAnMi4wJywgJy1waCcsICc3LjAnLCAnLXRuJywgJzgnLCAnLW1hJywgJzIwMCcsICctaW1hZScsICc8aW5maWxlLm1hZT4nLCAnLW9tYWUnLCAnPG91dGZpbGUubWFlPic=

>  <r_lp_tautomer_probability>  (221) 
1

>  <r_epik_Ionization_Penalty>  (221) 
1.25276e-11

>  <r_epik_Ionization_Penalty_Charging>  (221) 
0

>  <r_epik_Ionization_Penalty_Neutral>  (221) 
1.25276e-11

>  <r_epik_State_Penalty>  (221) 
-0

>  <r_epik_Charging_Adjusted_Penalty>  (221) 
0

>  <i_epik_Tot_Q>  (221) 
0

>  <i_epik_Tot_abs_Q>  (221) 
0

>  <s_epik_Chemistry_Notes>  (221) 
This compound has an ester and may undergo hydrolysis at high or low pH.

>  <s_lp_Force_Field>  (221) 
OPLS3e

>  <r_lp_Energy>  (221) 
52.1348

>  <b_lp_Chiralities_Consistent>  (221) 
1

>  <s_lp_Variant>  (221) 
63:0-1

>  <s_i_glide_gridfile>  (221) 
pfpi4k_grid

>  <i_i_glide_lignum>  (221) 
12

>  <i_i_glide_rotatable_bonds>  (221) 
4

>  <r_i_docking_score>  (221) 
-2.13444

>  <r_i_glide_ligand_efficiency>  (221) 
-0.0736012

>  <r_i_glide_ligand_efficiency_sa>  (221) 
-0.226126

>  <r_i_glide_ligand_efficiency_ln>  (221) 
-0.488732

>  <r_i_glide_gscore>  (221) 
-2.13444

>  <r_i_glide_lipo>  (221) 
-0.598954

>  <r_i_glide_hbond>  (221) 
-0.0357884

>  <r_i_glide_metal>  (221) 
-0

>  <r_i_glide_rewards>  (221) 
-0.886051

>  <r_i_glide_evdw>  (221) 
-17.1524

>  <r_i_glide_ecoul>  (221) 
0.0446555

>  <r_i_glide_erotb>  (221) 
0.242241

>  <r_i_glide_esite>  (221) 
-0.00496171

>  <r_i_glide_emodel>  (221) 
-10.3197

>  <r_i_glide_energy>  (221) 
-17.1078

>  <r_i_glide_einternal>  (221) 
11.4276

>  <r_i_glide_intrahb_reward>  (221) 
-0

>  <i_i_glide_confnum>  (221) 
4

>  <i_i_glide_posenum>  (221) 
23

>  <r_i_glide_eff_state_penalty>  (221) 
0

>  <ligand_id>  (221) 
63

>  <original_smiles>  (221) 
CC(=O)OC1C(=O)C2C3(C)CCC4C2(CCC2C(C)(C)CCC24C1OC(C)=O)C3

>  <smiles>  (221) 
[H]C([H])([H])C(=O)OC1([H])C(=O)C2([H])C3(C([H])([H])[H])C([H])([H])C([H])([H])C4([H])C2(C([H])([H])C([H])([H])C2([H])C(C([H])([H])[H])(C([H])([H])[H])C([H])([H])C([H])([H])C24C1([H])OC(=O)C([H])([H])[H])C3([H])[H]

$$$$
63:0:2
     RDKit          3D

 63 67  0  0  1  0  0  0  0  0999 V2000
    8.5016   -1.7724    0.3991 C   0  0  0  0  0  0  0  0  0  0  0  0
    7.0683   -1.5534    0.8792 C   0  0  0  0  0  0  0  0  0  0  0  0
    6.4109   -0.5975    0.4917 O   0  0  0  0  0  0  0  0  0  0  0  0
    6.6185   -2.5764    1.6751 O   0  0  0  0  0  0  0  0  0  0  0  0
    5.3733   -2.5224    2.3701 C   0  0  2  0  0  0  0  0  0  0  0  0
    5.2090   -3.7472    3.3211 C   0  0  0  0  0  0  0  0  0  0  0  0
    4.9022   -3.4958    4.4890 O   0  0  0  0  0  0  0  0  0  0  0  0
    5.4140   -5.1441    2.7758 C   0  0  1  0  0  0  0  0  0  0  0  0
    4.4370   -6.2695    3.2554 C   0  0  1  0  0  0  0  0  0  0  0  0
    4.8453   -7.0854    4.4730 C   0  0  0  0  0  0  0  0  0  0  0  0
    2.9449   -5.9136    3.3220 C   0  0  0  0  0  0  0  0  0  0  0  0
    2.5203   -4.9316    2.2023 C   0  0  0  0  0  0  0  0  0  0  0  0
    3.5368   -4.8022    1.0101 C   0  0  2  0  0  0  0  0  0  0  0  0
    4.8961   -5.4465    1.3635 C   0  0  1  0  0  0  0  0  0  0  0  0
    5.9223   -5.2875    0.2347 C   0  0  0  0  0  0  0  0  0  0  0  0
    5.3382   -4.6956   -1.0414 C   0  0  0  0  0  0  0  0  0  0  0  0
    4.6756   -3.3528   -0.8118 C   0  0  1  0  0  0  0  0  0  0  0  0
    3.9623   -2.7731   -2.0609 C   0  0  0  0  0  0  0  0  0  0  0  0
    4.1789   -1.2428   -2.1444 C   0  0  0  0  0  0  0  0  0  0  0  0
    4.3994   -3.3646   -3.4237 C   0  0  0  0  0  0  0  0  0  0  0  0
    2.5125   -3.0939   -1.7480 C   0  0  0  0  0  0  0  0  0  0  0  0
    2.4143   -2.9092   -0.2400 C   0  0  0  0  0  0  0  0  0  0  0  0
    3.7091   -3.3599    0.4232 C   0  0  1  0  0  0  0  0  0  0  0  0
    4.1369   -2.2678    1.4723 C   0  0  1  0  0  0  0  0  0  0  0  0
    3.0636   -1.8149    2.3061 O   0  0  0  0  0  0  0  0  0  0  0  0
    2.7482   -0.5049    2.4079 C   0  0  0  0  0  0  0  0  0  0  0  0
    1.5177   -0.2723    3.2756 C   0  0  0  0  0  0  0  0  0  0  0  0
    3.3430    0.4279    1.8788 O   0  0  0  0  0  0  0  0  0  0  0  0
    4.7755   -6.8849    1.8984 C   0  0  0  0  0  0  0  0  0  0  0  0
    8.5858   -2.7269   -0.1113 H   0  0  0  0  0  0  0  0  0  0  0  0
    9.2224   -1.7280    1.2049 H   0  0  0  0  0  0  0  0  0  0  0  0
    8.7875   -1.0054   -0.3005 H   0  0  0  0  0  0  0  0  0  0  0  0
    5.4657   -1.6626    3.0321 H   0  0  0  0  0  0  0  0  0  0  0  0
    6.4392   -5.4852    2.8914 H   0  0  0  0  0  0  0  0  0  0  0  0
    4.2510   -7.9954    4.5656 H   0  0  0  0  0  0  0  0  0  0  0  0
    4.7434   -6.5160    5.3937 H   0  0  0  0  0  0  0  0  0  0  0  0
    5.8879   -7.3957    4.3944 H   0  0  0  0  0  0  0  0  0  0  0  0
    2.3467   -6.8267    3.2228 H   0  0  0  0  0  0  0  0  0  0  0  0
    2.6862   -5.4991    4.3009 H   0  0  0  0  0  0  0  0  0  0  0  0
    1.5255   -5.1947    1.8220 H   0  0  0  0  0  0  0  0  0  0  0  0
    2.3718   -3.9816    2.6940 H   0  0  0  0  0  0  0  0  0  0  0  0
    3.0966   -5.4170    0.2272 H   0  0  0  0  0  0  0  0  0  0  0  0
    6.7745   -4.6986    0.5693 H   0  0  0  0  0  0  0  0  0  0  0  0
    6.3608   -6.2494    0.0227 H   0  0  0  0  0  0  0  0  0  0  0  0
    6.1173   -4.4401   -1.7389 H   0  0  0  0  0  0  0  0  0  0  0  0
    4.6573   -5.4226   -1.4899 H   0  0  0  0  0  0  0  0  0  0  0  0
    5.5028   -2.7011   -0.6643 H   0  0  0  0  0  0  0  0  0  0  0  0
    3.5811   -0.8019   -2.9380 H   0  0  0  0  0  0  0  0  0  0  0  0
    5.2244   -1.0020   -2.3472 H   0  0  0  0  0  0  0  0  0  0  0  0
    3.9134   -0.7288   -1.2195 H   0  0  0  0  0  0  0  0  0  0  0  0
    3.8489   -2.8936   -4.2437 H   0  0  0  0  0  0  0  0  0  0  0  0
    4.2145   -4.4304   -3.5077 H   0  0  0  0  0  0  0  0  0  0  0  0
    5.4625   -3.1954   -3.6054 H   0  0  0  0  0  0  0  0  0  0  0  0
    1.8147   -2.4766   -2.3112 H   0  0  0  0  0  0  0  0  0  0  0  0
    2.2896   -4.1335   -1.9786 H   0  0  0  0  0  0  0  0  0  0  0  0
    2.3003   -1.8634    0.0021 H   0  0  0  0  0  0  0  0  0  0  0  0
    1.5639   -3.4381    0.1339 H   0  0  0  0  0  0  0  0  0  0  0  0
    4.3378   -1.4187    0.8358 H   0  0  0  0  0  0  0  0  0  0  0  0
    1.6790   -0.7060    4.2612 H   0  0  0  0  0  0  0  0  0  0  0  0
    0.6579   -0.7500    2.8119 H   0  0  0  0  0  0  0  0  0  0  0  0
    1.3149    0.7995    3.3813 H   0  0  0  0  0  0  0  0  0  0  0  0
    5.7039   -7.4629    1.8928 H   0  0  0  0  0  0  0  0  0  0  0  0
    3.9580   -7.4525    1.4385 H   0  0  0  0  0  0  0  0  0  0  0  0
  1  2  1  0
  1 30  1  0
  1 31  1  0
  1 32  1  0
  2  3  2  0
  2  4  1  0
  4  5  1  0
  5 24  1  0
  5  6  1  0
  5 33  1  1
  6  7  2  0
  6  8  1  0
  8 14  1  0
  8  9  1  0
  8 34  1  6
  9 29  1  0
  9 10  1  1
  9 11  1  0
 10 35  1  0
 10 36  1  0
 10 37  1  0
 11 12  1  0
 11 38  1  0
 11 39  1  0
 12 13  1  0
 12 40  1  0
 12 41  1  0
 13 23  1  0
 13 14  1  0
 13 42  1  6
 14 15  1  6
 14 29  1  0
 15 16  1  0
 15 43  1  0
 15 44  1  0
 16 17  1  0
 16 45  1  0
 16 46  1  0
 17 23  1  0
 17 18  1  0
 17 47  1  1
 18 19  1  0
 18 20  1  0
 18 21  1  0
 19 48  1  0
 19 49  1  0
 19 50  1  0
 20 51  1  0
 20 52  1  0
 20 53  1  0
 21 22  1  0
 21 54  1  0
 21 55  1  0
 23 22  1  6
 22 56  1  0
 22 57  1  0
 23 24  1  0
 24 25  1  0
 24 58  1  6
 25 26  1  0
 26 27  1  0
 26 28  2  0
 27 59  1  0
 27 60  1  0
 27 61  1  0
 29 62  1  0
 29 63  1  0
M  END
>  <i_m_ct_stereo_status>  (222) 
1

>  <s_m_source_file>  (222) 
/var/tmp/pbs.5076255.sched01/tmpm261n1hm/82shs6bvht.sdf

>  <i_m_source_file_index>  (222) 
12

>  <i_lp_mmshare_version>  (222) 
48012

>  <i_f3d_flags>  (222) 
0

>  <s_epik_input>  (222) 
W0NIM11DKD1PKU9bQ0BIXShDMT1PKVtDQEhdKE9DKD1PKVtDSDNdKVtDQEBdMihbQ0BASF0oW0NIMl1bQ0gyXTMpQyhbQ0gzXSkoW0NIM10pW0NIMl1bQ0gyXTIpW0NAQEhdNFtDSDJdW0NIMl1bQ0BAXShbQ0BIXTFbQ0BdMzQ1KShbQ0gzXSlbQ0gyXTU=

>  <s_epik_cmdline>  (222) 
J2VwaWtfcHl0aG9uJywgJy1waHQnLCAnMi4wJywgJy1waCcsICc3LjAnLCAnLXRuJywgJzgnLCAnLW1hJywgJzIwMCcsICctaW1hZScsICc8aW5maWxlLm1hZT4nLCAnLW9tYWUnLCAnPG91dGZpbGUubWFlPic=

>  <r_lp_tautomer_probability>  (222) 
1

>  <r_epik_Ionization_Penalty>  (222) 
1.25276e-11

>  <r_epik_Ionization_Penalty_Charging>  (222) 
0

>  <r_epik_Ionization_Penalty_Neutral>  (222) 
1.25276e-11

>  <r_epik_State_Penalty>  (222) 
-0

>  <r_epik_Charging_Adjusted_Penalty>  (222) 
0

>  <i_epik_Tot_Q>  (222) 
0

>  <i_epik_Tot_abs_Q>  (222) 
0

>  <s_epik_Chemistry_Notes>  (222) 
This compound has an ester and may undergo hydrolysis at high or low pH.

>  <s_lp_Force_Field>  (222) 
OPLS3e

>  <r_lp_Energy>  (222) 
52.1348

>  <b_lp_Chiralities_Consistent>  (222) 
1

>  <s_lp_Variant>  (222) 
63:0-1

>  <s_i_glide_gridfile>  (222) 
pfpi4k_grid

>  <i_i_glide_lignum>  (222) 
12

>  <i_i_glide_rotatable_bonds>  (222) 
4

>  <r_i_docking_score>  (222) 
-1.52744

>  <r_i_glide_ligand_efficiency>  (222) 
-0.0526704

>  <r_i_glide_ligand_efficiency_sa>  (222) 
-0.16182

>  <r_i_glide_ligand_efficiency_ln>  (222) 
-0.349745

>  <r_i_glide_gscore>  (222) 
-1.52744

>  <r_i_glide_lipo>  (222) 
-0.519242

>  <r_i_glide_hbond>  (222) 
0

>  <r_i_glide_metal>  (222) 
-0

>  <r_i_glide_rewards>  (222) 
-0.707628

>  <r_i_glide_evdw>  (222) 
-11.2328

>  <r_i_glide_ecoul>  (222) 
0.33359

>  <r_i_glide_erotb>  (222) 
0.242241

>  <r_i_glide_esite>  (222) 
-0.03121

>  <r_i_glide_emodel>  (222) 
-8.70705

>  <r_i_glide_energy>  (222) 
-10.8992

>  <r_i_glide_einternal>  (222) 
3.48014

>  <r_i_glide_intrahb_reward>  (222) 
-0

>  <i_i_glide_confnum>  (222) 
3

>  <i_i_glide_posenum>  (222) 
40

>  <r_i_glide_eff_state_penalty>  (222) 
0

>  <ligand_id>  (222) 
63

>  <original_smiles>  (222) 
CC(=O)OC1C(=O)C2C3(C)CCC4C2(CCC2C(C)(C)CCC24C1OC(C)=O)C3

>  <smiles>  (222) 
[H]C([H])([H])C(=O)OC1([H])C(=O)C2([H])C3(C([H])([H])[H])C([H])([H])C([H])([H])C4([H])C2(C([H])([H])C([H])([H])C2([H])C(C([H])([H])[H])(C([H])([H])[H])C([H])([H])C([H])([H])C24C1([H])OC(=O)C([H])([H])[H])C3([H])[H]

$$$$
64:0:0
     RDKit          3D

 67 70  0  0  1  0  0  0  0  0999 V2000
    6.6639   -9.8677    0.9924 C   0  0  0  0  0  0  0  0  0  0  0  0
    5.3028   -9.2717    1.3275 C   0  0  2  0  0  0  0  0  0  0  0  0
    5.4445   -7.9731    2.1441 C   0  0  0  0  0  0  0  0  0  0  0  0
    4.1460   -7.4084    2.4995 N   0  0  0  0  0  0  0  0  0  0  0  0
    3.5092   -6.6881    1.3812 C   0  0  0  0  0  0  0  0  0  0  0  0
    3.4844   -5.1850    1.6799 C   0  0  0  0  0  0  0  0  0  0  0  0
    2.8972   -4.8191    2.7048 O   0  0  0  0  0  0  0  0  0  0  0  0
    4.0834   -4.3391    0.8212 N   0  0  0  0  0  0  0  0  0  0  0  0
    5.0481   -4.7455   -0.2197 C   0  0  0  0  0  0  0  0  0  0  0  0
    5.6996   -3.4492   -0.7884 C   0  0  0  0  0  0  0  0  0  0  0  0
    7.1939   -3.3892   -0.4152 C   0  0  0  0  0  0  0  0  0  0  0  0
    5.4994   -3.3586   -2.3139 C   0  0  0  0  0  0  0  0  0  0  0  0
    4.9331   -2.3780   -0.0426 C   0  0  0  0  0  0  0  0  0  0  0  0
    5.1590   -1.0677   -0.1894 N   0  0  0  0  0  0  0  0  0  0  0  0
    4.4237   -0.2519    0.6127 C   0  0  0  0  0  0  0  0  0  0  0  0
    3.4708   -0.6862    1.5627 C   0  0  0  0  0  0  0  0  0  0  0  0
    2.8475    0.2639    2.3467 O   0  0  0  0  0  0  0  0  0  0  0  0
    1.9498   -0.0946    3.2941 C   0  0  0  0  0  0  0  0  0  0  0  0
    1.4766    1.0035    3.9282 F   0  0  0  0  0  0  0  0  0  0  0  0
    0.8752   -0.7229    2.7574 F   0  0  0  0  0  0  0  0  0  0  0  0
    2.4937   -0.8892    4.2530 F   0  0  0  0  0  0  0  0  0  0  0  0
    3.2333   -2.0846    1.6588 C   0  0  0  0  0  0  0  0  0  0  0  0
    4.0170   -2.9269    0.8772 C   0  0  0  0  0  0  0  0  0  0  0  0
    3.3350   -8.3885    3.2563 C   0  0  1  0  0  0  0  0  0  0  0  0
    1.9541   -7.8492    3.6524 C   0  0  0  0  0  0  0  0  0  0  0  0
    1.1947   -8.6541    4.5368 O   0  0  0  0  0  0  0  0  0  0  0  0
   -0.2098   -8.6416    4.2329 C   0  0  0  0  0  0  0  0  0  0  0  0
   -0.5528   -9.5081    2.9942 C   0  0  0  0  0  0  0  0  0  0  0  0
   -1.5485   -8.7000    2.1574 C   0  0  0  0  0  0  0  0  0  0  0  0
   -2.0021   -7.5359    3.0358 C   0  0  0  0  0  0  0  0  0  0  0  0
   -0.8518   -7.2485    3.9823 C   0  0  0  0  0  0  0  0  0  0  0  0
    3.1786   -9.7092    2.4800 C   0  0  0  0  0  0  0  0  0  0  0  0
    4.4967  -10.2577    2.0914 N   0  0  0  0  0  0  0  0  0  0  0  0
    7.2726   -9.1703    0.4248 H   0  0  0  0  0  0  0  0  0  0  0  0
    6.5729  -10.7873    0.4228 H   0  0  0  0  0  0  0  0  0  0  0  0
    7.2086  -10.0930    1.9043 H   0  0  0  0  0  0  0  0  0  0  0  0
    4.7634   -9.0704    0.3994 H   0  0  0  0  0  0  0  0  0  0  0  0
    6.0337   -8.1567    3.0441 H   0  0  0  0  0  0  0  0  0  0  0  0
    6.0211   -7.2432    1.5770 H   0  0  0  0  0  0  0  0  0  0  0  0
    3.9670   -6.9575    0.4277 H   0  0  0  0  0  0  0  0  0  0  0  0
    2.4673   -6.9400    1.2156 H   0  0  0  0  0  0  0  0  0  0  0  0
    5.8078   -5.3505    0.2709 H   0  0  0  0  0  0  0  0  0  0  0  0
    4.6032   -5.3695   -1.0045 H   0  0  0  0  0  0  0  0  0  0  0  0
    7.7559   -4.2225   -0.8205 H   0  0  0  0  0  0  0  0  0  0  0  0
    7.3319   -3.4180    0.6629 H   0  0  0  0  0  0  0  0  0  0  0  0
    7.6491   -2.4777   -0.7858 H   0  0  0  0  0  0  0  0  0  0  0  0
    5.9660   -4.2002   -2.8174 H   0  0  0  0  0  0  0  0  0  0  0  0
    5.9453   -2.4512   -2.7109 H   0  0  0  0  0  0  0  0  0  0  0  0
    4.4446   -3.3669   -2.5858 H   0  0  0  0  0  0  0  0  0  0  0  0
    4.6323    0.8053    0.5112 H   0  0  0  0  0  0  0  0  0  0  0  0
    2.5053   -2.4760    2.3507 H   0  0  0  0  0  0  0  0  0  0  0  0
    3.8662   -8.5993    4.1899 H   0  0  0  0  0  0  0  0  0  0  0  0
    2.0190   -6.8581    4.0918 H   0  0  0  0  0  0  0  0  0  0  0  0
    1.3973   -7.7895    2.7249 H   0  0  0  0  0  0  0  0  0  0  0  0
   -0.7178   -9.0783    5.0956 H   0  0  0  0  0  0  0  0  0  0  0  0
    0.3093   -9.7674    2.3804 H   0  0  0  0  0  0  0  0  0  0  0  0
   -0.9823  -10.4582    3.2912 H   0  0  0  0  0  0  0  0  0  0  0  0
   -1.0305   -8.3165    1.2776 H   0  0  0  0  0  0  0  0  0  0  0  0
   -2.3913   -9.2991    1.8058 H   0  0  0  0  0  0  0  0  0  0  0  0
   -2.1955   -6.6607    2.4242 H   0  0  0  0  0  0  0  0  0  0  0  0
   -2.8947   -7.7982    3.5974 H   0  0  0  0  0  0  0  0  0  0  0  0
   -1.1458   -6.7564    4.9112 H   0  0  0  0  0  0  0  0  0  0  0  0
   -0.2264   -6.5362    3.4420 H   0  0  0  0  0  0  0  0  0  0  0  0
    2.6656  -10.4455    3.0993 H   0  0  0  0  0  0  0  0  0  0  0  0
    2.5754   -9.5579    1.5826 H   0  0  0  0  0  0  0  0  0  0  0  0
    4.3323  -11.0826    1.4990 H   0  0  0  0  0  0  0  0  0  0  0  0
    4.9960  -10.5472    2.9144 H   0  0  0  0  0  0  0  0  0  0  0  0
  1  2  1  0
  1 34  1  0
  1 35  1  0
  1 36  1  0
  2 33  1  0
  2  3  1  0
  2 37  1  6
  3  4  1  0
  3 38  1  0
  3 39  1  0
  4  5  1  0
  4 24  1  0
  5  6  1  0
  5 40  1  0
  5 41  1  0
  6  7  2  0
  6  8  1  0
  8 23  1  0
  8  9  1  0
  9 10  1  0
  9 42  1  0
  9 43  1  0
 10 11  1  0
 10 12  1  0
 10 13  1  0
 11 44  1  0
 11 45  1  0
 11 46  1  0
 12 47  1  0
 12 48  1  0
 12 49  1  0
 13 23  2  0
 13 14  1  0
 14 15  2  0
 15 16  1  0
 15 50  1  0
 16 17  1  0
 16 22  2  0
 17 18  1  0
 18 19  1  0
 18 20  1  0
 18 21  1  0
 22 23  1  0
 22 51  1  0
 24 25  1  0
 24 32  1  0
 24 52  1  1
 25 26  1  0
 25 53  1  0
 25 54  1  0
 26 27  1  0
 27 31  1  0
 27 28  1  0
 27 55  1  0
 28 29  1  0
 28 56  1  0
 28 57  1  0
 29 30  1  0
 29 58  1  0
 29 59  1  0
 30 31  1  0
 30 60  1  0
 30 61  1  0
 31 62  1  0
 31 63  1  0
 32 33  1  0
 32 64  1  0
 32 65  1  0
 33 66  1  0
 33 67  1  0
M  CHG  1  33   1
M  END
>  <i_m_ct_stereo_status>  (223) 
1

>  <s_m_source_file>  (223) 
/var/tmp/pbs.5076255.sched01/tmpm261n1hm/82shs6bvht.sdf

>  <i_m_source_file_index>  (223) 
13

>  <i_lp_mmshare_version>  (223) 
48012

>  <i_f3d_flags>  (223) 
0

>  <s_epik_input>  (223) 
W0NIMl0xW0NIMl1bQ0gyXVtDSDJdW0NIXTFPW0NIMl1bQ0BASF0oW0NIMl1bTkhdMilOKFtDSDJdW0NASF0yW0NIM10pW0NIMl1DKD1PKU4oW0NIMl1DMyhbQ0gzXSlbQ0gzXSljKGMzNClbY0hdYyhbY0hdbjQpT0MoRikoRilG

>  <s_epik_cmdline>  (223) 
J2VwaWtfcHl0aG9uJywgJy1waHQnLCAnMi4wJywgJy1waCcsICc3LjAnLCAnLXRuJywgJzgnLCAnLW1hJywgJzIwMCcsICctaW1hZScsICc8aW5maWxlLm1hZT4nLCAnLW9tYWUnLCAnPG91dGZpbGUubWFlPic=

>  <r_lp_tautomer_probability>  (223) 
1

>  <r_epik_Ionization_Penalty>  (223) 
0.0120032

>  <r_epik_Ionization_Penalty_Charging>  (223) 
0.0101549

>  <r_epik_Ionization_Penalty_Neutral>  (223) 
0.00184829

>  <r_epik_State_Penalty>  (223) 
0.031107

>  <r_epik_Charging_Adjusted_Penalty>  (223) 
0.0412619

>  <i_epik_Tot_Q>  (223) 
1

>  <i_epik_Tot_abs_Q>  (223) 
1

>  <s_lp_Force_Field>  (223) 
OPLS3e

>  <r_lp_Energy>  (223) 
56.8609

>  <b_lp_Chiralities_Consistent>  (223) 
1

>  <s_lp_Variant>  (223) 
64:0-1

>  <s_i_glide_gridfile>  (223) 
pfpi4k_grid

>  <i_i_glide_lignum>  (223) 
13

>  <i_i_glide_rotatable_bonds>  (223) 
8

>  <r_i_docking_score>  (223) 
-2.98457

>  <r_i_glide_ligand_efficiency>  (223) 
-0.0904417

>  <r_i_glide_ligand_efficiency_sa>  (223) 
-0.290095

>  <r_i_glide_ligand_efficiency_ln>  (223) 
-0.663754

>  <r_i_glide_gscore>  (223) 
-2.98457

>  <r_i_glide_lipo>  (223) 
-0.839906

>  <r_i_glide_hbond>  (223) 
-0.2

>  <r_i_glide_metal>  (223) 
-0

>  <r_i_glide_rewards>  (223) 
-0.23413

>  <r_i_glide_evdw>  (223) 
-30.5784

>  <r_i_glide_ecoul>  (223) 
-4.54467

>  <r_i_glide_erotb>  (223) 
0.636363

>  <r_i_glide_esite>  (223) 
-0.136283

>  <r_i_glide_emodel>  (223) 
-35.5814

>  <r_i_glide_energy>  (223) 
-35.123

>  <r_i_glide_einternal>  (223) 
12.7441

>  <r_i_glide_intrahb_reward>  (223) 
-0

>  <i_i_glide_confnum>  (223) 
13

>  <i_i_glide_posenum>  (223) 
17

>  <r_i_glide_eff_state_penalty>  (223) 
0

>  <ligand_id>  (223) 
64

>  <original_smiles>  (223) 
CC1CN(CC(=O)N2CC(C)(C)c3ncc(OC(F)(F)F)cc32)C(COC2CCCC2)CN1

>  <smiles>  (223) 
[H]c1nc2c(c([H])c1OC(F)(F)F)N(C(=O)C([H])([H])N1C([H])([H])C([H])(C([H])([H])[H])[N+]([H])([H])C([H])([H])C1([H])C([H])([H])OC1([H])C([H])([H])C([H])([H])C([H])([H])C1([H])[H])C([H])([H])C2(C([H])([H])[H])C([H])([H])[H]

$$$$
64:0:1
     RDKit          3D

 67 70  0  0  1  0  0  0  0  0999 V2000
    7.1074   -8.8906    1.3636 C   0  0  0  0  0  0  0  0  0  0  0  0
    5.6089   -8.5814    1.3168 C   0  0  2  0  0  0  0  0  0  0  0  0
    5.2164   -7.5325    2.3890 C   0  0  0  0  0  0  0  0  0  0  0  0
    3.7705   -7.2412    2.3971 N   0  0  0  0  0  0  0  0  0  0  0  0
    3.3858   -6.3454    1.2964 C   0  0  0  0  0  0  0  0  0  0  0  0
    3.6051   -4.8853    1.6986 C   0  0  0  0  0  0  0  0  0  0  0  0
    3.4792   -4.6053    2.8923 O   0  0  0  0  0  0  0  0  0  0  0  0
    3.8107   -3.9842    0.7144 N   0  0  0  0  0  0  0  0  0  0  0  0
    3.7637   -4.2637   -0.7304 C   0  0  0  0  0  0  0  0  0  0  0  0
    4.3862   -3.0522   -1.4660 C   0  0  0  0  0  0  0  0  0  0  0  0
    5.6958   -3.4724   -2.1535 C   0  0  0  0  0  0  0  0  0  0  0  0
    3.4137   -2.4509   -2.4874 C   0  0  0  0  0  0  0  0  0  0  0  0
    4.6672   -2.1214   -0.3130 C   0  0  0  0  0  0  0  0  0  0  0  0
    5.2973   -0.9448   -0.4389 N   0  0  0  0  0  0  0  0  0  0  0  0
    5.5239   -0.2747    0.7145 C   0  0  0  0  0  0  0  0  0  0  0  0
    5.1730   -0.7457    2.0165 C   0  0  0  0  0  0  0  0  0  0  0  0
    5.6168   -0.0329    3.1319 O   0  0  0  0  0  0  0  0  0  0  0  0
    5.0617   -0.1791    4.3507 C   0  0  0  0  0  0  0  0  0  0  0  0
    5.7445    0.5709    5.2576 F   0  0  0  0  0  0  0  0  0  0  0  0
    3.7713    0.2536    4.3775 F   0  0  0  0  0  0  0  0  0  0  0  0
    5.1045   -1.4534    4.8353 F   0  0  0  0  0  0  0  0  0  0  0  0
    4.5149   -1.9770    2.0977 C   0  0  0  0  0  0  0  0  0  0  0  0
    4.2923   -2.6803    0.8978 C   0  0  0  0  0  0  0  0  0  0  0  0
    3.0025   -8.4826    2.5470 C   0  0  1  0  0  0  0  0  0  0  0  0
    1.4844   -8.3110    2.5342 C   0  0  0  0  0  0  0  0  0  0  0  0
    1.0020   -7.3636    3.4811 O   0  0  0  0  0  0  0  0  0  0  0  0
   -0.4154   -7.3922    3.6349 C   0  0  0  0  0  0  0  0  0  0  0  0
   -0.9051   -8.6063    4.4343 C   0  0  0  0  0  0  0  0  0  0  0  0
   -2.1043   -9.1214    3.6569 C   0  0  0  0  0  0  0  0  0  0  0  0
   -2.4748   -8.1335    2.6105 C   0  0  0  0  0  0  0  0  0  0  0  0
   -1.2065   -7.4010    2.3059 C   0  0  0  0  0  0  0  0  0  0  0  0
    3.3749   -9.5382    1.4917 C   0  0  0  0  0  0  0  0  0  0  0  0
    4.8217   -9.8175    1.5153 N   0  0  0  0  0  0  0  0  0  0  0  0
    7.7210   -8.0029    1.1991 H   0  0  0  0  0  0  0  0  0  0  0  0
    7.3904   -9.6182    0.6034 H   0  0  0  0  0  0  0  0  0  0  0  0
    7.3930   -9.2966    2.3348 H   0  0  0  0  0  0  0  0  0  0  0  0
    5.3531   -8.2080    0.3264 H   0  0  0  0  0  0  0  0  0  0  0  0
    5.5313   -7.8959    3.3683 H   0  0  0  0  0  0  0  0  0  0  0  0
    5.7963   -6.6193    2.2202 H   0  0  0  0  0  0  0  0  0  0  0  0
    3.9101   -6.6556    0.3994 H   0  0  0  0  0  0  0  0  0  0  0  0
    2.3329   -6.3238    1.0308 H   0  0  0  0  0  0  0  0  0  0  0  0
    4.3932   -5.1140   -0.9589 H   0  0  0  0  0  0  0  0  0  0  0  0
    2.7508   -4.4975   -1.0767 H   0  0  0  0  0  0  0  0  0  0  0  0
    5.5113   -4.2415   -2.9037 H   0  0  0  0  0  0  0  0  0  0  0  0
    6.4103   -3.8624   -1.4289 H   0  0  0  0  0  0  0  0  0  0  0  0
    6.1763   -2.6346   -2.6518 H   0  0  0  0  0  0  0  0  0  0  0  0
    3.1442   -3.1892   -3.2459 H   0  0  0  0  0  0  0  0  0  0  0  0
    3.8700   -1.5954   -2.9870 H   0  0  0  0  0  0  0  0  0  0  0  0
    2.4979   -2.1152   -2.0011 H   0  0  0  0  0  0  0  0  0  0  0  0
    6.0547    0.6474    0.5907 H   0  0  0  0  0  0  0  0  0  0  0  0
    4.2631   -2.4375    3.0364 H   0  0  0  0  0  0  0  0  0  0  0  0
    3.2529   -8.8899    3.5268 H   0  0  0  0  0  0  0  0  0  0  0  0
    1.2248   -7.9593    1.5467 H   0  0  0  0  0  0  0  0  0  0  0  0
    0.9944   -9.2836    2.6151 H   0  0  0  0  0  0  0  0  0  0  0  0
   -0.7140   -6.5153    4.2117 H   0  0  0  0  0  0  0  0  0  0  0  0
   -0.1619   -9.4010    4.5280 H   0  0  0  0  0  0  0  0  0  0  0  0
   -1.1877   -8.3534    5.4539 H   0  0  0  0  0  0  0  0  0  0  0  0
   -1.8023  -10.0237    3.1540 H   0  0  0  0  0  0  0  0  0  0  0  0
   -2.9718   -9.3324    4.2857 H   0  0  0  0  0  0  0  0  0  0  0  0
   -2.9355   -8.6094    1.7341 H   0  0  0  0  0  0  0  0  0  0  0  0
   -3.1702   -7.5069    3.1381 H   0  0  0  0  0  0  0  0  0  0  0  0
   -1.3415   -6.4150    1.8779 H   0  0  0  0  0  0  0  0  0  0  0  0
   -0.8382   -8.0472    1.5259 H   0  0  0  0  0  0  0  0  0  0  0  0
    2.8586  -10.4714    1.7019 H   0  0  0  0  0  0  0  0  0  0  0  0
    3.0732   -9.2298    0.4889 H   0  0  0  0  0  0  0  0  0  0  0  0
    4.9781  -10.5089    0.7878 H   0  0  0  0  0  0  0  0  0  0  0  0
    5.0763  -10.2517    2.3868 H   0  0  0  0  0  0  0  0  0  0  0  0
  1  2  1  0
  1 34  1  0
  1 35  1  0
  1 36  1  0
  2 33  1  0
  2  3  1  0
  2 37  1  6
  3  4  1  0
  3 38  1  0
  3 39  1  0
  4  5  1  0
  4 24  1  0
  5  6  1  0
  5 40  1  0
  5 41  1  0
  6  7  2  0
  6  8  1  0
  8 23  1  0
  8  9  1  0
  9 10  1  0
  9 42  1  0
  9 43  1  0
 10 11  1  0
 10 12  1  0
 10 13  1  0
 11 44  1  0
 11 45  1  0
 11 46  1  0
 12 47  1  0
 12 48  1  0
 12 49  1  0
 13 23  2  0
 13 14  1  0
 14 15  2  0
 15 16  1  0
 15 50  1  0
 16 17  1  0
 16 22  2  0
 17 18  1  0
 18 19  1  0
 18 20  1  0
 18 21  1  0
 22 23  1  0
 22 51  1  0
 24 25  1  0
 24 32  1  0
 24 52  1  1
 25 26  1  0
 25 53  1  0
 25 54  1  0
 26 27  1  0
 27 31  1  0
 27 28  1  0
 27 55  1  0
 28 29  1  0
 28 56  1  0
 28 57  1  0
 29 30  1  0
 29 58  1  0
 29 59  1  0
 30 31  1  0
 30 60  1  0
 30 61  1  0
 31 62  1  0
 31 63  1  0
 32 33  1  0
 32 64  1  0
 32 65  1  0
 33 66  1  0
 33 67  1  0
M  CHG  1  33   1
M  END
>  <i_m_ct_stereo_status>  (224) 
1

>  <s_m_source_file>  (224) 
/var/tmp/pbs.5076255.sched01/tmpm261n1hm/82shs6bvht.sdf

>  <i_m_source_file_index>  (224) 
13

>  <i_lp_mmshare_version>  (224) 
48012

>  <i_f3d_flags>  (224) 
0

>  <s_epik_input>  (224) 
W0NIMl0xW0NIMl1bQ0gyXVtDSDJdW0NIXTFPW0NIMl1bQ0BASF0oW0NIMl1bTkhdMilOKFtDSDJdW0NASF0yW0NIM10pW0NIMl1DKD1PKU4oW0NIMl1DMyhbQ0gzXSlbQ0gzXSljKGMzNClbY0hdYyhbY0hdbjQpT0MoRikoRilG

>  <s_epik_cmdline>  (224) 
J2VwaWtfcHl0aG9uJywgJy1waHQnLCAnMi4wJywgJy1waCcsICc3LjAnLCAnLXRuJywgJzgnLCAnLW1hJywgJzIwMCcsICctaW1hZScsICc8aW5maWxlLm1hZT4nLCAnLW9tYWUnLCAnPG91dGZpbGUubWFlPic=

>  <r_lp_tautomer_probability>  (224) 
1

>  <r_epik_Ionization_Penalty>  (224) 
0.0120032

>  <r_epik_Ionization_Penalty_Charging>  (224) 
0.0101549

>  <r_epik_Ionization_Penalty_Neutral>  (224) 
0.00184829

>  <r_epik_State_Penalty>  (224) 
0.031107

>  <r_epik_Charging_Adjusted_Penalty>  (224) 
0.0412619

>  <i_epik_Tot_Q>  (224) 
1

>  <i_epik_Tot_abs_Q>  (224) 
1

>  <s_lp_Force_Field>  (224) 
OPLS3e

>  <r_lp_Energy>  (224) 
56.8609

>  <b_lp_Chiralities_Consistent>  (224) 
1

>  <s_lp_Variant>  (224) 
64:0-1

>  <s_i_glide_gridfile>  (224) 
pfpi4k_grid

>  <i_i_glide_lignum>  (224) 
13

>  <i_i_glide_rotatable_bonds>  (224) 
8

>  <r_i_docking_score>  (224) 
-2.50716

>  <r_i_glide_ligand_efficiency>  (224) 
-0.0759746

>  <r_i_glide_ligand_efficiency_sa>  (224) 
-0.243691

>  <r_i_glide_ligand_efficiency_ln>  (224) 
-0.55758

>  <r_i_glide_gscore>  (224) 
-2.50716

>  <r_i_glide_lipo>  (224) 
-0.777879

>  <r_i_glide_hbond>  (224) 
-0.241256

>  <r_i_glide_metal>  (224) 
-0

>  <r_i_glide_rewards>  (224) 
-0.439016

>  <r_i_glide_evdw>  (224) 
-19.833

>  <r_i_glide_ecoul>  (224) 
-3.97085

>  <r_i_glide_erotb>  (224) 
0.636363

>  <r_i_glide_esite>  (224) 
-0.0980983

>  <r_i_glide_emodel>  (224) 
-23.1475

>  <r_i_glide_energy>  (224) 
-23.8038

>  <r_i_glide_einternal>  (224) 
10.0336

>  <r_i_glide_intrahb_reward>  (224) 
-0

>  <i_i_glide_confnum>  (224) 
11

>  <i_i_glide_posenum>  (224) 
6

>  <r_i_glide_eff_state_penalty>  (224) 
0

>  <ligand_id>  (224) 
64

>  <original_smiles>  (224) 
CC1CN(CC(=O)N2CC(C)(C)c3ncc(OC(F)(F)F)cc32)C(COC2CCCC2)CN1

>  <smiles>  (224) 
[H]c1nc2c(c([H])c1OC(F)(F)F)N(C(=O)C([H])([H])N1C([H])([H])C([H])(C([H])([H])[H])[N+]([H])([H])C([H])([H])C1([H])C([H])([H])OC1([H])C([H])([H])C([H])([H])C([H])([H])C1([H])[H])C([H])([H])C2(C([H])([H])[H])C([H])([H])[H]

$$$$
64:0:2
     RDKit          3D

 67 70  0  0  1  0  0  0  0  0999 V2000
    8.1115   -7.6135    3.0776 C   0  0  0  0  0  0  0  0  0  0  0  0
    6.7335   -7.8617    2.4399 C   0  0  2  0  0  0  0  0  0  0  0  0
    5.6739   -6.8286    2.9073 C   0  0  0  0  0  0  0  0  0  0  0  0
    4.3355   -7.0929    2.3379 N   0  0  0  0  0  0  0  0  0  0  0  0
    4.1947   -6.6662    0.9409 C   0  0  0  0  0  0  0  0  0  0  0  0
    3.7603   -5.1935    0.9263 C   0  0  0  0  0  0  0  0  0  0  0  0
    2.6531   -4.9211    1.4008 O   0  0  0  0  0  0  0  0  0  0  0  0
    4.5539   -4.2904    0.3202 N   0  0  0  0  0  0  0  0  0  0  0  0
    5.6921   -4.6449   -0.5360 C   0  0  0  0  0  0  0  0  0  0  0  0
    6.4878   -3.3461   -0.7913 C   0  0  0  0  0  0  0  0  0  0  0  0
    7.8853   -3.4634   -0.1667 C   0  0  0  0  0  0  0  0  0  0  0  0
    6.6006   -3.0240   -2.2851 C   0  0  0  0  0  0  0  0  0  0  0  0
    5.6470   -2.3327   -0.0571 C   0  0  0  0  0  0  0  0  0  0  0  0
    5.9751   -1.0386    0.0565 N   0  0  0  0  0  0  0  0  0  0  0  0
    5.1648   -0.2825    0.8289 C   0  0  0  0  0  0  0  0  0  0  0  0
    4.0123   -0.7668    1.5063 C   0  0  0  0  0  0  0  0  0  0  0  0
    3.3311    0.1211    2.3245 O   0  0  0  0  0  0  0  0  0  0  0  0
    2.2116   -0.2782    2.9705 C   0  0  0  0  0  0  0  0  0  0  0  0
    1.7255    0.7365    3.7197 F   0  0  0  0  0  0  0  0  0  0  0  0
    1.2237   -0.6248    2.1107 F   0  0  0  0  0  0  0  0  0  0  0  0
    2.4281   -1.3096    3.8292 F   0  0  0  0  0  0  0  0  0  0  0  0
    3.6711   -2.1259    1.3403 C   0  0  0  0  0  0  0  0  0  0  0  0
    4.5363   -2.9074    0.5415 C   0  0  0  0  0  0  0  0  0  0  0  0
    3.8972   -8.4626    2.6390 C   0  0  1  0  0  0  0  0  0  0  0  0
    2.4936   -8.8433    2.1012 C   0  0  0  0  0  0  0  0  0  0  0  0
    1.5274   -7.8649    2.4568 O   0  0  0  0  0  0  0  0  0  0  0  0
    0.2091   -8.1139    1.9875 C   0  0  0  0  0  0  0  0  0  0  0  0
   -0.7615   -7.0956    2.6102 C   0  0  0  0  0  0  0  0  0  0  0  0
   -1.9587   -7.8858    3.1519 C   0  0  0  0  0  0  0  0  0  0  0  0
   -1.8024   -9.2791    2.5840 C   0  0  0  0  0  0  0  0  0  0  0  0
   -0.3157   -9.4851    2.4280 C   0  0  0  0  0  0  0  0  0  0  0  0
    4.9272   -9.5055    2.1817 C   0  0  0  0  0  0  0  0  0  0  0  0
    6.2596   -9.2283    2.7611 N   0  0  0  0  0  0  0  0  0  0  0  0
    8.5063   -6.6295    2.8262 H   0  0  0  0  0  0  0  0  0  0  0  0
    8.8615   -8.3333    2.7493 H   0  0  0  0  0  0  0  0  0  0  0  0
    8.0729   -7.6735    4.1638 H   0  0  0  0  0  0  0  0  0  0  0  0
    6.8660   -7.8060    1.3573 H   0  0  0  0  0  0  0  0  0  0  0  0
    5.6386   -6.8399    4.0005 H   0  0  0  0  0  0  0  0  0  0  0  0
    6.0158   -5.8197    2.6545 H   0  0  0  0  0  0  0  0  0  0  0  0
    5.0990   -6.9181    0.3702 H   0  0  0  0  0  0  0  0  0  0  0  0
    3.3369   -7.1410    0.4660 H   0  0  0  0  0  0  0  0  0  0  0  0
    6.3453   -5.3573   -0.0392 H   0  0  0  0  0  0  0  0  0  0  0  0
    5.3371   -5.0773   -1.4749 H   0  0  0  0  0  0  0  0  0  0  0  0
    8.4448   -4.2698   -0.6250 H   0  0  0  0  0  0  0  0  0  0  0  0
    7.8170   -3.6862    0.8935 H   0  0  0  0  0  0  0  0  0  0  0  0
    8.4809   -2.5592   -0.2758 H   0  0  0  0  0  0  0  0  0  0  0  0
    7.1007   -3.8386   -2.8010 H   0  0  0  0  0  0  0  0  0  0  0  0
    7.2126   -2.1323   -2.4027 H   0  0  0  0  0  0  0  0  0  0  0  0
    5.6323   -2.8695   -2.7691 H   0  0  0  0  0  0  0  0  0  0  0  0
    5.4887    0.7408    0.8891 H   0  0  0  0  0  0  0  0  0  0  0  0
    2.8000   -2.5636    1.8177 H   0  0  0  0  0  0  0  0  0  0  0  0
    3.8147   -8.5193    3.7289 H   0  0  0  0  0  0  0  0  0  0  0  0
    2.4776   -8.9678    1.0191 H   0  0  0  0  0  0  0  0  0  0  0  0
    2.2255   -9.8160    2.5050 H   0  0  0  0  0  0  0  0  0  0  0  0
    0.1679   -7.9878    0.8990 H   0  0  0  0  0  0  0  0  0  0  0  0
   -0.2994   -6.5431    3.4345 H   0  0  0  0  0  0  0  0  0  0  0  0
   -1.0664   -6.3971    1.8310 H   0  0  0  0  0  0  0  0  0  0  0  0
   -1.9058   -7.9427    4.2399 H   0  0  0  0  0  0  0  0  0  0  0  0
   -2.9230   -7.4552    2.8881 H   0  0  0  0  0  0  0  0  0  0  0  0
   -2.2124  -10.0241    3.2360 H   0  0  0  0  0  0  0  0  0  0  0  0
   -2.3355   -9.3897    1.6544 H   0  0  0  0  0  0  0  0  0  0  0  0
   -0.0850  -10.2802    1.7252 H   0  0  0  0  0  0  0  0  0  0  0  0
    0.0995   -9.7684    3.3989 H   0  0  0  0  0  0  0  0  0  0  0  0
    4.6026  -10.4835    2.5218 H   0  0  0  0  0  0  0  0  0  0  0  0
    4.9792   -9.5456    1.0919 H   0  0  0  0  0  0  0  0  0  0  0  0
    6.9023   -9.9081    2.3835 H   0  0  0  0  0  0  0  0  0  0  0  0
    6.2229   -9.3382    3.7668 H   0  0  0  0  0  0  0  0  0  0  0  0
  1  2  1  0
  1 34  1  0
  1 35  1  0
  1 36  1  0
  2 33  1  0
  2  3  1  0
  2 37  1  6
  3  4  1  0
  3 38  1  0
  3 39  1  0
  4  5  1  0
  4 24  1  0
  5  6  1  0
  5 40  1  0
  5 41  1  0
  6  7  2  0
  6  8  1  0
  8 23  1  0
  8  9  1  0
  9 10  1  0
  9 42  1  0
  9 43  1  0
 10 11  1  0
 10 12  1  0
 10 13  1  0
 11 44  1  0
 11 45  1  0
 11 46  1  0
 12 47  1  0
 12 48  1  0
 12 49  1  0
 13 23  2  0
 13 14  1  0
 14 15  2  0
 15 16  1  0
 15 50  1  0
 16 17  1  0
 16 22  2  0
 17 18  1  0
 18 19  1  0
 18 20  1  0
 18 21  1  0
 22 23  1  0
 22 51  1  0
 24 25  1  0
 24 32  1  0
 24 52  1  1
 25 26  1  0
 25 53  1  0
 25 54  1  0
 26 27  1  0
 27 31  1  0
 27 28  1  0
 27 55  1  0
 28 29  1  0
 28 56  1  0
 28 57  1  0
 29 30  1  0
 29 58  1  0
 29 59  1  0
 30 31  1  0
 30 60  1  0
 30 61  1  0
 31 62  1  0
 31 63  1  0
 32 33  1  0
 32 64  1  0
 32 65  1  0
 33 66  1  0
 33 67  1  0
M  CHG  1  33   1
M  END
>  <i_m_ct_stereo_status>  (225) 
1

>  <s_m_source_file>  (225) 
/var/tmp/pbs.5076255.sched01/tmpm261n1hm/82shs6bvht.sdf

>  <i_m_source_file_index>  (225) 
13

>  <i_lp_mmshare_version>  (225) 
48012

>  <i_f3d_flags>  (225) 
0

>  <s_epik_input>  (225) 
W0NIMl0xW0NIMl1bQ0gyXVtDSDJdW0NIXTFPW0NIMl1bQ0BASF0oW0NIMl1bTkhdMilOKFtDSDJdW0NASF0yW0NIM10pW0NIMl1DKD1PKU4oW0NIMl1DMyhbQ0gzXSlbQ0gzXSljKGMzNClbY0hdYyhbY0hdbjQpT0MoRikoRilG

>  <s_epik_cmdline>  (225) 
J2VwaWtfcHl0aG9uJywgJy1waHQnLCAnMi4wJywgJy1waCcsICc3LjAnLCAnLXRuJywgJzgnLCAnLW1hJywgJzIwMCcsICctaW1hZScsICc8aW5maWxlLm1hZT4nLCAnLW9tYWUnLCAnPG91dGZpbGUubWFlPic=

>  <r_lp_tautomer_probability>  (225) 
1

>  <r_epik_Ionization_Penalty>  (225) 
0.0120032

>  <r_epik_Ionization_Penalty_Charging>  (225) 
0.0101549

>  <r_epik_Ionization_Penalty_Neutral>  (225) 
0.00184829

>  <r_epik_State_Penalty>  (225) 
0.031107

>  <r_epik_Charging_Adjusted_Penalty>  (225) 
0.0412619

>  <i_epik_Tot_Q>  (225) 
1

>  <i_epik_Tot_abs_Q>  (225) 
1

>  <s_lp_Force_Field>  (225) 
OPLS3e

>  <r_lp_Energy>  (225) 
56.8609

>  <b_lp_Chiralities_Consistent>  (225) 
1

>  <s_lp_Variant>  (225) 
64:0-1

>  <s_i_glide_gridfile>  (225) 
pfpi4k_grid

>  <i_i_glide_lignum>  (225) 
13

>  <i_i_glide_rotatable_bonds>  (225) 
8

>  <r_i_docking_score>  (225) 
-2.32988

>  <r_i_glide_ligand_efficiency>  (225) 
-0.0706024

>  <r_i_glide_ligand_efficiency_sa>  (225) 
-0.22646

>  <r_i_glide_ligand_efficiency_ln>  (225) 
-0.518153

>  <r_i_glide_gscore>  (225) 
-2.32988

>  <r_i_glide_lipo>  (225) 
-0.959493

>  <r_i_glide_hbond>  (225) 
0

>  <r_i_glide_metal>  (225) 
-0

>  <r_i_glide_rewards>  (225) 
-0.25202

>  <r_i_glide_evdw>  (225) 
-28.5636

>  <r_i_glide_ecoul>  (225) 
-1.64217

>  <r_i_glide_erotb>  (225) 
0.636363

>  <r_i_glide_esite>  (225) 
-0.0802232

>  <r_i_glide_emodel>  (225) 
-33.3528

>  <r_i_glide_energy>  (225) 
-30.2058

>  <r_i_glide_einternal>  (225) 
4.42188

>  <r_i_glide_intrahb_reward>  (225) 
-0

>  <i_i_glide_confnum>  (225) 
5

>  <i_i_glide_posenum>  (225) 
14

>  <r_i_glide_eff_state_penalty>  (225) 
0

>  <ligand_id>  (225) 
64

>  <original_smiles>  (225) 
CC1CN(CC(=O)N2CC(C)(C)c3ncc(OC(F)(F)F)cc32)C(COC2CCCC2)CN1

>  <smiles>  (225) 
[H]c1nc2c(c([H])c1OC(F)(F)F)N(C(=O)C([H])([H])N1C([H])([H])C([H])(C([H])([H])[H])[N+]([H])([H])C([H])([H])C1([H])C([H])([H])OC1([H])C([H])([H])C([H])([H])C([H])([H])C1([H])[H])C([H])([H])C2(C([H])([H])[H])C([H])([H])[H]

$$$$
64:1:0
     RDKit          3D

 67 70  0  0  1  0  0  0  0  0999 V2000
   -0.5141    0.6033    3.2037 C   0  0  0  0  0  0  0  0  0  0  0  0
    0.6888    0.0067    2.4732 C   0  0  2  0  0  0  0  0  0  0  0  0
    1.3911   -1.0083    3.3853 C   0  0  0  0  0  0  0  0  0  0  0  0
    2.6122   -1.5615    2.7590 N   0  0  2  0  0  0  0  0  0  0  0  0
    3.2473   -2.5863    3.6400 C   0  0  0  0  0  0  0  0  0  0  0  0
    2.8392   -4.0092    3.2275 C   0  0  0  0  0  0  0  0  0  0  0  0
    1.6383   -4.2784    3.2920 O   0  0  0  0  0  0  0  0  0  0  0  0
    3.7947   -4.8871    2.8356 N   0  0  0  0  0  0  0  0  0  0  0  0
    5.2069   -4.5419    2.5800 C   0  0  0  0  0  0  0  0  0  0  0  0
    5.8784   -5.7494    1.8935 C   0  0  0  0  0  0  0  0  0  0  0  0
    6.4234   -5.3807    0.4979 C   0  0  0  0  0  0  0  0  0  0  0  0
    7.0066   -6.2668    2.7870 C   0  0  0  0  0  0  0  0  0  0  0  0
    4.7246   -6.7281    1.8211 C   0  0  0  0  0  0  0  0  0  0  0  0
    4.8162   -7.9663    1.2738 N   0  0  0  0  0  0  0  0  0  0  0  0
    3.7206   -8.7418    1.3909 C   0  0  0  0  0  0  0  0  0  0  0  0
    2.5170   -8.3419    2.0431 C   0  0  0  0  0  0  0  0  0  0  0  0
    1.4738   -9.2379    2.1076 O   0  0  0  0  0  0  0  0  0  0  0  0
    0.2846   -8.8753    2.6428 C   0  0  0  0  0  0  0  0  0  0  0  0
   -0.2458   -7.7781    2.0411 F   0  0  0  0  0  0  0  0  0  0  0  0
   -0.6216   -9.8702    2.4798 F   0  0  0  0  0  0  0  0  0  0  0  0
    0.3707   -8.6509    3.9827 F   0  0  0  0  0  0  0  0  0  0  0  0
    2.4577   -7.0371    2.5924 C   0  0  0  0  0  0  0  0  0  0  0  0
    3.5890   -6.2147    2.4123 C   0  0  0  0  0  0  0  0  0  0  0  0
    3.5269   -0.4530    2.3449 C   0  0  1  0  0  0  0  0  0  0  0  0
    4.7563   -0.9872    1.5588 C   0  0  0  0  0  0  0  0  0  0  0  0
    4.3594   -2.0792    0.7361 O   0  0  0  0  0  0  0  0  0  0  0  0
    3.7792   -1.8001   -0.5090 C   0  0  0  0  0  0  0  0  0  0  0  0
    3.0709   -3.0074   -1.0754 C   0  0  0  0  0  0  0  0  0  0  0  0
    3.0900   -2.7561   -2.5930 C   0  0  0  0  0  0  0  0  0  0  0  0
    4.0615   -1.5854   -2.8508 C   0  0  0  0  0  0  0  0  0  0  0  0
    4.7905   -1.3270   -1.5287 C   0  0  0  0  0  0  0  0  0  0  0  0
    2.7746    0.6162    1.5232 C   0  0  0  0  0  0  0  0  0  0  0  0
    1.5942    1.1173    2.1764 N   0  0  0  0  0  0  0  0  0  0  0  0
   -1.2341   -0.1723    3.4704 H   0  0  0  0  0  0  0  0  0  0  0  0
   -1.0236    1.3461    2.5893 H   0  0  0  0  0  0  0  0  0  0  0  0
   -0.1957    1.0865    4.1299 H   0  0  0  0  0  0  0  0  0  0  0  0
    0.3537   -0.4982    1.5624 H   0  0  0  0  0  0  0  0  0  0  0  0
    1.6767   -0.5294    4.3225 H   0  0  0  0  0  0  0  0  0  0  0  0
    0.7087   -1.8250    3.6362 H   0  0  0  0  0  0  0  0  0  0  0  0
    4.3244   -2.4897    3.6829 H   0  0  0  0  0  0  0  0  0  0  0  0
    2.9827   -2.4165    4.6900 H   0  0  0  0  0  0  0  0  0  0  0  0
    5.3132   -3.7278    1.8915 H   0  0  0  0  0  0  0  0  0  0  0  0
    5.7201   -4.2180    3.4832 H   0  0  0  0  0  0  0  0  0  0  0  0
    7.1725   -4.5864    0.5480 H   0  0  0  0  0  0  0  0  0  0  0  0
    5.6335   -5.0609   -0.1888 H   0  0  0  0  0  0  0  0  0  0  0  0
    6.9169   -6.2553    0.0775 H   0  0  0  0  0  0  0  0  0  0  0  0
    7.7764   -5.5086    2.9221 H   0  0  0  0  0  0  0  0  0  0  0  0
    7.4728   -7.1467    2.3483 H   0  0  0  0  0  0  0  0  0  0  0  0
    6.6253   -6.5336    3.7721 H   0  0  0  0  0  0  0  0  0  0  0  0
    3.8015   -9.7260    0.9455 H   0  0  0  0  0  0  0  0  0  0  0  0
    1.5967   -6.6807    3.1240 H   0  0  0  0  0  0  0  0  0  0  0  0
    3.8930    0.0132    3.2667 H   0  0  0  0  0  0  0  0  0  0  0  0
    5.3023   -0.2126    1.0170 H   0  0  0  0  0  0  0  0  0  0  0  0
    5.5047   -1.3768    2.2623 H   0  0  0  0  0  0  0  0  0  0  0  0
    2.9926   -1.0802   -0.5038 H   0  0  0  0  0  0  0  0  0  0  0  0
    3.5716   -3.9394   -0.7994 H   0  0  0  0  0  0  0  0  0  0  0  0
    2.0486   -3.0584   -0.6877 H   0  0  0  0  0  0  0  0  0  0  0  0
    3.4298   -3.6666   -3.0862 H   0  0  0  0  0  0  0  0  0  0  0  0
    2.0904   -2.5093   -2.9700 H   0  0  0  0  0  0  0  0  0  0  0  0
    4.7660   -1.7978   -3.6552 H   0  0  0  0  0  0  0  0  0  0  0  0
    3.4926   -0.6923   -3.1238 H   0  0  0  0  0  0  0  0  0  0  0  0
    5.0253   -0.2644   -1.3927 H   0  0  0  0  0  0  0  0  0  0  0  0
    5.7210   -1.9036   -1.4608 H   0  0  0  0  0  0  0  0  0  0  0  0
    3.5104    1.3800    1.3033 H   0  0  0  0  0  0  0  0  0  0  0  0
    2.3694    0.3076    0.5720 H   0  0  0  0  0  0  0  0  0  0  0  0
    1.1347    1.6655    1.4585 H   0  0  0  0  0  0  0  0  0  0  0  0
    2.3350   -2.0353    1.9032 H   0  0  0  0  0  0  0  0  0  0  0  0
  1  2  1  0
  1 34  1  0
  1 35  1  0
  1 36  1  0
  2 33  1  0
  2  3  1  0
  2 37  1  6
  3  4  1  0
  3 38  1  0
  3 39  1  0
  4  5  1  0
  4 24  1  0
  4 67  1  6
  5  6  1  0
  5 40  1  0
  5 41  1  0
  6  7  2  0
  6  8  1  0
  8 23  1  0
  8  9  1  0
  9 10  1  0
  9 42  1  0
  9 43  1  0
 10 11  1  0
 10 12  1  0
 10 13  1  0
 11 44  1  0
 11 45  1  0
 11 46  1  0
 12 47  1  0
 12 48  1  0
 12 49  1  0
 13 23  2  0
 13 14  1  0
 14 15  2  0
 15 16  1  0
 15 50  1  0
 16 17  1  0
 16 22  2  0
 17 18  1  0
 18 19  1  0
 18 20  1  0
 18 21  1  0
 22 23  1  0
 22 51  1  0
 24 25  1  0
 24 32  1  0
 24 52  1  1
 25 26  1  0
 25 53  1  0
 25 54  1  0
 26 27  1  0
 27 31  1  0
 27 28  1  0
 27 55  1  0
 28 29  1  0
 28 56  1  0
 28 57  1  0
 29 30  1  0
 29 58  1  0
 29 59  1  0
 30 31  1  0
 30 60  1  0
 30 61  1  0
 31 62  1  0
 31 63  1  0
 32 33  1  0
 32 64  1  0
 32 65  1  0
 33 66  1  0
M  CHG  1   4   1
M  END
>  <i_m_ct_stereo_status>  (226) 
1

>  <s_m_source_file>  (226) 
/var/tmp/pbs.5076255.sched01/tmpm261n1hm/82shs6bvht.sdf

>  <i_m_source_file_index>  (226) 
14

>  <i_lp_mmshare_version>  (226) 
48012

>  <i_f3d_flags>  (226) 
0

>  <s_epik_input>  (226) 
W0NIMl0xW0NIMl1bQ0gyXVtDSDJdW0NIXTFPW0NIMl1bQ0BASF0oW0NIMl1bTkhdMilOKFtDSDJdW0NASF0yW0NIM10pW0NIMl1DKD1PKU4oW0NIMl1DMyhbQ0gzXSlbQ0gzXSljKGMzNClbY0hdYyhbY0hdbjQpT0MoRikoRilG

>  <s_epik_cmdline>  (226) 
J2VwaWtfcHl0aG9uJywgJy1waHQnLCAnMi4wJywgJy1waCcsICc3LjAnLCAnLXRuJywgJzgnLCAnLW1hJywgJzIwMCcsICctaW1hZScsICc8aW5maWxlLm1hZT4nLCAnLW9tYWUnLCAnPG91dGZpbGUubWFlPic=

>  <r_epik_Ionization_Penalty>  (226) 
0.186346

>  <r_epik_Ionization_Penalty_Charging>  (226) 
0.176497

>  <r_epik_Ionization_Penalty_Neutral>  (226) 
0.00984905

>  <r_epik_State_Penalty>  (226) 
1.92742

>  <r_epik_Charging_Adjusted_Penalty>  (226) 
2.10392

>  <i_epik_Tot_Q>  (226) 
1

>  <i_epik_Tot_abs_Q>  (226) 
1

>  <s_lp_Force_Field>  (226) 
OPLS3e

>  <r_lp_Energy>  (226) 
44.2852

>  <b_lp_Chiralities_Consistent>  (226) 
1

>  <s_lp_Variant>  (226) 
64:0-2

>  <s_i_glide_gridfile>  (226) 
pfpi4k_grid

>  <i_i_glide_lignum>  (226) 
14

>  <i_i_glide_rotatable_bonds>  (226) 
8

>  <r_i_docking_score>  (226) 
-2.19938

>  <r_i_glide_ligand_efficiency>  (226) 
-0.0666479

>  <r_i_glide_ligand_efficiency_sa>  (226) 
-0.213775

>  <r_i_glide_ligand_efficiency_ln>  (226) 
-0.489131

>  <r_i_glide_gscore>  (226) 
-2.19938

>  <r_i_glide_lipo>  (226) 
-0.412978

>  <r_i_glide_hbond>  (226) 
0

>  <r_i_glide_metal>  (226) 
-0

>  <r_i_glide_rewards>  (226) 
-0.297652

>  <r_i_glide_evdw>  (226) 
-31.3103

>  <r_i_glide_ecoul>  (226) 
-2.97748

>  <r_i_glide_erotb>  (226) 
0.636363

>  <r_i_glide_esite>  (226) 
-0.112974

>  <r_i_glide_emodel>  (226) 
-33.7625

>  <r_i_glide_energy>  (226) 
-34.2878

>  <r_i_glide_einternal>  (226) 
5.72862

>  <r_i_glide_intrahb_reward>  (226) 
-0

>  <i_i_glide_confnum>  (226) 
14

>  <i_i_glide_posenum>  (226) 
19

>  <r_i_glide_eff_state_penalty>  (226) 
0

>  <ligand_id>  (226) 
64

>  <original_smiles>  (226) 
CC1CN(CC(=O)N2CC(C)(C)c3ncc(OC(F)(F)F)cc32)C(COC2CCCC2)CN1

>  <smiles>  (226) 
[H]c1nc2c(c([H])c1OC(F)(F)F)N(C(=O)C([H])([H])[N+]1([H])C([H])([H])C([H])(C([H])([H])[H])N([H])C([H])([H])C1([H])C([H])([H])OC1([H])C([H])([H])C([H])([H])C([H])([H])C1([H])[H])C([H])([H])C2(C([H])([H])[H])C([H])([H])[H]

$$$$
64:1:1
     RDKit          3D

 67 70  0  0  1  0  0  0  0  0999 V2000
   -1.9126   -8.7170    2.7323 C   0  0  0  0  0  0  0  0  0  0  0  0
   -0.5140   -8.3989    3.2785 C   0  0  2  0  0  0  0  0  0  0  0  0
    0.3253   -7.7056    2.1901 C   0  0  0  0  0  0  0  0  0  0  0  0
    1.7284   -7.4800    2.6166 N   0  0  2  0  0  0  0  0  0  0  0  0
    2.4598   -6.7273    1.5618 C   0  0  0  0  0  0  0  0  0  0  0  0
    2.5112   -5.2381    1.8903 C   0  0  0  0  0  0  0  0  0  0  0  0
    1.7724   -4.8253    2.7988 O   0  0  0  0  0  0  0  0  0  0  0  0
    3.3539   -4.4647    1.1847 N   0  0  0  0  0  0  0  0  0  0  0  0
    4.3860   -4.9904    0.2658 C   0  0  0  0  0  0  0  0  0  0  0  0
    5.2401   -3.7782   -0.1838 C   0  0  0  0  0  0  0  0  0  0  0  0
    6.7207   -3.9656    0.1917 C   0  0  0  0  0  0  0  0  0  0  0  0
    5.0882   -3.5343   -1.6935 C   0  0  0  0  0  0  0  0  0  0  0  0
    4.6107   -2.6523    0.5946 C   0  0  0  0  0  0  0  0  0  0  0  0
    5.0609   -1.3722    0.5780 N   0  0  0  0  0  0  0  0  0  0  0  0
    4.3106   -0.4770    1.2804 C   0  0  0  0  0  0  0  0  0  0  0  0
    3.1412   -0.7976    1.9941 C   0  0  0  0  0  0  0  0  0  0  0  0
    2.4930    0.2386    2.6565 O   0  0  0  0  0  0  0  0  0  0  0  0
    1.3012    0.0248    3.3235 C   0  0  0  0  0  0  0  0  0  0  0  0
    0.9571    1.1387    3.9921 F   0  0  0  0  0  0  0  0  0  0  0  0
    0.2983   -0.2528    2.4633 F   0  0  0  0  0  0  0  0  0  0  0  0
    1.4044   -0.9636    4.2421 F   0  0  0  0  0  0  0  0  0  0  0  0
    2.6902   -2.1407    1.9856 C   0  0  0  0  0  0  0  0  0  0  0  0
    3.5190   -3.0732    1.3069 C   0  0  0  0  0  0  0  0  0  0  0  0
    2.3504   -8.7468    3.0680 C   0  0  1  0  0  0  0  0  0  0  0  0
    3.8123   -8.5566    3.5981 C   0  0  0  0  0  0  0  0  0  0  0  0
    4.3816   -9.7820    4.0335 O   0  0  0  0  0  0  0  0  0  0  0  0
    4.4713  -10.7777    3.0054 C   0  0  0  0  0  0  0  0  0  0  0  0
    3.5588  -11.9840    3.3145 C   0  0  0  0  0  0  0  0  0  0  0  0
    4.3491  -12.8529    4.2877 C   0  0  0  0  0  0  0  0  0  0  0  0
    5.8034  -12.3653    4.2329 C   0  0  0  0  0  0  0  0  0  0  0  0
    5.8728  -11.3895    3.0600 C   0  0  0  0  0  0  0  0  0  0  0  0
    1.4722   -9.3256    4.2129 C   0  0  0  0  0  0  0  0  0  0  0  0
    0.1369   -9.6288    3.6907 N   0  0  0  0  0  0  0  0  0  0  0  0
   -2.4258   -7.7888    2.4771 H   0  0  0  0  0  0  0  0  0  0  0  0
   -2.5158   -9.2496    3.4694 H   0  0  0  0  0  0  0  0  0  0  0  0
   -1.8557   -9.3284    1.8259 H   0  0  0  0  0  0  0  0  0  0  0  0
   -0.5948   -7.7597    4.1650 H   0  0  0  0  0  0  0  0  0  0  0  0
    0.3406   -8.3050    1.2801 H   0  0  0  0  0  0  0  0  0  0  0  0
   -0.1368   -6.7532    1.9368 H   0  0  0  0  0  0  0  0  0  0  0  0
    3.4838   -7.0735    1.4144 H   0  0  0  0  0  0  0  0  0  0  0  0
    2.0158   -6.8927    0.5782 H   0  0  0  0  0  0  0  0  0  0  0  0
    5.0147   -5.7301    0.7634 H   0  0  0  0  0  0  0  0  0  0  0  0
    3.9152   -5.4971   -0.5761 H   0  0  0  0  0  0  0  0  0  0  0  0
    7.1352   -4.8811   -0.2263 H   0  0  0  0  0  0  0  0  0  0  0  0
    6.8606   -4.0951    1.2583 H   0  0  0  0  0  0  0  0  0  0  0  0
    7.3196   -3.1227   -0.1507 H   0  0  0  0  0  0  0  0  0  0  0  0
    5.4201   -4.3930   -2.2713 H   0  0  0  0  0  0  0  0  0  0  0  0
    5.6694   -2.6706   -2.0116 H   0  0  0  0  0  0  0  0  0  0  0  0
    4.0451   -3.3531   -1.9635 H   0  0  0  0  0  0  0  0  0  0  0  0
    4.6927    0.5349    1.2647 H   0  0  0  0  0  0  0  0  0  0  0  0
    1.7885   -2.4519    2.4840 H   0  0  0  0  0  0  0  0  0  0  0  0
    2.3392   -9.3815    2.1716 H   0  0  0  0  0  0  0  0  0  0  0  0
    4.5483   -8.1821    2.8721 H   0  0  0  0  0  0  0  0  0  0  0  0
    3.7907   -7.8096    4.3962 H   0  0  0  0  0  0  0  0  0  0  0  0
    4.3139  -10.3663    1.9964 H   0  0  0  0  0  0  0  0  0  0  0  0
    2.5968  -11.8307    3.7533 H   0  0  0  0  0  0  0  0  0  0  0  0
    3.3268  -12.5080    2.3974 H   0  0  0  0  0  0  0  0  0  0  0  0
    3.9519  -12.7469    5.3072 H   0  0  0  0  0  0  0  0  0  0  0  0
    4.2342  -13.8961    3.9885 H   0  0  0  0  0  0  0  0  0  0  0  0
    6.0499  -11.8375    5.1577 H   0  0  0  0  0  0  0  0  0  0  0  0
    6.4895  -13.2062    4.1167 H   0  0  0  0  0  0  0  0  0  0  0  0
    6.0268  -11.9463    2.1337 H   0  0  0  0  0  0  0  0  0  0  0  0
    6.6737  -10.6504    3.1525 H   0  0  0  0  0  0  0  0  0  0  0  0
    1.8557  -10.2418    4.6189 H   0  0  0  0  0  0  0  0  0  0  0  0
    1.4480   -8.6736    5.0807 H   0  0  0  0  0  0  0  0  0  0  0  0
   -0.4106  -10.0963    4.4066 H   0  0  0  0  0  0  0  0  0  0  0  0
    1.6903   -6.8797    3.4409 H   0  0  0  0  0  0  0  0  0  0  0  0
  1  2  1  0
  1 34  1  0
  1 35  1  0
  1 36  1  0
  2 33  1  0
  2  3  1  0
  2 37  1  1
  3  4  1  0
  3 38  1  0
  3 39  1  0
  4  5  1  0
  4 24  1  0
  4 67  1  1
  5  6  1  0
  5 40  1  0
  5 41  1  0
  6  7  2  0
  6  8  1  0
  8 23  1  0
  8  9  1  0
  9 10  1  0
  9 42  1  0
  9 43  1  0
 10 11  1  0
 10 12  1  0
 10 13  1  0
 11 44  1  0
 11 45  1  0
 11 46  1  0
 12 47  1  0
 12 48  1  0
 12 49  1  0
 13 23  2  0
 13 14  1  0
 14 15  2  0
 15 16  1  0
 15 50  1  0
 16 17  1  0
 16 22  2  0
 17 18  1  0
 18 19  1  0
 18 20  1  0
 18 21  1  0
 22 23  1  0
 22 51  1  0
 24 25  1  0
 24 32  1  0
 24 52  1  6
 25 26  1  0
 25 53  1  0
 25 54  1  0
 26 27  1  0
 27 31  1  0
 27 28  1  0
 27 55  1  0
 28 29  1  0
 28 56  1  0
 28 57  1  0
 29 30  1  0
 29 58  1  0
 29 59  1  0
 30 31  1  0
 30 60  1  0
 30 61  1  0
 31 62  1  0
 31 63  1  0
 32 33  1  0
 32 64  1  0
 32 65  1  0
 33 66  1  0
M  CHG  1   4   1
M  END
>  <i_m_ct_stereo_status>  (227) 
1

>  <s_m_source_file>  (227) 
/var/tmp/pbs.5076255.sched01/tmpm261n1hm/82shs6bvht.sdf

>  <i_m_source_file_index>  (227) 
14

>  <i_lp_mmshare_version>  (227) 
48012

>  <i_f3d_flags>  (227) 
0

>  <s_epik_input>  (227) 
W0NIMl0xW0NIMl1bQ0gyXVtDSDJdW0NIXTFPW0NIMl1bQ0BASF0oW0NIMl1bTkhdMilOKFtDSDJdW0NASF0yW0NIM10pW0NIMl1DKD1PKU4oW0NIMl1DMyhbQ0gzXSlbQ0gzXSljKGMzNClbY0hdYyhbY0hdbjQpT0MoRikoRilG

>  <s_epik_cmdline>  (227) 
J2VwaWtfcHl0aG9uJywgJy1waHQnLCAnMi4wJywgJy1waCcsICc3LjAnLCAnLXRuJywgJzgnLCAnLW1hJywgJzIwMCcsICctaW1hZScsICc8aW5maWxlLm1hZT4nLCAnLW9tYWUnLCAnPG91dGZpbGUubWFlPic=

>  <r_epik_Ionization_Penalty>  (227) 
0.186346

>  <r_epik_Ionization_Penalty_Charging>  (227) 
0.176497

>  <r_epik_Ionization_Penalty_Neutral>  (227) 
0.00984905

>  <r_epik_State_Penalty>  (227) 
1.92742

>  <r_epik_Charging_Adjusted_Penalty>  (227) 
2.10392

>  <i_epik_Tot_Q>  (227) 
1

>  <i_epik_Tot_abs_Q>  (227) 
1

>  <s_lp_Force_Field>  (227) 
OPLS3e

>  <r_lp_Energy>  (227) 
44.2852

>  <b_lp_Chiralities_Consistent>  (227) 
1

>  <s_lp_Variant>  (227) 
64:0-2

>  <s_i_glide_gridfile>  (227) 
pfpi4k_grid

>  <i_i_glide_lignum>  (227) 
14

>  <i_i_glide_rotatable_bonds>  (227) 
8

>  <r_i_docking_score>  (227) 
-2.00018

>  <r_i_glide_ligand_efficiency>  (227) 
-0.0606115

>  <r_i_glide_ligand_efficiency_sa>  (227) 
-0.194413

>  <r_i_glide_ligand_efficiency_ln>  (227) 
-0.444829

>  <r_i_glide_gscore>  (227) 
-2.00018

>  <r_i_glide_lipo>  (227) 
-0.427953

>  <r_i_glide_hbond>  (227) 
-0.115352

>  <r_i_glide_metal>  (227) 
-0

>  <r_i_glide_rewards>  (227) 
-0.194071

>  <r_i_glide_evdw>  (227) 
-28.2921

>  <r_i_glide_ecoul>  (227) 
-2.6399

>  <r_i_glide_erotb>  (227) 
0.636363

>  <r_i_glide_esite>  (227) 
-0.0885782

>  <r_i_glide_emodel>  (227) 
-32.8491

>  <r_i_glide_energy>  (227) 
-30.932

>  <r_i_glide_einternal>  (227) 
2.83098

>  <r_i_glide_intrahb_reward>  (227) 
-0

>  <i_i_glide_confnum>  (227) 
27

>  <i_i_glide_posenum>  (227) 
28

>  <r_i_glide_eff_state_penalty>  (227) 
0

>  <ligand_id>  (227) 
64

>  <original_smiles>  (227) 
CC1CN(CC(=O)N2CC(C)(C)c3ncc(OC(F)(F)F)cc32)C(COC2CCCC2)CN1

>  <smiles>  (227) 
[H]c1nc2c(c([H])c1OC(F)(F)F)N(C(=O)C([H])([H])[N+]1([H])C([H])([H])C([H])(C([H])([H])[H])N([H])C([H])([H])C1([H])C([H])([H])OC1([H])C([H])([H])C([H])([H])C([H])([H])C1([H])[H])C([H])([H])C2(C([H])([H])[H])C([H])([H])[H]

$$$$
64:1:2
     RDKit          3D

 67 70  0  0  1  0  0  0  0  0999 V2000
   -1.0971    0.8921    4.0259 C   0  0  0  0  0  0  0  0  0  0  0  0
    0.0069    0.4378    3.0551 C   0  0  2  0  0  0  0  0  0  0  0  0
    0.8713   -0.6279    3.7423 C   0  0  0  0  0  0  0  0  0  0  0  0
    2.0100   -1.0761    2.8992 N   0  0  2  0  0  0  0  0  0  0  0  0
    2.7654   -2.1631    3.5975 C   0  0  0  0  0  0  0  0  0  0  0  0
    2.2094   -3.5570    3.2452 C   0  0  0  0  0  0  0  0  0  0  0  0
    0.9874   -3.7174    3.3118 O   0  0  0  0  0  0  0  0  0  0  0  0
    3.0749   -4.5344    2.9087 N   0  0  0  0  0  0  0  0  0  0  0  0
    4.5006   -4.3014    2.5838 C   0  0  0  0  0  0  0  0  0  0  0  0
    5.0265   -5.6237    1.9267 C   0  0  0  0  0  0  0  0  0  0  0  0
    5.5446   -5.4658    0.4891 C   0  0  0  0  0  0  0  0  0  0  0  0
    6.1372   -6.2019    2.7919 C   0  0  0  0  0  0  0  0  0  0  0  0
    3.7886   -6.5042    1.9598 C   0  0  0  0  0  0  0  0  0  0  0  0
    3.7389   -7.7731    1.4860 N   0  0  0  0  0  0  0  0  0  0  0  0
    2.5748   -8.4304    1.6792 C   0  0  0  0  0  0  0  0  0  0  0  0
    1.4357   -7.8808    2.3311 C   0  0  0  0  0  0  0  0  0  0  0  0
    0.3244   -8.6822    2.4782 O   0  0  0  0  0  0  0  0  0  0  0  0
   -0.7978   -8.2067    3.0506 C   0  0  0  0  0  0  0  0  0  0  0  0
   -1.7995   -9.1127    2.9149 F   0  0  0  0  0  0  0  0  0  0  0  0
   -0.6499   -7.9711    4.3829 F   0  0  0  0  0  0  0  0  0  0  0  0
   -1.2515   -7.0616    2.4687 F   0  0  0  0  0  0  0  0  0  0  0  0
    1.5193   -6.5440    2.8046 C   0  0  0  0  0  0  0  0  0  0  0  0
    2.7267   -5.8498    2.5362 C   0  0  0  0  0  0  0  0  0  0  0  0
    2.8488    0.1002    2.5092 C   0  0  1  0  0  0  0  0  0  0  0  0
    4.0195   -0.2529    1.5390 C   0  0  0  0  0  0  0  0  0  0  0  0
    3.4569   -0.8915    0.4041 O   0  0  0  0  0  0  0  0  0  0  0  0
    4.3896   -1.1108   -0.6505 C   0  0  0  0  0  0  0  0  0  0  0  0
    3.6345   -1.5401   -1.9138 C   0  0  0  0  0  0  0  0  0  0  0  0
    4.5503   -2.5189   -2.6697 C   0  0  0  0  0  0  0  0  0  0  0  0
    5.7200   -2.8522   -1.7356 C   0  0  0  0  0  0  0  0  0  0  0  0
    5.2789   -2.3103   -0.3875 C   0  0  0  0  0  0  0  0  0  0  0  0
    1.9469    1.1734    1.8570 C   0  0  0  0  0  0  0  0  0  0  0  0
    0.8414    1.5812    2.7144 N   0  0  0  0  0  0  0  0  0  0  0  0
   -1.7493    0.0563    4.2820 H   0  0  0  0  0  0  0  0  0  0  0  0
   -1.7183    1.6770    3.5945 H   0  0  0  0  0  0  0  0  0  0  0  0
   -0.6740    1.2659    4.9624 H   0  0  0  0  0  0  0  0  0  0  0  0
   -0.4362    0.0359    2.1415 H   0  0  0  0  0  0  0  0  0  0  0  0
    1.2567   -0.2518    4.6918 H   0  0  0  0  0  0  0  0  0  0  0  0
    0.2262   -1.4681    3.9949 H   0  0  0  0  0  0  0  0  0  0  0  0
    3.8289   -2.1052    3.4055 H   0  0  0  0  0  0  0  0  0  0  0  0
    2.7444   -2.0232    4.6836 H   0  0  0  0  0  0  0  0  0  0  0  0
    4.5925   -3.4563    1.9085 H   0  0  0  0  0  0  0  0  0  0  0  0
    5.0739   -4.0635    3.4843 H   0  0  0  0  0  0  0  0  0  0  0  0
    6.3633   -4.7450    0.4497 H   0  0  0  0  0  0  0  0  0  0  0  0
    4.7411   -5.1910   -0.1924 H   0  0  0  0  0  0  0  0  0  0  0  0
    5.9424   -6.3999    0.0869 H   0  0  0  0  0  0  0  0  0  0  0  0
    6.9768   -5.5085    2.8397 H   0  0  0  0  0  0  0  0  0  0  0  0
    6.5110   -7.1542    2.4002 H   0  0  0  0  0  0  0  0  0  0  0  0
    5.7795   -6.3614    3.8098 H   0  0  0  0  0  0  0  0  0  0  0  0
    2.5567   -9.4450    1.3096 H   0  0  0  0  0  0  0  0  0  0  0  0
    0.7102   -6.0620    3.3378 H   0  0  0  0  0  0  0  0  0  0  0  0
    3.2680    0.5240    3.4200 H   0  0  0  0  0  0  0  0  0  0  0  0
    4.5502    0.6563    1.2281 H   0  0  0  0  0  0  0  0  0  0  0  0
    4.7917   -0.9041    1.9643 H   0  0  0  0  0  0  0  0  0  0  0  0
    4.9872   -0.2211   -0.8390 H   0  0  0  0  0  0  0  0  0  0  0  0
    2.7002   -2.0471   -1.6426 H   0  0  0  0  0  0  0  0  0  0  0  0
    3.3791   -0.6678   -2.5139 H   0  0  0  0  0  0  0  0  0  0  0  0
    3.9763   -3.4145   -2.9405 H   0  0  0  0  0  0  0  0  0  0  0  0
    4.9540   -2.0718   -3.5767 H   0  0  0  0  0  0  0  0  0  0  0  0
    5.8615   -3.9317   -1.7166 H   0  0  0  0  0  0  0  0  0  0  0  0
    6.6643   -2.4082   -2.0550 H   0  0  0  0  0  0  0  0  0  0  0  0
    6.0914   -2.1416    0.3241 H   0  0  0  0  0  0  0  0  0  0  0  0
    4.5687   -3.0409   -0.0366 H   0  0  0  0  0  0  0  0  0  0  0  0
    2.5448    2.0681    1.6897 H   0  0  0  0  0  0  0  0  0  0  0  0
    1.5653    0.8388    0.8882 H   0  0  0  0  0  0  0  0  0  0  0  0
    0.2905    2.2625    2.1947 H   0  0  0  0  0  0  0  0  0  0  0  0
    1.6270   -1.4182    2.0254 H   0  0  0  0  0  0  0  0  0  0  0  0
  1  2  1  0
  1 34  1  0
  1 35  1  0
  1 36  1  0
  2 33  1  0
  2  3  1  0
  2 37  1  6
  3  4  1  0
  3 38  1  0
  3 39  1  0
  4  5  1  0
  4 24  1  0
  4 67  1  6
  5  6  1  0
  5 40  1  0
  5 41  1  0
  6  7  2  0
  6  8  1  0
  8 23  1  0
  8  9  1  0
  9 10  1  0
  9 42  1  0
  9 43  1  0
 10 11  1  0
 10 12  1  0
 10 13  1  0
 11 44  1  0
 11 45  1  0
 11 46  1  0
 12 47  1  0
 12 48  1  0
 12 49  1  0
 13 23  2  0
 13 14  1  0
 14 15  2  0
 15 16  1  0
 15 50  1  0
 16 17  1  0
 16 22  2  0
 17 18  1  0
 18 19  1  0
 18 20  1  0
 18 21  1  0
 22 23  1  0
 22 51  1  0
 24 25  1  0
 24 32  1  0
 24 52  1  1
 25 26  1  0
 25 53  1  0
 25 54  1  0
 26 27  1  0
 27 31  1  0
 27 28  1  0
 27 55  1  0
 28 29  1  0
 28 56  1  0
 28 57  1  0
 29 30  1  0
 29 58  1  0
 29 59  1  0
 30 31  1  0
 30 60  1  0
 30 61  1  0
 31 62  1  0
 31 63  1  0
 32 33  1  0
 32 64  1  0
 32 65  1  0
 33 66  1  0
M  CHG  1   4   1
M  END
>  <i_m_ct_stereo_status>  (228) 
1

>  <s_m_source_file>  (228) 
/var/tmp/pbs.5076255.sched01/tmpm261n1hm/82shs6bvht.sdf

>  <i_m_source_file_index>  (228) 
14

>  <i_lp_mmshare_version>  (228) 
48012

>  <i_f3d_flags>  (228) 
0

>  <s_epik_input>  (228) 
W0NIMl0xW0NIMl1bQ0gyXVtDSDJdW0NIXTFPW0NIMl1bQ0BASF0oW0NIMl1bTkhdMilOKFtDSDJdW0NASF0yW0NIM10pW0NIMl1DKD1PKU4oW0NIMl1DMyhbQ0gzXSlbQ0gzXSljKGMzNClbY0hdYyhbY0hdbjQpT0MoRikoRilG

>  <s_epik_cmdline>  (228) 
J2VwaWtfcHl0aG9uJywgJy1waHQnLCAnMi4wJywgJy1waCcsICc3LjAnLCAnLXRuJywgJzgnLCAnLW1hJywgJzIwMCcsICctaW1hZScsICc8aW5maWxlLm1hZT4nLCAnLW9tYWUnLCAnPG91dGZpbGUubWFlPic=

>  <r_epik_Ionization_Penalty>  (228) 
0.186346

>  <r_epik_Ionization_Penalty_Charging>  (228) 
0.176497

>  <r_epik_Ionization_Penalty_Neutral>  (228) 
0.00984905

>  <r_epik_State_Penalty>  (228) 
1.92742

>  <r_epik_Charging_Adjusted_Penalty>  (228) 
2.10392

>  <i_epik_Tot_Q>  (228) 
1

>  <i_epik_Tot_abs_Q>  (228) 
1

>  <s_lp_Force_Field>  (228) 
OPLS3e

>  <r_lp_Energy>  (228) 
44.2852

>  <b_lp_Chiralities_Consistent>  (228) 
1

>  <s_lp_Variant>  (228) 
64:0-2

>  <s_i_glide_gridfile>  (228) 
pfpi4k_grid

>  <i_i_glide_lignum>  (228) 
14

>  <i_i_glide_rotatable_bonds>  (228) 
8

>  <r_i_docking_score>  (228) 
-1.92647

>  <r_i_glide_ligand_efficiency>  (228) 
-0.0583779

>  <r_i_glide_ligand_efficiency_sa>  (228) 
-0.187249

>  <r_i_glide_ligand_efficiency_ln>  (228) 
-0.428437

>  <r_i_glide_gscore>  (228) 
-1.92647

>  <r_i_glide_lipo>  (228) 
-0.408235

>  <r_i_glide_hbond>  (228) 
0

>  <r_i_glide_metal>  (228) 
-0

>  <r_i_glide_rewards>  (228) 
-0.194344

>  <r_i_glide_evdw>  (228) 
-30.3737

>  <r_i_glide_ecoul>  (228) 
-1.65333

>  <r_i_glide_erotb>  (228) 
0.636363

>  <r_i_glide_esite>  (228) 
-0.193569

>  <r_i_glide_emodel>  (228) 
-32.7168

>  <r_i_glide_energy>  (228) 
-32.027

>  <r_i_glide_einternal>  (228) 
2.16271

>  <r_i_glide_intrahb_reward>  (228) 
-0

>  <i_i_glide_confnum>  (228) 
14

>  <i_i_glide_posenum>  (228) 
1

>  <r_i_glide_eff_state_penalty>  (228) 
0

>  <ligand_id>  (228) 
64

>  <original_smiles>  (228) 
CC1CN(CC(=O)N2CC(C)(C)c3ncc(OC(F)(F)F)cc32)C(COC2CCCC2)CN1

>  <smiles>  (228) 
[H]c1nc2c(c([H])c1OC(F)(F)F)N(C(=O)C([H])([H])[N+]1([H])C([H])([H])C([H])(C([H])([H])[H])N([H])C([H])([H])C1([H])C([H])([H])OC1([H])C([H])([H])C([H])([H])C([H])([H])C1([H])[H])C([H])([H])C2(C([H])([H])[H])C([H])([H])[H]

$$$$
64:2:0
     RDKit          3D

 66 69  0  0  1  0  0  0  0  0999 V2000
    6.5204  -10.2837    1.2128 C   0  0  0  0  0  0  0  0  0  0  0  0
    5.2924   -9.3759    1.2337 C   0  0  2  0  0  0  0  0  0  0  0  0
    5.6679   -7.9870    1.7239 C   0  0  0  0  0  0  0  0  0  0  0  0
    4.5239   -7.0733    1.7859 N   0  0  0  0  0  0  0  0  0  0  0  0
    4.9843   -5.7428    2.2007 C   0  0  0  0  0  0  0  0  0  0  0  0
    5.5417   -4.9136    1.0142 C   0  0  0  0  0  0  0  0  0  0  0  0
    6.6425   -5.1842    0.5177 O   0  0  0  0  0  0  0  0  0  0  0  0
    4.7877   -3.8890    0.5384 N   0  0  0  0  0  0  0  0  0  0  0  0
    4.8631   -3.4726   -0.8663 C   0  0  0  0  0  0  0  0  0  0  0  0
    4.2490   -2.0524   -0.9460 C   0  0  0  0  0  0  0  0  0  0  0  0
    5.2880   -1.0539   -1.4484 C   0  0  0  0  0  0  0  0  0  0  0  0
    3.0341   -2.0139   -1.8762 C   0  0  0  0  0  0  0  0  0  0  0  0
    3.8903   -1.7835    0.4986 C   0  0  0  0  0  0  0  0  0  0  0  0
    3.3991   -0.6102    0.9537 N   0  0  0  0  0  0  0  0  0  0  0  0
    3.1984   -0.4965    2.2827 C   0  0  0  0  0  0  0  0  0  0  0  0
    3.5459   -1.5038    3.2264 C   0  0  0  0  0  0  0  0  0  0  0  0
    3.3609   -1.2521    4.5677 O   0  0  0  0  0  0  0  0  0  0  0  0
    3.8015   -2.1516    5.5092 C   0  0  0  0  0  0  0  0  0  0  0  0
    3.5499   -1.6698    6.7426 F   0  0  0  0  0  0  0  0  0  0  0  0
    3.1609   -3.3405    5.4177 F   0  0  0  0  0  0  0  0  0  0  0  0
    5.1382   -2.3580    5.4386 F   0  0  0  0  0  0  0  0  0  0  0  0
    4.1115   -2.7048    2.7151 C   0  0  0  0  0  0  0  0  0  0  0  0
    4.2242   -2.8518    1.3180 C   0  0  0  0  0  0  0  0  0  0  0  0
    3.4728   -7.6371    2.6630 C   0  0  1  0  0  0  0  0  0  0  0  0
    2.1623   -6.7878    2.7196 C   0  0  0  0  0  0  0  0  0  0  0  0
    1.2893   -7.3737    3.6721 O   0  0  0  0  0  0  0  0  0  0  0  0
   -0.0774   -7.2092    3.3545 C   0  0  0  0  0  0  0  0  0  0  0  0
   -0.9101   -7.6053    4.5653 C   0  0  0  0  0  0  0  0  0  0  0  0
   -2.1582   -8.2529    3.9674 C   0  0  0  0  0  0  0  0  0  0  0  0
   -1.6796   -8.9551    2.7024 C   0  0  0  0  0  0  0  0  0  0  0  0
   -0.4709   -8.1706    2.2184 C   0  0  0  0  0  0  0  0  0  0  0  0
    3.0938   -9.0701    2.1980 C   0  0  0  0  0  0  0  0  0  0  0  0
    4.2617   -9.9412    2.0857 N   0  0  0  0  0  0  0  0  0  0  0  0
    7.2728   -9.8542    0.5531 H   0  0  0  0  0  0  0  0  0  0  0  0
    6.2809  -11.2843    0.8581 H   0  0  0  0  0  0  0  0  0  0  0  0
    6.9608  -10.3756    2.2075 H   0  0  0  0  0  0  0  0  0  0  0  0
    4.8838   -9.2765    0.2321 H   0  0  0  0  0  0  0  0  0  0  0  0
    6.1419   -8.0607    2.7066 H   0  0  0  0  0  0  0  0  0  0  0  0
    6.4207   -7.6047    1.0374 H   0  0  0  0  0  0  0  0  0  0  0  0
    4.1333   -5.2380    2.6200 H   0  0  0  0  0  0  0  0  0  0  0  0
    5.7547   -5.8186    2.9830 H   0  0  0  0  0  0  0  0  0  0  0  0
    5.8946   -3.4632   -1.2128 H   0  0  0  0  0  0  0  0  0  0  0  0
    4.3318   -4.1760   -1.5066 H   0  0  0  0  0  0  0  0  0  0  0  0
    5.6036   -1.3045   -2.4571 H   0  0  0  0  0  0  0  0  0  0  0  0
    6.1655   -1.0267   -0.8026 H   0  0  0  0  0  0  0  0  0  0  0  0
    4.8566   -0.0552   -1.4882 H   0  0  0  0  0  0  0  0  0  0  0  0
    3.2643   -2.3144   -2.8979 H   0  0  0  0  0  0  0  0  0  0  0  0
    2.6403   -0.9990   -1.9355 H   0  0  0  0  0  0  0  0  0  0  0  0
    2.2290   -2.6607   -1.5170 H   0  0  0  0  0  0  0  0  0  0  0  0
    2.7892    0.4403    2.6276 H   0  0  0  0  0  0  0  0  0  0  0  0
    4.4664   -3.4541    3.4136 H   0  0  0  0  0  0  0  0  0  0  0  0
    3.8734   -7.7165    3.6786 H   0  0  0  0  0  0  0  0  0  0  0  0
    2.2607   -5.7506    3.0372 H   0  0  0  0  0  0  0  0  0  0  0  0
    1.7179   -6.7681    1.7171 H   0  0  0  0  0  0  0  0  0  0  0  0
   -0.3006   -6.1765    3.0798 H   0  0  0  0  0  0  0  0  0  0  0  0
   -0.3753   -8.3609    5.1392 H   0  0  0  0  0  0  0  0  0  0  0  0
   -1.1239   -6.7631    5.2260 H   0  0  0  0  0  0  0  0  0  0  0  0
   -2.5860   -8.9718    4.6438 H   0  0  0  0  0  0  0  0  0  0  0  0
   -2.8767   -7.4808    3.6827 H   0  0  0  0  0  0  0  0  0  0  0  0
   -1.3641   -9.9614    2.9721 H   0  0  0  0  0  0  0  0  0  0  0  0
   -2.4621   -9.0345    1.9509 H   0  0  0  0  0  0  0  0  0  0  0  0
   -0.6732   -7.6210    1.3002 H   0  0  0  0  0  0  0  0  0  0  0  0
    0.3240   -8.8831    2.0046 H   0  0  0  0  0  0  0  0  0  0  0  0
    2.3787   -9.5195    2.8866 H   0  0  0  0  0  0  0  0  0  0  0  0
    2.5912   -9.0124    1.2329 H   0  0  0  0  0  0  0  0  0  0  0  0
    3.9824  -10.8250    1.6410 H   0  0  0  0  0  0  0  0  0  0  0  0
  1  2  1  0
  1 34  1  0
  1 35  1  0
  1 36  1  0
  2 33  1  0
  2  3  1  0
  2 37  1  6
  3  4  1  0
  3 38  1  0
  3 39  1  0
  4  5  1  0
  4 24  1  0
  5  6  1  0
  5 40  1  0
  5 41  1  0
  6  7  2  0
  6  8  1  0
  8 23  1  0
  8  9  1  0
  9 10  1  0
  9 42  1  0
  9 43  1  0
 10 11  1  0
 10 12  1  0
 10 13  1  0
 11 44  1  0
 11 45  1  0
 11 46  1  0
 12 47  1  0
 12 48  1  0
 12 49  1  0
 13 23  2  0
 13 14  1  0
 14 15  2  0
 15 16  1  0
 15 50  1  0
 16 17  1  0
 16 22  2  0
 17 18  1  0
 18 19  1  0
 18 20  1  0
 18 21  1  0
 22 23  1  0
 22 51  1  0
 24 25  1  0
 24 32  1  0
 24 52  1  1
 25 26  1  0
 25 53  1  0
 25 54  1  0
 26 27  1  0
 27 31  1  0
 27 28  1  0
 27 55  1  0
 28 29  1  0
 28 56  1  0
 28 57  1  0
 29 30  1  0
 29 58  1  0
 29 59  1  0
 30 31  1  0
 30 60  1  0
 30 61  1  0
 31 62  1  0
 31 63  1  0
 32 33  1  0
 32 64  1  0
 32 65  1  0
 33 66  1  0
M  END
>  <i_m_ct_stereo_status>  (229) 
1

>  <s_m_source_file>  (229) 
/var/tmp/pbs.5076255.sched01/tmpm261n1hm/82shs6bvht.sdf

>  <i_m_source_file_index>  (229) 
15

>  <i_lp_mmshare_version>  (229) 
48012

>  <i_f3d_flags>  (229) 
0

>  <s_epik_input>  (229) 
W0NIMl0xW0NIMl1bQ0gyXVtDSDJdW0NIXTFPW0NIMl1bQ0BASF0oW0NIMl1bTkhdMilOKFtDSDJdW0NASF0yW0NIM10pW0NIMl1DKD1PKU4oW0NIMl1DMyhbQ0gzXSlbQ0gzXSljKGMzNClbY0hdYyhbY0hdbjQpT0MoRikoRilG

>  <s_epik_cmdline>  (229) 
J2VwaWtfcHl0aG9uJywgJy1waHQnLCAnMi4wJywgJy1waCcsICc3LjAnLCAnLXRuJywgJzgnLCAnLW1hJywgJzIwMCcsICctaW1hZScsICc8aW5maWxlLm1hZT4nLCAnLW9tYWUnLCAnPG91dGZpbGUubWFlPic=

>  <r_lp_tautomer_probability>  (229) 
1

>  <r_epik_Ionization_Penalty>  (229) 
3.21916

>  <r_epik_Ionization_Penalty_Charging>  (229) 
0

>  <r_epik_Ionization_Penalty_Neutral>  (229) 
3.21916

>  <r_epik_State_Penalty>  (229) 
2.59656

>  <r_epik_Charging_Adjusted_Penalty>  (229) 
2.59656

>  <i_epik_Tot_Q>  (229) 
0

>  <i_epik_Tot_abs_Q>  (229) 
0

>  <s_lp_Force_Field>  (229) 
OPLS3e

>  <r_lp_Energy>  (229) 
49.8342

>  <b_lp_Chiralities_Consistent>  (229) 
1

>  <s_lp_Variant>  (229) 
64:0-3

>  <s_i_glide_gridfile>  (229) 
pfpi4k_grid

>  <i_i_glide_lignum>  (229) 
15

>  <i_i_glide_rotatable_bonds>  (229) 
8

>  <r_i_docking_score>  (229) 
-1.81535

>  <r_i_glide_ligand_efficiency>  (229) 
-0.0550107

>  <r_i_glide_ligand_efficiency_sa>  (229) 
-0.176449

>  <r_i_glide_ligand_efficiency_ln>  (229) 
-0.403725

>  <r_i_glide_gscore>  (229) 
-1.81535

>  <r_i_glide_lipo>  (229) 
-0.20008

>  <r_i_glide_hbond>  (229) 
-0.16

>  <r_i_glide_metal>  (229) 
-0

>  <r_i_glide_rewards>  (229) 
-0.387748

>  <r_i_glide_evdw>  (229) 
-28.4692

>  <r_i_glide_ecoul>  (229) 
-1.88612

>  <r_i_glide_erotb>  (229) 
0.638853

>  <r_i_glide_esite>  (229) 
0

>  <r_i_glide_emodel>  (229) 
-29.9933

>  <r_i_glide_energy>  (229) 
-30.3553

>  <r_i_glide_einternal>  (229) 
5.54034

>  <r_i_glide_intrahb_reward>  (229) 
-0

>  <i_i_glide_confnum>  (229) 
15

>  <i_i_glide_posenum>  (229) 
26

>  <r_i_glide_eff_state_penalty>  (229) 
0

>  <ligand_id>  (229) 
64

>  <original_smiles>  (229) 
CC1CN(CC(=O)N2CC(C)(C)c3ncc(OC(F)(F)F)cc32)C(COC2CCCC2)CN1

>  <smiles>  (229) 
[H]c1nc2c(c([H])c1OC(F)(F)F)N(C(=O)C([H])([H])N1C([H])([H])C([H])(C([H])([H])[H])N([H])C([H])([H])C1([H])C([H])([H])OC1([H])C([H])([H])C([H])([H])C([H])([H])C1([H])[H])C([H])([H])C2(C([H])([H])[H])C([H])([H])[H]

$$$$
64:2:1
     RDKit          3D

 66 69  0  0  1  0  0  0  0  0999 V2000
   -1.5598   -7.7241    3.4948 C   0  0  0  0  0  0  0  0  0  0  0  0
   -0.0411   -7.9276    3.4123 C   0  0  2  0  0  0  0  0  0  0  0  0
    0.5270   -7.2014    2.1892 C   0  0  0  0  0  0  0  0  0  0  0  0
    1.9792   -7.3707    2.0151 N   0  0  0  0  0  0  0  0  0  0  0  0
    2.4950   -6.5418    0.9167 C   0  0  0  0  0  0  0  0  0  0  0  0
    2.7017   -5.0797    1.3504 C   0  0  0  0  0  0  0  0  0  0  0  0
    2.1140   -4.6588    2.3494 O   0  0  0  0  0  0  0  0  0  0  0  0
    3.5619   -4.3020    0.6470 N   0  0  0  0  0  0  0  0  0  0  0  0
    4.6449   -4.7900   -0.2225 C   0  0  0  0  0  0  0  0  0  0  0  0
    5.5732   -3.5736   -0.5351 C   0  0  0  0  0  0  0  0  0  0  0  0
    6.9607   -3.7795    0.1024 C   0  0  0  0  0  0  0  0  0  0  0  0
    5.6934   -3.3545   -2.0550 C   0  0  0  0  0  0  0  0  0  0  0  0
    4.8404   -2.4513    0.1568 C   0  0  0  0  0  0  0  0  0  0  0  0
    5.2673   -1.1706    0.1711 N   0  0  0  0  0  0  0  0  0  0  0  0
    4.5007   -0.3067    0.8838 C   0  0  0  0  0  0  0  0  0  0  0  0
    3.3364   -0.6723    1.6079 C   0  0  0  0  0  0  0  0  0  0  0  0
    2.6801    0.2989    2.3431 O   0  0  0  0  0  0  0  0  0  0  0  0
    1.6373   -0.0296    3.1534 C   0  0  0  0  0  0  0  0  0  0  0  0
    2.0114   -0.8730    4.1464 F   0  0  0  0  0  0  0  0  0  0  0  0
    1.1547    1.0868    3.7429 F   0  0  0  0  0  0  0  0  0  0  0  0
    0.6167   -0.5938    2.4717 F   0  0  0  0  0  0  0  0  0  0  0  0
    2.9062   -2.0166    1.5354 C   0  0  0  0  0  0  0  0  0  0  0  0
    3.7105   -2.9175    0.8250 C   0  0  0  0  0  0  0  0  0  0  0  0
    2.3055   -8.8094    1.9353 C   0  0  1  0  0  0  0  0  0  0  0  0
    3.8221   -9.1264    1.8698 C   0  0  0  0  0  0  0  0  0  0  0  0
    4.4722   -8.4210    2.9216 O   0  0  0  0  0  0  0  0  0  0  0  0
    5.8824   -8.5556    2.9552 C   0  0  0  0  0  0  0  0  0  0  0  0
    6.4437   -7.8577    4.1965 C   0  0  0  0  0  0  0  0  0  0  0  0
    7.8289   -7.3171    3.8159 C   0  0  0  0  0  0  0  0  0  0  0  0
    7.9462   -7.4513    2.2916 C   0  0  0  0  0  0  0  0  0  0  0  0
    6.5485   -7.8183    1.7986 C   0  0  0  0  0  0  0  0  0  0  0  0
    1.7212   -9.5833    3.1519 C   0  0  0  0  0  0  0  0  0  0  0  0
    0.2801   -9.3497    3.3277 N   0  0  0  0  0  0  0  0  0  0  0  0
   -1.8093   -6.6694    3.5997 H   0  0  0  0  0  0  0  0  0  0  0  0
   -1.9925   -8.2552    4.3417 H   0  0  0  0  0  0  0  0  0  0  0  0
   -2.0488   -8.0907    2.5896 H   0  0  0  0  0  0  0  0  0  0  0  0
    0.4195   -7.5054    4.3097 H   0  0  0  0  0  0  0  0  0  0  0  0
    0.0066   -7.5284    1.2883 H   0  0  0  0  0  0  0  0  0  0  0  0
    0.2580   -6.1585    2.3211 H   0  0  0  0  0  0  0  0  0  0  0  0
    3.4400   -6.9105    0.5387 H   0  0  0  0  0  0  0  0  0  0  0  0
    1.7920   -6.5739    0.0913 H   0  0  0  0  0  0  0  0  0  0  0  0
    5.2127   -5.5145    0.3356 H   0  0  0  0  0  0  0  0  0  0  0  0
    4.2794   -5.3038   -1.1139 H   0  0  0  0  0  0  0  0  0  0  0  0
    7.4716   -4.6501   -0.3023 H   0  0  0  0  0  0  0  0  0  0  0  0
    6.8901   -3.9197    1.1826 H   0  0  0  0  0  0  0  0  0  0  0  0
    7.6054   -2.9183   -0.0692 H   0  0  0  0  0  0  0  0  0  0  0  0
    6.1284   -4.2224   -2.5412 H   0  0  0  0  0  0  0  0  0  0  0  0
    6.3330   -2.4992   -2.2780 H   0  0  0  0  0  0  0  0  0  0  0  0
    4.7195   -3.1882   -2.5120 H   0  0  0  0  0  0  0  0  0  0  0  0
    4.8677    0.7032    0.9090 H   0  0  0  0  0  0  0  0  0  0  0  0
    2.0063   -2.3501    2.0325 H   0  0  0  0  0  0  0  0  0  0  0  0
    1.8370   -9.2151    1.0379 H   0  0  0  0  0  0  0  0  0  0  0  0
    4.0070  -10.1979    1.9630 H   0  0  0  0  0  0  0  0  0  0  0  0
    4.2482   -8.8446    0.9103 H   0  0  0  0  0  0  0  0  0  0  0  0
    6.1695   -9.6086    2.9551 H   0  0  0  0  0  0  0  0  0  0  0  0
    5.8048   -7.0176    4.4825 H   0  0  0  0  0  0  0  0  0  0  0  0
    6.4903   -8.5513    5.0346 H   0  0  0  0  0  0  0  0  0  0  0  0
    7.9253   -6.2763    4.1322 H   0  0  0  0  0  0  0  0  0  0  0  0
    8.6224   -7.8895    4.2956 H   0  0  0  0  0  0  0  0  0  0  0  0
    8.3115   -6.5363    1.8213 H   0  0  0  0  0  0  0  0  0  0  0  0
    8.6310   -8.2535    2.0456 H   0  0  0  0  0  0  0  0  0  0  0  0
    6.5644   -8.4126    0.8872 H   0  0  0  0  0  0  0  0  0  0  0  0
    5.9981   -6.8961    1.6431 H   0  0  0  0  0  0  0  0  0  0  0  0
    1.8941  -10.6520    3.0222 H   0  0  0  0  0  0  0  0  0  0  0  0
    2.2582   -9.2921    4.0607 H   0  0  0  0  0  0  0  0  0  0  0  0
   -0.0485   -9.8310    4.1623 H   0  0  0  0  0  0  0  0  0  0  0  0
  1  2  1  0
  1 34  1  0
  1 35  1  0
  1 36  1  0
  2 33  1  0
  2  3  1  0
  2 37  1  1
  3  4  1  0
  3 38  1  0
  3 39  1  0
  4  5  1  0
  4 24  1  0
  5  6  1  0
  5 40  1  0
  5 41  1  0
  6  7  2  0
  6  8  1  0
  8 23  1  0
  8  9  1  0
  9 10  1  0
  9 42  1  0
  9 43  1  0
 10 11  1  0
 10 12  1  0
 10 13  1  0
 11 44  1  0
 11 45  1  0
 11 46  1  0
 12 47  1  0
 12 48  1  0
 12 49  1  0
 13 23  2  0
 13 14  1  0
 14 15  2  0
 15 16  1  0
 15 50  1  0
 16 17  1  0
 16 22  2  0
 17 18  1  0
 18 19  1  0
 18 20  1  0
 18 21  1  0
 22 23  1  0
 22 51  1  0
 24 25  1  0
 24 32  1  0
 24 52  1  6
 25 26  1  0
 25 53  1  0
 25 54  1  0
 26 27  1  0
 27 31  1  0
 27 28  1  0
 27 55  1  0
 28 29  1  0
 28 56  1  0
 28 57  1  0
 29 30  1  0
 29 58  1  0
 29 59  1  0
 30 31  1  0
 30 60  1  0
 30 61  1  0
 31 62  1  0
 31 63  1  0
 32 33  1  0
 32 64  1  0
 32 65  1  0
 33 66  1  0
M  END
>  <i_m_ct_stereo_status>  (230) 
1

>  <s_m_source_file>  (230) 
/var/tmp/pbs.5076255.sched01/tmpm261n1hm/82shs6bvht.sdf

>  <i_m_source_file_index>  (230) 
15

>  <i_lp_mmshare_version>  (230) 
48012

>  <i_f3d_flags>  (230) 
0

>  <s_epik_input>  (230) 
W0NIMl0xW0NIMl1bQ0gyXVtDSDJdW0NIXTFPW0NIMl1bQ0BASF0oW0NIMl1bTkhdMilOKFtDSDJdW0NASF0yW0NIM10pW0NIMl1DKD1PKU4oW0NIMl1DMyhbQ0gzXSlbQ0gzXSljKGMzNClbY0hdYyhbY0hdbjQpT0MoRikoRilG

>  <s_epik_cmdline>  (230) 
J2VwaWtfcHl0aG9uJywgJy1waHQnLCAnMi4wJywgJy1waCcsICc3LjAnLCAnLXRuJywgJzgnLCAnLW1hJywgJzIwMCcsICctaW1hZScsICc8aW5maWxlLm1hZT4nLCAnLW9tYWUnLCAnPG91dGZpbGUubWFlPic=

>  <r_lp_tautomer_probability>  (230) 
1

>  <r_epik_Ionization_Penalty>  (230) 
3.21916

>  <r_epik_Ionization_Penalty_Charging>  (230) 
0

>  <r_epik_Ionization_Penalty_Neutral>  (230) 
3.21916

>  <r_epik_State_Penalty>  (230) 
2.59656

>  <r_epik_Charging_Adjusted_Penalty>  (230) 
2.59656

>  <i_epik_Tot_Q>  (230) 
0

>  <i_epik_Tot_abs_Q>  (230) 
0

>  <s_lp_Force_Field>  (230) 
OPLS3e

>  <r_lp_Energy>  (230) 
49.8342

>  <b_lp_Chiralities_Consistent>  (230) 
1

>  <s_lp_Variant>  (230) 
64:0-3

>  <s_i_glide_gridfile>  (230) 
pfpi4k_grid

>  <i_i_glide_lignum>  (230) 
15

>  <i_i_glide_rotatable_bonds>  (230) 
8

>  <r_i_docking_score>  (230) 
-1.78347

>  <r_i_glide_ligand_efficiency>  (230) 
-0.0540444

>  <r_i_glide_ligand_efficiency_sa>  (230) 
-0.173349

>  <r_i_glide_ligand_efficiency_ln>  (230) 
-0.396634

>  <r_i_glide_gscore>  (230) 
-1.78347

>  <r_i_glide_lipo>  (230) 
-0.6409

>  <r_i_glide_hbond>  (230) 
0

>  <r_i_glide_metal>  (230) 
-0

>  <r_i_glide_rewards>  (230) 
-0.200943

>  <r_i_glide_evdw>  (230) 
-30.8167

>  <r_i_glide_ecoul>  (230) 
0.190727

>  <r_i_glide_erotb>  (230) 
0.638853

>  <r_i_glide_esite>  (230) 
-0.0682496

>  <r_i_glide_emodel>  (230) 
-31.6667

>  <r_i_glide_energy>  (230) 
-30.626

>  <r_i_glide_einternal>  (230) 
3.28911

>  <r_i_glide_intrahb_reward>  (230) 
-0

>  <i_i_glide_confnum>  (230) 
16

>  <i_i_glide_posenum>  (230) 
1

>  <r_i_glide_eff_state_penalty>  (230) 
0

>  <ligand_id>  (230) 
64

>  <original_smiles>  (230) 
CC1CN(CC(=O)N2CC(C)(C)c3ncc(OC(F)(F)F)cc32)C(COC2CCCC2)CN1

>  <smiles>  (230) 
[H]c1nc2c(c([H])c1OC(F)(F)F)N(C(=O)C([H])([H])N1C([H])([H])C([H])(C([H])([H])[H])N([H])C([H])([H])C1([H])C([H])([H])OC1([H])C([H])([H])C([H])([H])C([H])([H])C1([H])[H])C([H])([H])C2(C([H])([H])[H])C([H])([H])[H]

$$$$
64:2:2
     RDKit          3D

 66 69  0  0  1  0  0  0  0  0999 V2000
   -1.6511   -8.8248    2.5006 C   0  0  0  0  0  0  0  0  0  0  0  0
   -0.3617   -8.4897    3.2569 C   0  0  2  0  0  0  0  0  0  0  0  0
    0.6585   -7.8329    2.3209 C   0  0  0  0  0  0  0  0  0  0  0  0
    1.9469   -7.5457    2.9574 N   0  0  0  0  0  0  0  0  0  0  0  0
    2.8218   -6.8325    2.0258 C   0  0  0  0  0  0  0  0  0  0  0  0
    2.5290   -5.3295    2.0131 C   0  0  0  0  0  0  0  0  0  0  0  0
    1.6681   -4.8757    2.7736 O   0  0  0  0  0  0  0  0  0  0  0  0
    3.2504   -4.5587    1.1704 N   0  0  0  0  0  0  0  0  0  0  0  0
    4.2584   -5.0722    0.2184 C   0  0  0  0  0  0  0  0  0  0  0  0
    5.0290   -3.8375   -0.3420 C   0  0  0  0  0  0  0  0  0  0  0  0
    6.5039   -3.9113    0.0956 C   0  0  0  0  0  0  0  0  0  0  0  0
    4.9262   -3.7563   -1.8788 C   0  0  0  0  0  0  0  0  0  0  0  0
    4.3144   -2.6935    0.3428 C   0  0  0  0  0  0  0  0  0  0  0  0
    4.6708   -1.4074    0.2025 N   0  0  0  0  0  0  0  0  0  0  0  0
    3.9753   -0.5136    0.9523 C   0  0  0  0  0  0  0  0  0  0  0  0
    2.9398   -0.8553    1.8577 C   0  0  0  0  0  0  0  0  0  0  0  0
    2.3650    0.1475    2.6172 O   0  0  0  0  0  0  0  0  0  0  0  0
    1.4626   -0.1333    3.5901 C   0  0  0  0  0  0  0  0  0  0  0  0
    1.1249    1.0037    4.2446 F   0  0  0  0  0  0  0  0  0  0  0  0
    0.3181   -0.6483    3.0836 F   0  0  0  0  0  0  0  0  0  0  0  0
    1.9569   -0.9841    4.5243 F   0  0  0  0  0  0  0  0  0  0  0  0
    2.5693   -2.2225    1.9469 C   0  0  0  0  0  0  0  0  0  0  0  0
    3.3033   -3.1476    1.2037 C   0  0  0  0  0  0  0  0  0  0  0  0
    2.5186   -8.7667    3.5508 C   0  0  1  0  0  0  0  0  0  0  0  0
    3.8207   -8.5362    4.3610 C   0  0  0  0  0  0  0  0  0  0  0  0
    3.5823   -7.5005    5.3049 O   0  0  0  0  0  0  0  0  0  0  0  0
    4.7151   -7.1117    6.0562 C   0  0  0  0  0  0  0  0  0  0  0  0
    4.3027   -6.1310    7.1553 C   0  0  0  0  0  0  0  0  0  0  0  0
    5.4955   -5.1990    7.3818 C   0  0  0  0  0  0  0  0  0  0  0  0
    6.4820   -5.4625    6.2335 C   0  0  0  0  0  0  0  0  0  0  0  0
    5.7380   -6.3386    5.2218 C   0  0  0  0  0  0  0  0  0  0  0  0
    1.4994   -9.4569    4.4991 C   0  0  0  0  0  0  0  0  0  0  0  0
    0.2121   -9.7040    3.8378 N   0  0  0  0  0  0  0  0  0  0  0  0
   -2.1044   -7.9263    2.0841 H   0  0  0  0  0  0  0  0  0  0  0  0
   -2.3846   -9.3073    3.1434 H   0  0  0  0  0  0  0  0  0  0  0  0
   -1.4424   -9.5023    1.6726 H   0  0  0  0  0  0  0  0  0  0  0  0
   -0.5967   -7.7836    4.0572 H   0  0  0  0  0  0  0  0  0  0  0  0
    0.8218   -8.4699    1.4527 H   0  0  0  0  0  0  0  0  0  0  0  0
    0.2157   -6.9156    1.9402 H   0  0  0  0  0  0  0  0  0  0  0  0
    3.8601   -6.8721    2.3291 H   0  0  0  0  0  0  0  0  0  0  0  0
    2.7511   -7.2671    1.0273 H   0  0  0  0  0  0  0  0  0  0  0  0
    4.9587   -5.7379    0.7250 H   0  0  0  0  0  0  0  0  0  0  0  0
    3.7970   -5.6655   -0.5747 H   0  0  0  0  0  0  0  0  0  0  0  0
    6.9897   -4.7957   -0.3076 H   0  0  0  0  0  0  0  0  0  0  0  0
    6.5934   -3.9578    1.1801 H   0  0  0  0  0  0  0  0  0  0  0  0
    7.0604   -3.0437   -0.2488 H   0  0  0  0  0  0  0  0  0  0  0  0
    5.3464   -4.6413   -2.3523 H   0  0  0  0  0  0  0  0  0  0  0  0
    5.4684   -2.8912   -2.2575 H   0  0  0  0  0  0  0  0  0  0  0  0
    3.8912   -3.6727   -2.2069 H   0  0  0  0  0  0  0  0  0  0  0  0
    4.2923    0.5121    0.8635 H   0  0  0  0  0  0  0  0  0  0  0  0
    1.7811   -2.5369    2.6129 H   0  0  0  0  0  0  0  0  0  0  0  0
    2.7414   -9.4625    2.7403 H   0  0  0  0  0  0  0  0  0  0  0  0
    4.1296   -9.4476    4.8726 H   0  0  0  0  0  0  0  0  0  0  0  0
    4.6598   -8.2726    3.7228 H   0  0  0  0  0  0  0  0  0  0  0  0
    5.1849   -7.9829    6.5153 H   0  0  0  0  0  0  0  0  0  0  0  0
    3.4459   -5.5386    6.8275 H   0  0  0  0  0  0  0  0  0  0  0  0
    4.0155   -6.6597    8.0637 H   0  0  0  0  0  0  0  0  0  0  0  0
    5.1608   -4.1612    7.3863 H   0  0  0  0  0  0  0  0  0  0  0  0
    5.9746   -5.3951    8.3409 H   0  0  0  0  0  0  0  0  0  0  0  0
    6.8457   -4.5395    5.7799 H   0  0  0  0  0  0  0  0  0  0  0  0
    7.3446   -6.0147    6.6155 H   0  0  0  0  0  0  0  0  0  0  0  0
    6.4128   -6.9964    4.6663 H   0  0  0  0  0  0  0  0  0  0  0  0
    5.2152   -5.7018    4.5074 H   0  0  0  0  0  0  0  0  0  0  0  0
    1.9097  -10.4036    4.8518 H   0  0  0  0  0  0  0  0  0  0  0  0
    1.3485   -8.8373    5.3884 H   0  0  0  0  0  0  0  0  0  0  0  0
   -0.4519  -10.1212    4.4928 H   0  0  0  0  0  0  0  0  0  0  0  0
  1  2  1  0
  1 34  1  0
  1 35  1  0
  1 36  1  0
  2 33  1  0
  2  3  1  0
  2 37  1  1
  3  4  1  0
  3 38  1  0
  3 39  1  0
  4  5  1  0
  4 24  1  0
  5  6  1  0
  5 40  1  0
  5 41  1  0
  6  7  2  0
  6  8  1  0
  8 23  1  0
  8  9  1  0
  9 10  1  0
  9 42  1  0
  9 43  1  0
 10 11  1  0
 10 12  1  0
 10 13  1  0
 11 44  1  0
 11 45  1  0
 11 46  1  0
 12 47  1  0
 12 48  1  0
 12 49  1  0
 13 23  2  0
 13 14  1  0
 14 15  2  0
 15 16  1  0
 15 50  1  0
 16 17  1  0
 16 22  2  0
 17 18  1  0
 18 19  1  0
 18 20  1  0
 18 21  1  0
 22 23  1  0
 22 51  1  0
 24 25  1  0
 24 32  1  0
 24 52  1  6
 25 26  1  0
 25 53  1  0
 25 54  1  0
 26 27  1  0
 27 31  1  0
 27 28  1  0
 27 55  1  0
 28 29  1  0
 28 56  1  0
 28 57  1  0
 29 30  1  0
 29 58  1  0
 29 59  1  0
 30 31  1  0
 30 60  1  0
 30 61  1  0
 31 62  1  0
 31 63  1  0
 32 33  1  0
 32 64  1  0
 32 65  1  0
 33 66  1  0
M  END
>  <i_m_ct_stereo_status>  (231) 
1

>  <s_m_source_file>  (231) 
/var/tmp/pbs.5076255.sched01/tmpm261n1hm/82shs6bvht.sdf

>  <i_m_source_file_index>  (231) 
15

>  <i_lp_mmshare_version>  (231) 
48012

>  <i_f3d_flags>  (231) 
0

>  <s_epik_input>  (231) 
W0NIMl0xW0NIMl1bQ0gyXVtDSDJdW0NIXTFPW0NIMl1bQ0BASF0oW0NIMl1bTkhdMilOKFtDSDJdW0NASF0yW0NIM10pW0NIMl1DKD1PKU4oW0NIMl1DMyhbQ0gzXSlbQ0gzXSljKGMzNClbY0hdYyhbY0hdbjQpT0MoRikoRilG

>  <s_epik_cmdline>  (231) 
J2VwaWtfcHl0aG9uJywgJy1waHQnLCAnMi4wJywgJy1waCcsICc3LjAnLCAnLXRuJywgJzgnLCAnLW1hJywgJzIwMCcsICctaW1hZScsICc8aW5maWxlLm1hZT4nLCAnLW9tYWUnLCAnPG91dGZpbGUubWFlPic=

>  <r_lp_tautomer_probability>  (231) 
1

>  <r_epik_Ionization_Penalty>  (231) 
3.21916

>  <r_epik_Ionization_Penalty_Charging>  (231) 
0

>  <r_epik_Ionization_Penalty_Neutral>  (231) 
3.21916

>  <r_epik_State_Penalty>  (231) 
2.59656

>  <r_epik_Charging_Adjusted_Penalty>  (231) 
2.59656

>  <i_epik_Tot_Q>  (231) 
0

>  <i_epik_Tot_abs_Q>  (231) 
0

>  <s_lp_Force_Field>  (231) 
OPLS3e

>  <r_lp_Energy>  (231) 
49.8342

>  <b_lp_Chiralities_Consistent>  (231) 
1

>  <s_lp_Variant>  (231) 
64:0-3

>  <s_i_glide_gridfile>  (231) 
pfpi4k_grid

>  <i_i_glide_lignum>  (231) 
15

>  <i_i_glide_rotatable_bonds>  (231) 
8

>  <r_i_docking_score>  (231) 
-1.61439

>  <r_i_glide_ligand_efficiency>  (231) 
-0.0489208

>  <r_i_glide_ligand_efficiency_sa>  (231) 
-0.156915

>  <r_i_glide_ligand_efficiency_ln>  (231) 
-0.359031

>  <r_i_glide_gscore>  (231) 
-1.61439

>  <r_i_glide_lipo>  (231) 
-0.380871

>  <r_i_glide_hbond>  (231) 
-0.144578

>  <r_i_glide_metal>  (231) 
-0

>  <r_i_glide_rewards>  (231) 
-0.200943

>  <r_i_glide_evdw>  (231) 
-25.4961

>  <r_i_glide_ecoul>  (231) 
-1.39031

>  <r_i_glide_erotb>  (231) 
0.638853

>  <r_i_glide_esite>  (231) 
-0.0434948

>  <r_i_glide_emodel>  (231) 
-28.8771

>  <r_i_glide_energy>  (231) 
-26.8864

>  <r_i_glide_einternal>  (231) 
1.7277

>  <r_i_glide_intrahb_reward>  (231) 
-0

>  <i_i_glide_confnum>  (231) 
16

>  <i_i_glide_posenum>  (231) 
28

>  <r_i_glide_eff_state_penalty>  (231) 
0

>  <ligand_id>  (231) 
64

>  <original_smiles>  (231) 
CC1CN(CC(=O)N2CC(C)(C)c3ncc(OC(F)(F)F)cc32)C(COC2CCCC2)CN1

>  <smiles>  (231) 
[H]c1nc2c(c([H])c1OC(F)(F)F)N(C(=O)C([H])([H])N1C([H])([H])C([H])(C([H])([H])[H])N([H])C([H])([H])C1([H])C([H])([H])OC1([H])C([H])([H])C([H])([H])C([H])([H])C1([H])[H])C([H])([H])C2(C([H])([H])[H])C([H])([H])[H]

$$$$
66:0:0
     RDKit          3D

 49 52  0  0  1  0  0  0  0  0999 V2000
    2.3355   -4.6608    3.0710 C   0  0  0  0  0  0  0  0  0  0  0  0
    3.1053   -4.6367    1.7433 C   0  0  2  0  0  0  0  0  0  0  0  0
    3.9988   -5.9313    1.5812 C   0  0  0  0  0  0  0  0  0  0  0  0
    4.7882   -6.0570    0.2324 C   0  0  0  0  0  0  0  0  0  0  0  0
    4.6559   -4.7198   -0.4815 C   0  0  2  0  0  0  0  0  0  0  0  0
    5.1386   -4.2556   -1.8884 C   0  0  0  0  0  0  0  0  0  0  0  0
    4.4313   -2.9571   -2.3884 C   0  0  1  0  0  0  0  0  0  0  0  0
    3.1559   -3.2389   -2.9055 O   0  0  0  0  0  0  0  0  0  0  0  0
    4.4263   -1.6546   -1.4829 C   0  0  2  0  0  0  0  0  0  0  0  0
    4.2174   -0.4958   -2.4573 C   0  0  0  0  0  0  0  0  0  0  0  0
    5.7856   -1.5312   -0.7392 C   0  0  0  0  0  0  0  0  0  0  0  0
    6.1446   -2.6420    0.2927 C   0  0  0  0  0  0  0  0  0  0  0  0
    5.0101   -3.6667    0.5567 C   0  0  2  0  0  0  0  0  0  0  0  0
    3.8775   -3.2788    1.4763 C   0  0  2  0  0  0  0  0  0  0  0  0
    4.4011   -2.7161    2.6577 O   0  0  0  0  0  0  0  0  0  0  0  0
    3.3427   -1.7275    3.1090 O   0  0  0  0  0  0  0  0  0  0  0  0
    2.9987   -1.0006    1.9489 C   0  0  0  0  0  0  0  0  0  0  0  0
    1.6132   -0.3790    2.1497 C   0  0  0  0  0  0  0  0  0  0  0  0
    4.0383    0.1010    1.7603 C   0  0  0  0  0  0  0  0  0  0  0  0
    3.0460   -2.0664    0.8436 C   0  0  1  0  0  0  0  0  0  0  0  0
    3.3849   -1.4315   -0.4605 O   0  0  0  0  0  0  0  0  0  0  0  0
    3.0121   -4.6350    3.9276 H   0  0  0  0  0  0  0  0  0  0  0  0
    1.7533   -5.5833    3.1453 H   0  0  0  0  0  0  0  0  0  0  0  0
    1.6362   -3.8250    3.1522 H   0  0  0  0  0  0  0  0  0  0  0  0
    2.3221   -4.7303    0.9909 H   0  0  0  0  0  0  0  0  0  0  0  0
    4.7212   -5.9524    2.3966 H   0  0  0  0  0  0  0  0  0  0  0  0
    3.3858   -6.8242    1.7090 H   0  0  0  0  0  0  0  0  0  0  0  0
    5.8266   -6.3108    0.4381 H   0  0  0  0  0  0  0  0  0  0  0  0
    4.3736   -6.8515   -0.3837 H   0  0  0  0  0  0  0  0  0  0  0  0
    3.5847   -4.8097   -0.7185 H   0  0  0  0  0  0  0  0  0  0  0  0
    6.2090   -4.0707   -1.9030 H   0  0  0  0  0  0  0  0  0  0  0  0
    4.9981   -5.0343   -2.6335 H   0  0  0  0  0  0  0  0  0  0  0  0
    4.9988   -2.7023   -3.2903 H   0  0  0  0  0  0  0  0  0  0  0  0
    2.9371   -4.1280   -2.6829 H   0  0  0  0  0  0  0  0  0  0  0  0
    4.9953   -0.4261   -3.1967 H   0  0  0  0  0  0  0  0  0  0  0  0
    4.2350    0.4405   -1.9297 H   0  0  0  0  0  0  0  0  0  0  0  0
    3.2501   -0.5461   -2.9615 H   0  0  0  0  0  0  0  0  0  0  0  0
    6.5805   -1.5285   -1.4840 H   0  0  0  0  0  0  0  0  0  0  0  0
    5.8284   -0.5592   -0.2511 H   0  0  0  0  0  0  0  0  0  0  0  0
    7.0204   -3.1789   -0.0653 H   0  0  0  0  0  0  0  0  0  0  0  0
    6.4656   -2.1881    1.2304 H   0  0  0  0  0  0  0  0  0  0  0  0
    4.3513   -3.3133   -0.0933 H   0  0  0  0  0  0  0  0  0  0  0  0
    1.2800    0.1777    1.2727 H   0  0  0  0  0  0  0  0  0  0  0  0
    1.6285    0.3114    2.9893 H   0  0  0  0  0  0  0  0  0  0  0  0
    0.8700   -1.1480    2.3628 H   0  0  0  0  0  0  0  0  0  0  0  0
    3.9042    0.6390    0.8138 H   0  0  0  0  0  0  0  0  0  0  0  0
    5.0545   -0.2821    1.7991 H   0  0  0  0  0  0  0  0  0  0  0  0
    3.9353    0.8435    2.5581 H   0  0  0  0  0  0  0  0  0  0  0  0
    2.0305   -2.4508    0.7409 H   0  0  0  0  0  0  0  0  0  0  0  0
  1  2  1  0
  1 22  1  0
  1 23  1  0
  1 24  1  0
  2 14  1  0
  2  3  1  0
  2 25  1  6
  3  4  1  0
  3 26  1  0
  3 27  1  0
  4  5  1  0
  4 28  1  0
  4 29  1  0
  5 13  1  0
  5  6  1  0
  5 30  1  6
  6  7  1  0
  6 31  1  0
  6 32  1  0
  7  8  1  0
  7  9  1  0
  7 33  1  6
  8 34  1  0
  9 21  1  0
  9 10  1  6
  9 11  1  0
 10 35  1  0
 10 36  1  0
 10 37  1  0
 11 12  1  0
 11 38  1  0
 11 39  1  0
 12 13  1  0
 12 40  1  0
 12 41  1  0
 13 14  1  0
 13 42  1  1
 14 20  1  0
 14 15  1  1
 15 16  1  0
 16 17  1  0
 17 18  1  0
 17 19  1  0
 17 20  1  0
 18 43  1  0
 18 44  1  0
 18 45  1  0
 19 46  1  0
 19 47  1  0
 19 48  1  0
 20 21  1  0
 20 49  1  6
M  END
>  <i_m_ct_stereo_status>  (232) 
1

>  <s_m_source_file>  (232) 
/var/tmp/pbs.5076255.sched01/tmpm261n1hm/82shs6bvht.sdf

>  <i_m_source_file_index>  (232) 
17

>  <i_lp_mmshare_version>  (232) 
48012

>  <i_f3d_flags>  (232) 
0

>  <s_epik_input>  (232) 
W0NIM11bQ0BASF0xW0NIMl1bQ0gyXVtDQEBIXShbQ0BIXTJbQ0BAXTEzNClbQ0gyXVtDQEBIXShbT0hdKVtDQF0oW0NIM10pKFtDSDJdW0NIMl0yKU9bQ0BASF00QyhPTzMpKFtDSDNdKVtDSDNd

>  <s_epik_cmdline>  (232) 
J2VwaWtfcHl0aG9uJywgJy1waHQnLCAnMi4wJywgJy1waCcsICc3LjAnLCAnLXRuJywgJzgnLCAnLW1hJywgJzIwMCcsICctaW1hZScsICc8aW5maWxlLm1hZT4nLCAnLW9tYWUnLCAnPG91dGZpbGUubWFlPic=

>  <r_lp_tautomer_probability>  (232) 
1

>  <r_epik_Ionization_Penalty>  (232) 
1.56896e-07

>  <r_epik_Ionization_Penalty_Charging>  (232) 
0

>  <r_epik_Ionization_Penalty_Neutral>  (232) 
1.56896e-07

>  <r_epik_State_Penalty>  (232) 
-0

>  <r_epik_Charging_Adjusted_Penalty>  (232) 
0

>  <i_epik_Tot_Q>  (232) 
0

>  <i_epik_Tot_abs_Q>  (232) 
0

>  <s_lp_Force_Field>  (232) 
OPLS3e

>  <r_lp_Energy>  (232) 
147.035

>  <b_lp_Chiralities_Consistent>  (232) 
1

>  <s_lp_Variant>  (232) 
66:0-1

>  <s_i_glide_gridfile>  (232) 
pfpi4k_grid

>  <i_i_glide_lignum>  (232) 
17

>  <i_i_glide_rotatable_bonds>  (232) 
1

>  <r_i_docking_score>  (232) 
-3.06782

>  <r_i_glide_ligand_efficiency>  (232) 
-0.146087

>  <r_i_glide_ligand_efficiency_sa>  (232) 
-0.403042

>  <r_i_glide_ligand_efficiency_ln>  (232) 
-0.758513

>  <r_i_glide_gscore>  (232) 
-3.06782

>  <r_i_glide_lipo>  (232) 
-0.388657

>  <r_i_glide_hbond>  (232) 
0

>  <r_i_glide_metal>  (232) 
-0

>  <r_i_glide_rewards>  (232) 
-1.38817

>  <r_i_glide_evdw>  (232) 
-19.0756

>  <r_i_glide_ecoul>  (232) 
-2.24812

>  <r_i_glide_erotb>  (232) 
0

>  <r_i_glide_esite>  (232) 
0

>  <r_i_glide_emodel>  (232) 
-24.0817

>  <r_i_glide_energy>  (232) 
-21.3237

>  <r_i_glide_einternal>  (232) 
1.421

>  <r_i_glide_intrahb_reward>  (232) 
-0

>  <i_i_glide_confnum>  (232) 
1

>  <i_i_glide_posenum>  (232) 
8

>  <r_i_glide_eff_state_penalty>  (232) 
0

>  <ligand_id>  (232) 
66

>  <original_smiles>  (232) 
CC1CCC2CC(O)C3(C)CCC2C12OOC(C)(C)C2O3

>  <smiles>  (232) 
[H]OC1([H])C([H])([H])C2([H])C([H])([H])C([H])([H])C([H])(C([H])([H])[H])C34OOC(C([H])([H])[H])(C([H])([H])[H])C3([H])OC1(C([H])([H])[H])C([H])([H])C([H])([H])C24[H]

$$$$
66:0:1
     RDKit          3D

 49 52  0  0  1  0  0  0  0  0999 V2000
    3.0681   -4.6303    4.9513 C   0  0  0  0  0  0  0  0  0  0  0  0
    3.5547   -4.8006    3.5061 C   0  0  2  0  0  0  0  0  0  0  0  0
    4.3033   -6.1865    3.3163 C   0  0  0  0  0  0  0  0  0  0  0  0
    4.7962   -6.5237    1.8626 C   0  0  0  0  0  0  0  0  0  0  0  0
    4.6247   -5.2641    1.0388 C   0  0  2  0  0  0  0  0  0  0  0  0
    4.8630   -5.0166   -0.4672 C   0  0  0  0  0  0  0  0  0  0  0  0
    4.1750   -3.6606   -0.9677 C   0  0  1  0  0  0  0  0  0  0  0  0
    2.7835   -3.8547   -1.1203 O   0  0  0  0  0  0  0  0  0  0  0  0
    4.4242   -2.2526   -0.2125 C   0  0  2  0  0  0  0  0  0  0  0  0
    4.1621   -1.1038   -1.1984 C   0  0  0  0  0  0  0  0  0  0  0  0
    5.9130   -2.1849    0.2344 C   0  0  0  0  0  0  0  0  0  0  0  0
    6.3753   -3.2493    1.2681 C   0  0  0  0  0  0  0  0  0  0  0  0
    5.2458   -4.1305    1.8597 C   0  0  2  0  0  0  0  0  0  0  0  0
    4.3475   -3.5536    2.9290 C   0  0  2  0  0  0  0  0  0  0  0  0
    5.1370   -2.9346    3.9257 O   0  0  0  0  0  0  0  0  0  0  0  0
    4.2911   -1.8105    4.4570 O   0  0  0  0  0  0  0  0  0  0  0  0
    3.7742   -1.1516    3.3173 C   0  0  0  0  0  0  0  0  0  0  0  0
    2.5103   -0.3870    3.7263 C   0  0  0  0  0  0  0  0  0  0  0  0
    4.8517   -0.1797    2.8273 C   0  0  0  0  0  0  0  0  0  0  0  0
    3.4868   -2.3212    2.3567 C   0  0  1  0  0  0  0  0  0  0  0  0
    3.5197   -1.8976    0.9199 O   0  0  0  0  0  0  0  0  0  0  0  0
    3.9016   -4.5902    5.6559 H   0  0  0  0  0  0  0  0  0  0  0  0
    2.4410   -5.4807    5.2340 H   0  0  0  0  0  0  0  0  0  0  0  0
    2.4689   -3.7262    5.0740 H   0  0  0  0  0  0  0  0  0  0  0  0
    2.6360   -4.8823    2.9250 H   0  0  0  0  0  0  0  0  0  0  0  0
    5.1659   -6.2010    3.9807 H   0  0  0  0  0  0  0  0  0  0  0  0
    3.6561   -6.9932    3.6561 H   0  0  0  0  0  0  0  0  0  0  0  0
    5.8303   -6.8609    1.8797 H   0  0  0  0  0  0  0  0  0  0  0  0
    4.2025   -7.3280    1.4327 H   0  0  0  0  0  0  0  0  0  0  0  0
    3.5228   -5.2664    1.0195 H   0  0  0  0  0  0  0  0  0  0  0  0
    5.9290   -4.9959   -0.6872 H   0  0  0  0  0  0  0  0  0  0  0  0
    4.4836   -5.8653   -1.0254 H   0  0  0  0  0  0  0  0  0  0  0  0
    4.5455   -3.5298   -1.9840 H   0  0  0  0  0  0  0  0  0  0  0  0
    2.6536   -4.5593   -1.7515 H   0  0  0  0  0  0  0  0  0  0  0  0
    4.7886   -1.1572   -2.0888 H   0  0  0  0  0  0  0  0  0  0  0  0
    4.3532   -0.1469   -0.7162 H   0  0  0  0  0  0  0  0  0  0  0  0
    3.1229   -1.1016   -1.5227 H   0  0  0  0  0  0  0  0  0  0  0  0
    6.5487   -2.2760   -0.6485 H   0  0  0  0  0  0  0  0  0  0  0  0
    6.1284   -1.1869    0.6165 H   0  0  0  0  0  0  0  0  0  0  0  0
    7.1310   -3.8891    0.8146 H   0  0  0  0  0  0  0  0  0  0  0  0
    6.8900   -2.7406    2.0739 H   0  0  0  0  0  0  0  0  0  0  0  0
    4.5032   -3.7780    1.3120 H   0  0  0  0  0  0  0  0  0  0  0  0
    2.0498    0.1191    2.8757 H   0  0  0  0  0  0  0  0  0  0  0  0
    2.7476    0.3716    4.4761 H   0  0  0  0  0  0  0  0  0  0  0  0
    1.7711   -1.0589    4.1620 H   0  0  0  0  0  0  0  0  0  0  0  0
    4.5673    0.2763    1.8736 H   0  0  0  0  0  0  0  0  0  0  0  0
    5.8258   -0.6551    2.7106 H   0  0  0  0  0  0  0  0  0  0  0  0
    4.9812    0.6331    3.5443 H   0  0  0  0  0  0  0  0  0  0  0  0
    2.4485   -2.6088    2.5148 H   0  0  0  0  0  0  0  0  0  0  0  0
  1  2  1  0
  1 22  1  0
  1 23  1  0
  1 24  1  0
  2 14  1  0
  2  3  1  0
  2 25  1  6
  3  4  1  0
  3 26  1  0
  3 27  1  0
  4  5  1  0
  4 28  1  0
  4 29  1  0
  5 13  1  0
  5  6  1  0
  5 30  1  6
  6  7  1  0
  6 31  1  0
  6 32  1  0
  7  8  1  0
  7  9  1  0
  7 33  1  6
  8 34  1  0
  9 21  1  0
  9 10  1  6
  9 11  1  0
 10 35  1  0
 10 36  1  0
 10 37  1  0
 11 12  1  0
 11 38  1  0
 11 39  1  0
 12 13  1  0
 12 40  1  0
 12 41  1  0
 13 14  1  0
 13 42  1  1
 14 20  1  0
 14 15  1  1
 15 16  1  0
 16 17  1  0
 17 18  1  0
 17 19  1  0
 17 20  1  0
 18 43  1  0
 18 44  1  0
 18 45  1  0
 19 46  1  0
 19 47  1  0
 19 48  1  0
 20 21  1  0
 20 49  1  1
M  END
>  <i_m_ct_stereo_status>  (233) 
1

>  <s_m_source_file>  (233) 
/var/tmp/pbs.5076255.sched01/tmpm261n1hm/82shs6bvht.sdf

>  <i_m_source_file_index>  (233) 
17

>  <i_lp_mmshare_version>  (233) 
48012

>  <i_f3d_flags>  (233) 
0

>  <s_epik_input>  (233) 
W0NIM11bQ0BASF0xW0NIMl1bQ0gyXVtDQEBIXShbQ0BIXTJbQ0BAXTEzNClbQ0gyXVtDQEBIXShbT0hdKVtDQF0oW0NIM10pKFtDSDJdW0NIMl0yKU9bQ0BASF00QyhPTzMpKFtDSDNdKVtDSDNd

>  <s_epik_cmdline>  (233) 
J2VwaWtfcHl0aG9uJywgJy1waHQnLCAnMi4wJywgJy1waCcsICc3LjAnLCAnLXRuJywgJzgnLCAnLW1hJywgJzIwMCcsICctaW1hZScsICc8aW5maWxlLm1hZT4nLCAnLW9tYWUnLCAnPG91dGZpbGUubWFlPic=

>  <r_lp_tautomer_probability>  (233) 
1

>  <r_epik_Ionization_Penalty>  (233) 
1.56896e-07

>  <r_epik_Ionization_Penalty_Charging>  (233) 
0

>  <r_epik_Ionization_Penalty_Neutral>  (233) 
1.56896e-07

>  <r_epik_State_Penalty>  (233) 
-0

>  <r_epik_Charging_Adjusted_Penalty>  (233) 
0

>  <i_epik_Tot_Q>  (233) 
0

>  <i_epik_Tot_abs_Q>  (233) 
0

>  <s_lp_Force_Field>  (233) 
OPLS3e

>  <r_lp_Energy>  (233) 
147.035

>  <b_lp_Chiralities_Consistent>  (233) 
1

>  <s_lp_Variant>  (233) 
66:0-1

>  <s_i_glide_gridfile>  (233) 
pfpi4k_grid

>  <i_i_glide_lignum>  (233) 
17

>  <i_i_glide_rotatable_bonds>  (233) 
1

>  <r_i_docking_score>  (233) 
-3.05628

>  <r_i_glide_ligand_efficiency>  (233) 
-0.145537

>  <r_i_glide_ligand_efficiency_sa>  (233) 
-0.401526

>  <r_i_glide_ligand_efficiency_ln>  (233) 
-0.755659

>  <r_i_glide_gscore>  (233) 
-3.05628

>  <r_i_glide_lipo>  (233) 
-0.353364

>  <r_i_glide_hbond>  (233) 
0

>  <r_i_glide_metal>  (233) 
-0

>  <r_i_glide_rewards>  (233) 
-1.38817

>  <r_i_glide_evdw>  (233) 
-15.8653

>  <r_i_glide_ecoul>  (233) 
-3.47656

>  <r_i_glide_erotb>  (233) 
0

>  <r_i_glide_esite>  (233) 
0

>  <r_i_glide_emodel>  (233) 
-23.075

>  <r_i_glide_energy>  (233) 
-19.3418

>  <r_i_glide_einternal>  (233) 
0.358097

>  <r_i_glide_intrahb_reward>  (233) 
-0

>  <i_i_glide_confnum>  (233) 
2

>  <i_i_glide_posenum>  (233) 
1

>  <r_i_glide_eff_state_penalty>  (233) 
0

>  <ligand_id>  (233) 
66

>  <original_smiles>  (233) 
CC1CCC2CC(O)C3(C)CCC2C12OOC(C)(C)C2O3

>  <smiles>  (233) 
[H]OC1([H])C([H])([H])C2([H])C([H])([H])C([H])([H])C([H])(C([H])([H])[H])C34OOC(C([H])([H])[H])(C([H])([H])[H])C3([H])OC1(C([H])([H])[H])C([H])([H])C([H])([H])C24[H]

$$$$
66:0:2
     RDKit          3D

 49 52  0  0  1  0  0  0  0  0999 V2000
    0.6631   -3.5000    5.1743 C   0  0  0  0  0  0  0  0  0  0  0  0
    1.4526   -3.9623    3.9417 C   0  0  2  0  0  0  0  0  0  0  0  0
    1.8248   -5.4997    4.0480 C   0  0  0  0  0  0  0  0  0  0  0  0
    2.5785   -6.1291    2.8183 C   0  0  0  0  0  0  0  0  0  0  0  0
    2.9821   -4.9828    1.9090 C   0  0  2  0  0  0  0  0  0  0  0  0
    3.6513   -4.9961    0.5028 C   0  0  0  0  0  0  0  0  0  0  0  0
    3.5216   -3.5784   -0.2290 C   0  0  1  0  0  0  0  0  0  0  0  0
    2.2119   -3.4521   -0.7541 O   0  0  0  0  0  0  0  0  0  0  0  0
    3.9214   -2.1919    0.5000 C   0  0  2  0  0  0  0  0  0  0  0  0
    4.2368   -1.1431   -0.5781 C   0  0  0  0  0  0  0  0  0  0  0  0
    5.2007   -2.4244    1.3610 C   0  0  0  0  0  0  0  0  0  0  0  0
    5.0723   -3.4292    2.5426 C   0  0  0  0  0  0  0  0  0  0  0  0
    3.6362   -3.9360    2.8190 C   0  0  2  0  0  0  0  0  0  0  0  0
    2.6719   -3.0266    3.5483 C   0  0  2  0  0  0  0  0  0  0  0  0
    3.3038   -2.4901    4.6924 O   0  0  0  0  0  0  0  0  0  0  0  0
    2.6788   -1.1397    4.8925 O   0  0  0  0  0  0  0  0  0  0  0  0
    2.6803   -0.5184    3.6203 C   0  0  0  0  0  0  0  0  0  0  0  0
    1.5938    0.5616    3.6085 C   0  0  0  0  0  0  0  0  0  0  0  0
    4.0665    0.1133    3.4096 C   0  0  0  0  0  0  0  0  0  0  0  0
    2.3578   -1.7069    2.6886 C   0  0  1  0  0  0  0  0  0  0  0  0
    2.8628   -1.5012    1.2952 O   0  0  0  0  0  0  0  0  0  0  0  0
    1.2621   -3.5703    6.0847 H   0  0  0  0  0  0  0  0  0  0  0  0
   -0.2150   -4.1357    5.3088 H   0  0  0  0  0  0  0  0  0  0  0  0
    0.3144   -2.4716    5.0663 H   0  0  0  0  0  0  0  0  0  0  0  0
    0.7317   -3.8965    3.1275 H   0  0  0  0  0  0  0  0  0  0  0  0
    2.4470   -5.6375    4.9312 H   0  0  0  0  0  0  0  0  0  0  0  0
    0.9232   -6.0807    4.2333 H   0  0  0  0  0  0  0  0  0  0  0  0
    3.4409   -6.6994    3.1587 H   0  0  0  0  0  0  0  0  0  0  0  0
    1.9281   -6.8181    2.2818 H   0  0  0  0  0  0  0  0  0  0  0  0
    1.9609   -4.7282    1.5761 H   0  0  0  0  0  0  0  0  0  0  0  0
    4.7021   -5.2900    0.5804 H   0  0  0  0  0  0  0  0  0  0  0  0
    3.1748   -5.7574   -0.1110 H   0  0  0  0  0  0  0  0  0  0  0  0
    4.1698   -3.6714   -1.1039 H   0  0  0  0  0  0  0  0  0  0  0  0
    2.0413   -2.5333   -0.9519 H   0  0  0  0  0  0  0  0  0  0  0  0
    5.0398   -1.4582   -1.2440 H   0  0  0  0  0  0  0  0  0  0  0  0
    4.5353   -0.2004   -0.1250 H   0  0  0  0  0  0  0  0  0  0  0  0
    3.3599   -0.9451   -1.1936 H   0  0  0  0  0  0  0  0  0  0  0  0
    6.0003   -2.7789    0.7086 H   0  0  0  0  0  0  0  0  0  0  0  0
    5.5592   -1.4661    1.7315 H   0  0  0  0  0  0  0  0  0  0  0  0
    5.7174   -4.2872    2.3526 H   0  0  0  0  0  0  0  0  0  0  0  0
    5.4823   -2.9723    3.4424 H   0  0  0  0  0  0  0  0  0  0  0  0
    3.1860   -3.4917    2.0586 H   0  0  0  0  0  0  0  0  0  0  0  0
    1.5243    1.0526    2.6357 H   0  0  0  0  0  0  0  0  0  0  0  0
    1.8168    1.3279    4.3542 H   0  0  0  0  0  0  0  0  0  0  0  0
    0.6178    0.1412    3.8493 H   0  0  0  0  0  0  0  0  0  0  0  0
    4.1768    0.4961    2.3910 H   0  0  0  0  0  0  0  0  0  0  0  0
    4.8692   -0.5971    3.6071 H   0  0  0  0  0  0  0  0  0  0  0  0
    4.2127    0.9567    4.0867 H   0  0  0  0  0  0  0  0  0  0  0  0
    1.2770   -1.7169    2.5602 H   0  0  0  0  0  0  0  0  0  0  0  0
  1  2  1  0
  1 22  1  0
  1 23  1  0
  1 24  1  0
  2 14  1  0
  2  3  1  0
  2 25  1  6
  3  4  1  0
  3 26  1  0
  3 27  1  0
  4  5  1  0
  4 28  1  0
  4 29  1  0
  5 13  1  0
  5  6  1  0
  5 30  1  6
  6  7  1  0
  6 31  1  0
  6 32  1  0
  7  8  1  0
  7  9  1  0
  7 33  1  6
  8 34  1  0
  9 21  1  0
  9 10  1  6
  9 11  1  0
 10 35  1  0
 10 36  1  0
 10 37  1  0
 11 12  1  0
 11 38  1  0
 11 39  1  0
 12 13  1  0
 12 40  1  0
 12 41  1  0
 13 14  1  0
 13 42  1  1
 14 20  1  0
 14 15  1  1
 15 16  1  0
 16 17  1  0
 17 18  1  0
 17 19  1  0
 17 20  1  0
 18 43  1  0
 18 44  1  0
 18 45  1  0
 19 46  1  0
 19 47  1  0
 19 48  1  0
 20 21  1  0
 20 49  1  6
M  END
>  <i_m_ct_stereo_status>  (234) 
1

>  <s_m_source_file>  (234) 
/var/tmp/pbs.5076255.sched01/tmpm261n1hm/82shs6bvht.sdf

>  <i_m_source_file_index>  (234) 
17

>  <i_lp_mmshare_version>  (234) 
48012

>  <i_f3d_flags>  (234) 
0

>  <s_epik_input>  (234) 
W0NIM11bQ0BASF0xW0NIMl1bQ0gyXVtDQEBIXShbQ0BIXTJbQ0BAXTEzNClbQ0gyXVtDQEBIXShbT0hdKVtDQF0oW0NIM10pKFtDSDJdW0NIMl0yKU9bQ0BASF00QyhPTzMpKFtDSDNdKVtDSDNd

>  <s_epik_cmdline>  (234) 
J2VwaWtfcHl0aG9uJywgJy1waHQnLCAnMi4wJywgJy1waCcsICc3LjAnLCAnLXRuJywgJzgnLCAnLW1hJywgJzIwMCcsICctaW1hZScsICc8aW5maWxlLm1hZT4nLCAnLW9tYWUnLCAnPG91dGZpbGUubWFlPic=

>  <r_lp_tautomer_probability>  (234) 
1

>  <r_epik_Ionization_Penalty>  (234) 
1.56896e-07

>  <r_epik_Ionization_Penalty_Charging>  (234) 
0

>  <r_epik_Ionization_Penalty_Neutral>  (234) 
1.56896e-07

>  <r_epik_State_Penalty>  (234) 
-0

>  <r_epik_Charging_Adjusted_Penalty>  (234) 
0

>  <i_epik_Tot_Q>  (234) 
0

>  <i_epik_Tot_abs_Q>  (234) 
0

>  <s_lp_Force_Field>  (234) 
OPLS3e

>  <r_lp_Energy>  (234) 
147.035

>  <b_lp_Chiralities_Consistent>  (234) 
1

>  <s_lp_Variant>  (234) 
66:0-1

>  <s_i_glide_gridfile>  (234) 
pfpi4k_grid

>  <i_i_glide_lignum>  (234) 
17

>  <i_i_glide_rotatable_bonds>  (234) 
1

>  <r_i_docking_score>  (234) 
-2.69197

>  <r_i_glide_ligand_efficiency>  (234) 
-0.128189

>  <r_i_glide_ligand_efficiency_sa>  (234) 
-0.353664

>  <r_i_glide_ligand_efficiency_ln>  (234) 
-0.665584

>  <r_i_glide_gscore>  (234) 
-2.69197

>  <r_i_glide_lipo>  (234) 
-0.105338

>  <r_i_glide_hbond>  (234) 
0

>  <r_i_glide_metal>  (234) 
-0

>  <r_i_glide_rewards>  (234) 
-1.38817

>  <r_i_glide_evdw>  (234) 
-18.5549

>  <r_i_glide_ecoul>  (234) 
-1.80478

>  <r_i_glide_erotb>  (234) 
0

>  <r_i_glide_esite>  (234) 
0

>  <r_i_glide_emodel>  (234) 
-23.3191

>  <r_i_glide_energy>  (234) 
-20.3597

>  <r_i_glide_einternal>  (234) 
0.642153

>  <r_i_glide_intrahb_reward>  (234) 
-0

>  <i_i_glide_confnum>  (234) 
2

>  <i_i_glide_posenum>  (234) 
2

>  <r_i_glide_eff_state_penalty>  (234) 
0

>  <ligand_id>  (234) 
66

>  <original_smiles>  (234) 
CC1CCC2CC(O)C3(C)CCC2C12OOC(C)(C)C2O3

>  <smiles>  (234) 
[H]OC1([H])C([H])([H])C2([H])C([H])([H])C([H])([H])C([H])(C([H])([H])[H])C34OOC(C([H])([H])[H])(C([H])([H])[H])C3([H])OC1(C([H])([H])[H])C([H])([H])C([H])([H])C24[H]

$$$$
68:0:0
     RDKit          3D

 41 45  0  0  1  0  0  0  0  0999 V2000
    4.1432   -2.3916   -3.0336 C   0  0  0  0  0  0  0  0  0  0  0  0
    3.9489   -3.4149   -1.9770 N   0  0  2  0  0  0  0  0  0  0  0  0
    2.6835   -3.1603   -1.2099 C   0  0  0  0  0  0  0  0  0  0  0  0
    2.8871   -2.3050    0.0729 C   0  0  0  0  0  0  0  0  0  0  0  0
    4.0880   -2.8572    0.8718 C   0  0  2  0  0  0  0  0  0  0  0  0
    3.7796   -4.2624    1.2363 C   0  0  0  0  0  0  0  0  0  0  0  0
    4.1411   -5.3930    0.5084 C   0  0  0  0  0  0  0  0  0  0  0  0
    3.6144   -6.6096    0.9828 C   0  0  0  0  0  0  0  0  0  0  0  0
    2.7753   -6.6069    2.1322 C   0  0  0  0  0  0  0  0  0  0  0  0
    2.5256   -5.4176    2.8731 C   0  0  0  0  0  0  0  0  0  0  0  0
    1.7764   -5.4597    4.0116 O   0  0  0  0  0  0  0  0  0  0  0  0
    3.0793   -4.1963    2.4378 C   0  0  0  0  0  0  0  0  0  0  0  0
    3.1424   -2.9442    3.0274 O   0  0  0  0  0  0  0  0  0  0  0  0
    4.2787   -2.4421    2.3178 C   0  0  2  0  0  0  0  0  0  0  0  0
    4.8614   -1.0623    2.4679 C   0  0  0  0  0  0  0  0  0  0  0  0
    4.3550   -0.1513    3.1155 O   0  0  0  0  0  0  0  0  0  0  0  0
    6.2148   -0.9609    1.7253 C   0  0  0  0  0  0  0  0  0  0  0  0
    6.5321   -2.2006    0.7886 C   0  0  0  0  0  0  0  0  0  0  0  0
    5.2784   -2.5856   -0.0395 C   0  0  1  0  0  0  0  0  0  0  0  0
    5.1867   -3.6667   -1.1485 C   0  0  1  0  0  0  0  0  0  0  0  0
    5.1635   -5.1160   -0.5932 C   0  0  0  0  0  0  0  0  0  0  0  0
    4.2341   -1.3960   -2.5985 H   0  0  0  0  0  0  0  0  0  0  0  0
    3.2895   -2.3764   -3.7117 H   0  0  0  0  0  0  0  0  0  0  0  0
    5.0354   -2.5972   -3.6229 H   0  0  0  0  0  0  0  0  0  0  0  0
    1.9344   -2.7000   -1.8571 H   0  0  0  0  0  0  0  0  0  0  0  0
    2.2481   -4.1222   -0.9397 H   0  0  0  0  0  0  0  0  0  0  0  0
    3.0413   -1.2556   -0.1975 H   0  0  0  0  0  0  0  0  0  0  0  0
    1.9779   -2.3147    0.6733 H   0  0  0  0  0  0  0  0  0  0  0  0
    3.8524   -7.5346    0.4790 H   0  0  0  0  0  0  0  0  0  0  0  0
    2.3594   -7.5431    2.4613 H   0  0  0  0  0  0  0  0  0  0  0  0
    1.5627   -6.3409    4.2768 H   0  0  0  0  0  0  0  0  0  0  0  0
    5.0991   -3.0304    2.7359 H   0  0  0  0  0  0  0  0  0  0  0  0
    6.1921   -0.0484    1.1312 H   0  0  0  0  0  0  0  0  0  0  0  0
    7.0075   -0.8309    2.4631 H   0  0  0  0  0  0  0  0  0  0  0  0
    7.3595   -1.9447    0.1255 H   0  0  0  0  0  0  0  0  0  0  0  0
    6.8732   -3.0562    1.3773 H   0  0  0  0  0  0  0  0  0  0  0  0
    5.1286   -1.6344   -0.5544 H   0  0  0  0  0  0  0  0  0  0  0  0
    6.0507   -3.5858   -1.8072 H   0  0  0  0  0  0  0  0  0  0  0  0
    6.1445   -5.3436   -0.1830 H   0  0  0  0  0  0  0  0  0  0  0  0
    5.0106   -5.8288   -1.4007 H   0  0  0  0  0  0  0  0  0  0  0  0
    3.7716   -4.2879   -2.4679 H   0  0  0  0  0  0  0  0  0  0  0  0
  1  2  1  0
  1 22  1  0
  1 23  1  0
  1 24  1  0
  2 20  1  0
  2  3  1  0
  2 41  1  6
  3  4  1  0
  3 25  1  0
  3 26  1  0
  5  4  1  6
  4 27  1  0
  4 28  1  0
  5 14  1  0
  5 19  1  0
  5  6  1  0
  6 12  2  0
  6  7  1  0
  7 21  1  0
  7  8  2  0
  8  9  1  0
  8 29  1  0
  9 10  2  0
  9 30  1  0
 10 11  1  0
 10 12  1  0
 11 31  1  0
 12 13  1  0
 13 14  1  0
 14 15  1  0
 14 32  1  1
 15 16  2  0
 15 17  1  0
 17 18  1  0
 17 33  1  0
 17 34  1  0
 18 19  1  0
 18 35  1  0
 18 36  1  0
 19 20  1  0
 19 37  1  6
 20 21  1  0
 20 38  1  6
 21 39  1  0
 21 40  1  0
M  CHG  1   2   1
M  END
>  <i_m_ct_stereo_status>  (235) 
1

>  <s_m_source_file>  (235) 
/var/tmp/pbs.5076255.sched01/tmpm261n1hm/82shs6bvht.sdf

>  <i_m_source_file_index>  (235) 
19

>  <i_lp_mmshare_version>  (235) 
48012

>  <i_f3d_flags>  (235) 
0

>  <s_epik_input>  (235) 
W0NIMl0xW0NIMl1OKFtDSDNdKVtDQEhdKFtDSDJdMilbQ0BASF0zW0NIMl1bQ0gyXUMoPU8pW0NASF00T2M1YyhbT0hdKVtjSF1bY0hdYzJjNVtDQF0xMzQ=

>  <s_epik_cmdline>  (235) 
J2VwaWtfcHl0aG9uJywgJy1waHQnLCAnMi4wJywgJy1waCcsICc3LjAnLCAnLXRuJywgJzgnLCAnLW1hJywgJzIwMCcsICctaW1hZScsICc8aW5maWxlLm1hZT4nLCAnLW9tYWUnLCAnPG91dGZpbGUubWFlPic=

>  <r_lp_tautomer_probability>  (235) 
1

>  <r_epik_Ionization_Penalty>  (235) 
0.0754726

>  <r_epik_Ionization_Penalty_Charging>  (235) 
0.0397053

>  <r_epik_Ionization_Penalty_Neutral>  (235) 
0.0357673

>  <r_epik_State_Penalty>  (235) 
0.0616185

>  <r_epik_Charging_Adjusted_Penalty>  (235) 
0.101324

>  <i_epik_Tot_Q>  (235) 
1

>  <i_epik_Tot_abs_Q>  (235) 
1

>  <s_lp_Force_Field>  (235) 
OPLS3e

>  <r_lp_Energy>  (235) 
84.573

>  <b_lp_Chiralities_Consistent>  (235) 
1

>  <s_lp_Variant>  (235) 
68:0-1

>  <s_i_glide_gridfile>  (235) 
pfpi4k_grid

>  <i_i_glide_lignum>  (235) 
19

>  <i_i_glide_rotatable_bonds>  (235) 
1

>  <r_i_docking_score>  (235) 
-3.57007

>  <r_i_glide_ligand_efficiency>  (235) 
-0.170004

>  <r_i_glide_ligand_efficiency_sa>  (235) 
-0.469027

>  <r_i_glide_ligand_efficiency_ln>  (235) 
-0.882693

>  <r_i_glide_gscore>  (235) 
-3.57007

>  <r_i_glide_lipo>  (235) 
-0.501823

>  <r_i_glide_hbond>  (235) 
0

>  <r_i_glide_metal>  (235) 
-0

>  <r_i_glide_rewards>  (235) 
-1.57987

>  <r_i_glide_evdw>  (235) 
-18.2526

>  <r_i_glide_ecoul>  (235) 
-3.6779

>  <r_i_glide_erotb>  (235) 
0

>  <r_i_glide_esite>  (235) 
-0.0240694

>  <r_i_glide_emodel>  (235) 
-27.2556

>  <r_i_glide_energy>  (235) 
-21.9305

>  <r_i_glide_einternal>  (235) 
0.0548883

>  <r_i_glide_intrahb_reward>  (235) 
-0

>  <i_i_glide_confnum>  (235) 
1

>  <i_i_glide_posenum>  (235) 
12

>  <r_i_glide_eff_state_penalty>  (235) 
0

>  <ligand_id>  (235) 
68

>  <original_smiles>  (235) 
CN1CCC23c4c5ccc(O)c4OC2C(=O)CCC3C1C5

>  <smiles>  (235) 
[H]Oc1c([H])c([H])c2c3c1OC1([H])C(=O)C([H])([H])C([H])([H])C4([H])C31C([H])([H])C([H])([H])[N+]([H])(C([H])([H])[H])C4([H])C2([H])[H]

$$$$
68:0:1
     RDKit          3D

 41 45  0  0  1  0  0  0  0  0999 V2000
    3.2948   -2.3024   -2.4320 C   0  0  0  0  0  0  0  0  0  0  0  0
    3.4866   -3.4159   -1.4697 N   0  0  2  0  0  0  0  0  0  0  0  0
    2.3839   -3.4362   -0.4536 C   0  0  0  0  0  0  0  0  0  0  0  0
    2.6982   -2.6428    0.8483 C   0  0  0  0  0  0  0  0  0  0  0  0
    4.1131   -3.0307    1.3418 C   0  0  2  0  0  0  0  0  0  0  0  0
    4.1114   -4.4903    1.6171 C   0  0  0  0  0  0  0  0  0  0  0  0
    4.4802   -5.4927    0.7213 C   0  0  0  0  0  0  0  0  0  0  0  0
    4.2583   -6.8114    1.1606 C   0  0  0  0  0  0  0  0  0  0  0  0
    3.6903   -7.0291    2.4471 C   0  0  0  0  0  0  0  0  0  0  0  0
    3.4227   -5.9522    3.3400 C   0  0  0  0  0  0  0  0  0  0  0  0
    2.9441   -6.1979    4.5926 O   0  0  0  0  0  0  0  0  0  0  0  0
    3.6781   -4.6273    2.9320 C   0  0  0  0  0  0  0  0  0  0  0  0
    3.6669   -3.4247    3.6210 O   0  0  0  0  0  0  0  0  0  0  0  0
    4.5368   -2.6873    2.7573 C   0  0  2  0  0  0  0  0  0  0  0  0
    4.9210   -1.2411    2.9316 C   0  0  0  0  0  0  0  0  0  0  0  0
    4.4221   -0.4744    3.7508 O   0  0  0  0  0  0  0  0  0  0  0  0
    6.0630   -0.8619    1.9584 C   0  0  0  0  0  0  0  0  0  0  0  0
    6.3621   -1.9629    0.8582 C   0  0  0  0  0  0  0  0  0  0  0  0
    5.0368   -2.4996    0.2519 C   0  0  1  0  0  0  0  0  0  0  0  0
    4.8895   -3.5041   -0.9217 C   0  0  1  0  0  0  0  0  0  0  0  0
    5.2049   -4.9700   -0.5170 C   0  0  0  0  0  0  0  0  0  0  0  0
    3.3144   -1.3367   -1.9241 H   0  0  0  0  0  0  0  0  0  0  0  0
    2.3263   -2.3863   -2.9283 H   0  0  0  0  0  0  0  0  0  0  0  0
    4.0658   -2.3075   -3.2030 H   0  0  0  0  0  0  0  0  0  0  0  0
    1.4597   -3.0702   -0.9018 H   0  0  0  0  0  0  0  0  0  0  0  0
    2.1710   -4.4746   -0.2006 H   0  0  0  0  0  0  0  0  0  0  0  0
    2.6272   -1.5668    0.6596 H   0  0  0  0  0  0  0  0  0  0  0  0
    1.9408   -2.8512    1.6049 H   0  0  0  0  0  0  0  0  0  0  0  0
    4.5263   -7.6443    0.5256 H   0  0  0  0  0  0  0  0  0  0  0  0
    3.5007   -8.0422    2.7559 H   0  0  0  0  0  0  0  0  0  0  0  0
    2.8412   -7.1192    4.7751 H   0  0  0  0  0  0  0  0  0  0  0  0
    5.5072   -3.1540    2.9485 H   0  0  0  0  0  0  0  0  0  0  0  0
    5.7816    0.0748    1.4784 H   0  0  0  0  0  0  0  0  0  0  0  0
    6.9636   -0.6605    2.5389 H   0  0  0  0  0  0  0  0  0  0  0  0
    6.9842   -1.5245    0.0776 H   0  0  0  0  0  0  0  0  0  0  0  0
    6.9461   -2.7842    1.2812 H   0  0  0  0  0  0  0  0  0  0  0  0
    4.6401   -1.5564   -0.1272 H   0  0  0  0  0  0  0  0  0  0  0  0
    5.5771   -3.2341   -1.7220 H   0  0  0  0  0  0  0  0  0  0  0  0
    6.2688   -5.0481   -0.3033 H   0  0  0  0  0  0  0  0  0  0  0  0
    5.0161   -5.6460   -1.3484 H   0  0  0  0  0  0  0  0  0  0  0  0
    3.3513   -4.2655   -2.0117 H   0  0  0  0  0  0  0  0  0  0  0  0
  1  2  1  0
  1 22  1  0
  1 23  1  0
  1 24  1  0
  2 20  1  0
  2  3  1  0
  2 41  1  6
  3  4  1  0
  3 25  1  0
  3 26  1  0
  5  4  1  6
  4 27  1  0
  4 28  1  0
  5 14  1  0
  5 19  1  0
  5  6  1  0
  6 12  2  0
  6  7  1  0
  7 21  1  0
  7  8  2  0
  8  9  1  0
  8 29  1  0
  9 10  2  0
  9 30  1  0
 10 11  1  0
 10 12  1  0
 11 31  1  0
 12 13  1  0
 13 14  1  0
 14 15  1  0
 14 32  1  6
 15 16  2  0
 15 17  1  0
 17 18  1  0
 17 33  1  0
 17 34  1  0
 18 19  1  0
 18 35  1  0
 18 36  1  0
 19 20  1  0
 19 37  1  6
 20 21  1  0
 20 38  1  6
 21 39  1  0
 21 40  1  0
M  CHG  1   2   1
M  END
>  <i_m_ct_stereo_status>  (236) 
1

>  <s_m_source_file>  (236) 
/var/tmp/pbs.5076255.sched01/tmpm261n1hm/82shs6bvht.sdf

>  <i_m_source_file_index>  (236) 
19

>  <i_lp_mmshare_version>  (236) 
48012

>  <i_f3d_flags>  (236) 
0

>  <s_epik_input>  (236) 
W0NIMl0xW0NIMl1OKFtDSDNdKVtDQEhdKFtDSDJdMilbQ0BASF0zW0NIMl1bQ0gyXUMoPU8pW0NASF00T2M1YyhbT0hdKVtjSF1bY0hdYzJjNVtDQF0xMzQ=

>  <s_epik_cmdline>  (236) 
J2VwaWtfcHl0aG9uJywgJy1waHQnLCAnMi4wJywgJy1waCcsICc3LjAnLCAnLXRuJywgJzgnLCAnLW1hJywgJzIwMCcsICctaW1hZScsICc8aW5maWxlLm1hZT4nLCAnLW9tYWUnLCAnPG91dGZpbGUubWFlPic=

>  <r_lp_tautomer_probability>  (236) 
1

>  <r_epik_Ionization_Penalty>  (236) 
0.0754726

>  <r_epik_Ionization_Penalty_Charging>  (236) 
0.0397053

>  <r_epik_Ionization_Penalty_Neutral>  (236) 
0.0357673

>  <r_epik_State_Penalty>  (236) 
0.0616185

>  <r_epik_Charging_Adjusted_Penalty>  (236) 
0.101324

>  <i_epik_Tot_Q>  (236) 
1

>  <i_epik_Tot_abs_Q>  (236) 
1

>  <s_lp_Force_Field>  (236) 
OPLS3e

>  <r_lp_Energy>  (236) 
84.573

>  <b_lp_Chiralities_Consistent>  (236) 
1

>  <s_lp_Variant>  (236) 
68:0-1

>  <s_i_glide_gridfile>  (236) 
pfpi4k_grid

>  <i_i_glide_lignum>  (236) 
19

>  <i_i_glide_rotatable_bonds>  (236) 
1

>  <r_i_docking_score>  (236) 
-3.53131

>  <r_i_glide_ligand_efficiency>  (236) 
-0.168158

>  <r_i_glide_ligand_efficiency_sa>  (236) 
-0.463934

>  <r_i_glide_ligand_efficiency_ln>  (236) 
-0.873109

>  <r_i_glide_gscore>  (236) 
-3.53131

>  <r_i_glide_lipo>  (236) 
-0.424824

>  <r_i_glide_hbond>  (236) 
0

>  <r_i_glide_metal>  (236) 
-0

>  <r_i_glide_rewards>  (236) 
-1.5716

>  <r_i_glide_evdw>  (236) 
-17.0592

>  <r_i_glide_ecoul>  (236) 
-4.54614

>  <r_i_glide_erotb>  (236) 
0

>  <r_i_glide_esite>  (236) 
0

>  <r_i_glide_emodel>  (236) 
-26.9066

>  <r_i_glide_energy>  (236) 
-21.6053

>  <r_i_glide_einternal>  (236) 
0.0042097

>  <r_i_glide_intrahb_reward>  (236) 
-0

>  <i_i_glide_confnum>  (236) 
1

>  <i_i_glide_posenum>  (236) 
39

>  <r_i_glide_eff_state_penalty>  (236) 
0

>  <ligand_id>  (236) 
68

>  <original_smiles>  (236) 
CN1CCC23c4c5ccc(O)c4OC2C(=O)CCC3C1C5

>  <smiles>  (236) 
[H]Oc1c([H])c([H])c2c3c1OC1([H])C(=O)C([H])([H])C([H])([H])C4([H])C31C([H])([H])C([H])([H])[N+]([H])(C([H])([H])[H])C4([H])C2([H])[H]

$$$$
68:0:2
     RDKit          3D

 41 45  0  0  1  0  0  0  0  0999 V2000
    3.1684   -1.3645   -3.0282 C   0  0  0  0  0  0  0  0  0  0  0  0
    4.1385   -2.1192   -2.2015 N   0  0  2  0  0  0  0  0  0  0  0  0
    3.5787   -3.4458   -1.7688 C   0  0  0  0  0  0  0  0  0  0  0  0
    2.8906   -3.4139   -0.3770 C   0  0  0  0  0  0  0  0  0  0  0  0
    3.8111   -2.6718    0.6251 C   0  0  2  0  0  0  0  0  0  0  0  0
    5.0865   -3.4260    0.7085 C   0  0  0  0  0  0  0  0  0  0  0  0
    6.2342   -3.1839   -0.0450 C   0  0  0  0  0  0  0  0  0  0  0  0
    7.2713   -4.1240    0.1119 C   0  0  0  0  0  0  0  0  0  0  0  0
    7.0847   -5.2254    0.9955 C   0  0  0  0  0  0  0  0  0  0  0  0
    5.9149   -5.3492    1.7960 C   0  0  0  0  0  0  0  0  0  0  0  0
    5.7944   -6.3732    2.6874 O   0  0  0  0  0  0  0  0  0  0  0  0
    4.8849   -4.3942    1.6858 C   0  0  0  0  0  0  0  0  0  0  0  0
    3.7385   -4.1787    2.4324 O   0  0  0  0  0  0  0  0  0  0  0  0
    3.5489   -2.7961    2.1133 C   0  0  2  0  0  0  0  0  0  0  0  0
    2.4092   -1.9343    2.5929 C   0  0  0  0  0  0  0  0  0  0  0  0
    1.4234   -2.3494    3.1989 O   0  0  0  0  0  0  0  0  0  0  0  0
    2.6709   -0.4453    2.2527 C   0  0  0  0  0  0  0  0  0  0  0  0
    3.8987   -0.2186    1.2735 C   0  0  0  0  0  0  0  0  0  0  0  0
    3.8604   -1.2418    0.1077 C   0  0  1  0  0  0  0  0  0  0  0  0
    4.7960   -1.2892   -1.1248 C   0  0  1  0  0  0  0  0  0  0  0  0
    6.2049   -1.8570   -0.8011 C   0  0  0  0  0  0  0  0  0  0  0  0
    2.2704   -1.1442   -2.4541 H   0  0  0  0  0  0  0  0  0  0  0  0
    2.8687   -1.9526   -3.8968 H   0  0  0  0  0  0  0  0  0  0  0  0
    3.5929   -0.4266   -3.3892 H   0  0  0  0  0  0  0  0  0  0  0  0
    2.8807   -3.8282   -2.5159 H   0  0  0  0  0  0  0  0  0  0  0  0
    4.3867   -4.1775   -1.7500 H   0  0  0  0  0  0  0  0  0  0  0  0
    1.9162   -2.9270   -0.4573 H   0  0  0  0  0  0  0  0  0  0  0  0
    2.6787   -4.4343   -0.0522 H   0  0  0  0  0  0  0  0  0  0  0  0
    8.1952   -4.0090   -0.4385 H   0  0  0  0  0  0  0  0  0  0  0  0
    7.8618   -5.9622    1.0862 H   0  0  0  0  0  0  0  0  0  0  0  0
    4.9683   -6.3605    3.1462 H   0  0  0  0  0  0  0  0  0  0  0  0
    4.3743   -2.3161    2.6455 H   0  0  0  0  0  0  0  0  0  0  0  0
    1.7595   -0.0504    1.8033 H   0  0  0  0  0  0  0  0  0  0  0  0
    2.8278    0.1046    3.1809 H   0  0  0  0  0  0  0  0  0  0  0  0
    3.8563    0.7983    0.8798 H   0  0  0  0  0  0  0  0  0  0  0  0
    4.8468   -0.2966    1.8118 H   0  0  0  0  0  0  0  0  0  0  0  0
    2.8911   -0.9741   -0.3000 H   0  0  0  0  0  0  0  0  0  0  0  0
    4.9293   -0.2817   -1.5165 H   0  0  0  0  0  0  0  0  0  0  0  0
    6.7239   -1.1326   -0.1756 H   0  0  0  0  0  0  0  0  0  0  0  0
    6.7918   -1.9686   -1.7121 H   0  0  0  0  0  0  0  0  0  0  0  0
    4.8806   -2.3607   -2.8445 H   0  0  0  0  0  0  0  0  0  0  0  0
  1  2  1  0
  1 22  1  0
  1 23  1  0
  1 24  1  0
  2 20  1  0
  2  3  1  0
  2 41  1  6
  3  4  1  0
  3 25  1  0
  3 26  1  0
  5  4  1  6
  4 27  1  0
  4 28  1  0
  5 14  1  0
  5 19  1  0
  5  6  1  0
  6 12  2  0
  6  7  1  0
  7 21  1  0
  7  8  2  0
  8  9  1  0
  8 29  1  0
  9 10  2  0
  9 30  1  0
 10 11  1  0
 10 12  1  0
 11 31  1  0
 12 13  1  0
 13 14  1  0
 14 15  1  0
 14 32  1  1
 15 16  2  0
 15 17  1  0
 17 18  1  0
 17 33  1  0
 17 34  1  0
 18 19  1  0
 18 35  1  0
 18 36  1  0
 19 20  1  0
 19 37  1  6
 20 21  1  0
 20 38  1  6
 21 39  1  0
 21 40  1  0
M  CHG  1   2   1
M  END
>  <i_m_ct_stereo_status>  (237) 
1

>  <s_m_source_file>  (237) 
/var/tmp/pbs.5076255.sched01/tmpm261n1hm/82shs6bvht.sdf

>  <i_m_source_file_index>  (237) 
19

>  <i_lp_mmshare_version>  (237) 
48012

>  <i_f3d_flags>  (237) 
0

>  <s_epik_input>  (237) 
W0NIMl0xW0NIMl1OKFtDSDNdKVtDQEhdKFtDSDJdMilbQ0BASF0zW0NIMl1bQ0gyXUMoPU8pW0NASF00T2M1YyhbT0hdKVtjSF1bY0hdYzJjNVtDQF0xMzQ=

>  <s_epik_cmdline>  (237) 
J2VwaWtfcHl0aG9uJywgJy1waHQnLCAnMi4wJywgJy1waCcsICc3LjAnLCAnLXRuJywgJzgnLCAnLW1hJywgJzIwMCcsICctaW1hZScsICc8aW5maWxlLm1hZT4nLCAnLW9tYWUnLCAnPG91dGZpbGUubWFlPic=

>  <r_lp_tautomer_probability>  (237) 
1

>  <r_epik_Ionization_Penalty>  (237) 
0.0754726

>  <r_epik_Ionization_Penalty_Charging>  (237) 
0.0397053

>  <r_epik_Ionization_Penalty_Neutral>  (237) 
0.0357673

>  <r_epik_State_Penalty>  (237) 
0.0616185

>  <r_epik_Charging_Adjusted_Penalty>  (237) 
0.101324

>  <i_epik_Tot_Q>  (237) 
1

>  <i_epik_Tot_abs_Q>  (237) 
1

>  <s_lp_Force_Field>  (237) 
OPLS3e

>  <r_lp_Energy>  (237) 
84.573

>  <b_lp_Chiralities_Consistent>  (237) 
1

>  <s_lp_Variant>  (237) 
68:0-1

>  <s_i_glide_gridfile>  (237) 
pfpi4k_grid

>  <i_i_glide_lignum>  (237) 
19

>  <i_i_glide_rotatable_bonds>  (237) 
1

>  <r_i_docking_score>  (237) 
-3.18076

>  <r_i_glide_ligand_efficiency>  (237) 
-0.151465

>  <r_i_glide_ligand_efficiency_sa>  (237) 
-0.41788

>  <r_i_glide_ligand_efficiency_ln>  (237) 
-0.786437

>  <r_i_glide_gscore>  (237) 
-3.18076

>  <r_i_glide_lipo>  (237) 
-0.465739

>  <r_i_glide_hbond>  (237) 
0

>  <r_i_glide_metal>  (237) 
-0

>  <r_i_glide_rewards>  (237) 
-1.45673

>  <r_i_glide_evdw>  (237) 
-19.0585

>  <r_i_glide_ecoul>  (237) 
-1.9553

>  <r_i_glide_erotb>  (237) 
0

>  <r_i_glide_esite>  (237) 
-0.0120668

>  <r_i_glide_emodel>  (237) 
-25.794

>  <r_i_glide_energy>  (237) 
-21.0138

>  <r_i_glide_einternal>  (237) 
0.00689972

>  <r_i_glide_intrahb_reward>  (237) 
-0

>  <i_i_glide_confnum>  (237) 
1

>  <i_i_glide_posenum>  (237) 
9

>  <r_i_glide_eff_state_penalty>  (237) 
0

>  <ligand_id>  (237) 
68

>  <original_smiles>  (237) 
CN1CCC23c4c5ccc(O)c4OC2C(=O)CCC3C1C5

>  <smiles>  (237) 
[H]Oc1c([H])c([H])c2c3c1OC1([H])C(=O)C([H])([H])C([H])([H])C4([H])C31C([H])([H])C([H])([H])[N+]([H])(C([H])([H])[H])C4([H])C2([H])[H]

$$$$
68:1:0
     RDKit          3D

 40 44  0  0  1  0  0  0  0  0999 V2000
    4.8010   -1.0101   -2.3106 C   0  0  0  0  0  0  0  0  0  0  0  0
    5.7457   -1.8405   -1.5727 N   0  0  0  0  0  0  0  0  0  0  0  0
    5.7360   -3.2402   -2.0639 C   0  0  0  0  0  0  0  0  0  0  0  0
    4.8021   -4.2115   -1.2866 C   0  0  0  0  0  0  0  0  0  0  0  0
    4.9930   -3.9878    0.2264 C   0  0  2  0  0  0  0  0  0  0  0  0
    6.3981   -4.3197    0.5724 C   0  0  0  0  0  0  0  0  0  0  0  0
    7.4588   -3.4162    0.6058 C   0  0  0  0  0  0  0  0  0  0  0  0
    8.7196   -3.9841    0.8714 C   0  0  0  0  0  0  0  0  0  0  0  0
    8.8348   -5.3904    1.0750 C   0  0  0  0  0  0  0  0  0  0  0  0
    7.6947   -6.2379    1.0891 C   0  0  0  0  0  0  0  0  0  0  0  0
    7.8461   -7.5729    1.3265 O   0  0  0  0  0  0  0  0  0  0  0  0
    6.4147   -5.6824    0.8763 C   0  0  0  0  0  0  0  0  0  0  0  0
    5.1448   -6.2196    1.0145 O   0  0  0  0  0  0  0  0  0  0  0  0
    4.4360   -4.9936    1.2185 C   0  0  2  0  0  0  0  0  0  0  0  0
    2.9526   -4.8591    1.4520 C   0  0  0  0  0  0  0  0  0  0  0  0
    2.1191   -5.7515    1.2944 O   0  0  0  0  0  0  0  0  0  0  0  0
    2.6136   -3.4257    1.9335 C   0  0  0  0  0  0  0  0  0  0  0  0
    3.8071   -2.3962    1.8040 C   0  0  0  0  0  0  0  0  0  0  0  0
    4.5114   -2.5561    0.4334 C   0  0  1  0  0  0  0  0  0  0  0  0
    5.6488   -1.6493   -0.1060 C   0  0  1  0  0  0  0  0  0  0  0  0
    7.0415   -1.9457    0.5112 C   0  0  0  0  0  0  0  0  0  0  0  0
    5.0027   -1.0740   -3.3809 H   0  0  0  0  0  0  0  0  0  0  0  0
    4.9189    0.0368   -2.0267 H   0  0  0  0  0  0  0  0  0  0  0  0
    3.7627   -1.2980   -2.1399 H   0  0  0  0  0  0  0  0  0  0  0  0
    5.4990   -3.2708   -3.1267 H   0  0  0  0  0  0  0  0  0  0  0  0
    6.7566   -3.6182   -1.9937 H   0  0  0  0  0  0  0  0  0  0  0  0
    3.7624   -4.0539   -1.5746 H   0  0  0  0  0  0  0  0  0  0  0  0
    5.0199   -5.2438   -1.5616 H   0  0  0  0  0  0  0  0  0  0  0  0
    9.5854   -3.3461    0.9411 H   0  0  0  0  0  0  0  0  0  0  0  0
    9.8019   -5.8226    1.2606 H   0  0  0  0  0  0  0  0  0  0  0  0
    8.7631   -7.8244    1.3641 H   0  0  0  0  0  0  0  0  0  0  0  0
    4.7841   -4.7036    2.2163 H   0  0  0  0  0  0  0  0  0  0  0  0
    1.7985   -3.0697    1.3103 H   0  0  0  0  0  0  0  0  0  0  0  0
    2.2492   -3.4713    2.9620 H   0  0  0  0  0  0  0  0  0  0  0  0
    3.4092   -1.3856    1.8953 H   0  0  0  0  0  0  0  0  0  0  0  0
    4.5200   -2.5287    2.6189 H   0  0  0  0  0  0  0  0  0  0  0  0
    3.6548   -2.3727   -0.2182 H   0  0  0  0  0  0  0  0  0  0  0  0
    5.4116   -0.6026    0.0866 H   0  0  0  0  0  0  0  0  0  0  0  0
    7.0397   -1.5340    1.5196 H   0  0  0  0  0  0  0  0  0  0  0  0
    7.8208   -1.4124   -0.0316 H   0  0  0  0  0  0  0  0  0  0  0  0
  1  2  1  0
  1 22  1  0
  1 23  1  0
  1 24  1  0
  2 20  1  0
  2  3  1  0
  3  4  1  0
  3 25  1  0
  3 26  1  0
  5  4  1  6
  4 27  1  0
  4 28  1  0
  5 14  1  0
  5 19  1  0
  5  6  1  0
  6 12  2  0
  6  7  1  0
  7 21  1  0
  7  8  2  0
  8  9  1  0
  8 29  1  0
  9 10  2  0
  9 30  1  0
 10 11  1  0
 10 12  1  0
 11 31  1  0
 12 13  1  0
 13 14  1  0
 14 15  1  0
 14 32  1  1
 15 16  2  0
 15 17  1  0
 17 18  1  0
 17 33  1  0
 17 34  1  0
 18 19  1  0
 18 35  1  0
 18 36  1  0
 19 20  1  0
 19 37  1  6
 20 21  1  0
 20 38  1  6
 21 39  1  0
 21 40  1  0
M  END
>  <i_m_ct_stereo_status>  (238) 
1

>  <s_m_source_file>  (238) 
/var/tmp/pbs.5076255.sched01/tmpm261n1hm/82shs6bvht.sdf

>  <i_m_source_file_index>  (238) 
20

>  <i_lp_mmshare_version>  (238) 
48012

>  <i_f3d_flags>  (238) 
0

>  <s_epik_input>  (238) 
W0NIMl0xW0NIMl1OKFtDSDNdKVtDQEhdKFtDSDJdMilbQ0BASF0zW0NIMl1bQ0gyXUMoPU8pW0NASF00T2M1YyhbT0hdKVtjSF1bY0hdYzJjNVtDQF0xMzQ=

>  <s_epik_cmdline>  (238) 
J2VwaWtfcHl0aG9uJywgJy1waHQnLCAnMi4wJywgJy1waCcsICc3LjAnLCAnLXRuJywgJzgnLCAnLW1hJywgJzIwMCcsICctaW1hZScsICc8aW5maWxlLm1hZT4nLCAnLW9tYWUnLCAnPG91dGZpbGUubWFlPic=

>  <r_lp_tautomer_probability>  (238) 
1

>  <r_epik_Ionization_Penalty>  (238) 
1.62542

>  <r_epik_Ionization_Penalty_Charging>  (238) 
0

>  <r_epik_Ionization_Penalty_Neutral>  (238) 
1.62542

>  <r_epik_State_Penalty>  (238) 
1.74913

>  <r_epik_Charging_Adjusted_Penalty>  (238) 
1.74913

>  <i_epik_Tot_Q>  (238) 
0

>  <i_epik_Tot_abs_Q>  (238) 
0

>  <s_lp_Force_Field>  (238) 
OPLS3e

>  <r_lp_Energy>  (238) 
81.4639

>  <b_lp_Chiralities_Consistent>  (238) 
1

>  <s_lp_Variant>  (238) 
68:0-2

>  <s_i_glide_gridfile>  (238) 
pfpi4k_grid

>  <i_i_glide_lignum>  (238) 
20

>  <i_i_glide_rotatable_bonds>  (238) 
1

>  <r_i_docking_score>  (238) 
-4.04085

>  <r_i_glide_ligand_efficiency>  (238) 
-0.192422

>  <r_i_glide_ligand_efficiency_sa>  (238) 
-0.530877

>  <r_i_glide_ligand_efficiency_ln>  (238) 
-0.999093

>  <r_i_glide_gscore>  (238) 
-4.04085

>  <r_i_glide_lipo>  (238) 
-0.617391

>  <r_i_glide_hbond>  (238) 
-0.0235346

>  <r_i_glide_metal>  (238) 
-0

>  <r_i_glide_rewards>  (238) 
-1.46361

>  <r_i_glide_evdw>  (238) 
-21.5426

>  <r_i_glide_ecoul>  (238) 
-5.69135

>  <r_i_glide_erotb>  (238) 
0

>  <r_i_glide_esite>  (238) 
-0.00548906

>  <r_i_glide_emodel>  (238) 
-34.3383

>  <r_i_glide_energy>  (238) 
-27.234

>  <r_i_glide_einternal>  (238) 
0.0343325

>  <r_i_glide_intrahb_reward>  (238) 
-0

>  <i_i_glide_confnum>  (238) 
2

>  <i_i_glide_posenum>  (238) 
21

>  <r_i_glide_eff_state_penalty>  (238) 
0

>  <ligand_id>  (238) 
68

>  <original_smiles>  (238) 
CN1CCC23c4c5ccc(O)c4OC2C(=O)CCC3C1C5

>  <smiles>  (238) 
[H]Oc1c([H])c([H])c2c3c1OC1([H])C(=O)C([H])([H])C([H])([H])C4([H])C([H])(N(C([H])([H])[H])C([H])([H])C([H])([H])C314)C2([H])[H]

$$$$
68:1:1
     RDKit          3D

 40 44  0  0  1  0  0  0  0  0999 V2000
    4.5391   -0.9462   -2.4865 C   0  0  0  0  0  0  0  0  0  0  0  0
    5.4088   -1.8616   -1.7448 N   0  0  0  0  0  0  0  0  0  0  0  0
    4.8998   -3.2516   -1.7976 C   0  0  0  0  0  0  0  0  0  0  0  0
    4.0056   -3.6812   -0.5989 C   0  0  0  0  0  0  0  0  0  0  0  0
    4.6871   -3.2092    0.7095 C   0  0  2  0  0  0  0  0  0  0  0  0
    6.0003   -3.9007    0.8259 C   0  0  0  0  0  0  0  0  0  0  0  0
    7.2298   -3.3944    0.3863 C   0  0  0  0  0  0  0  0  0  0  0  0
    8.3203   -4.2729    0.5253 C   0  0  0  0  0  0  0  0  0  0  0  0
    8.1221   -5.5728    1.0845 C   0  0  0  0  0  0  0  0  0  0  0  0
    6.8545   -5.9775    1.5915 C   0  0  0  0  0  0  0  0  0  0  0  0
    6.7159   -7.1902    2.1896 O   0  0  0  0  0  0  0  0  0  0  0  0
    5.7300   -5.1013    1.5015 C   0  0  0  0  0  0  0  0  0  0  0  0
    4.4859   -5.1469    2.0575 O   0  0  0  0  0  0  0  0  0  0  0  0
    4.1995   -3.7415    2.0505 C   0  0  2  0  0  0  0  0  0  0  0  0
    2.9382   -3.0902    2.5440 C   0  0  0  0  0  0  0  0  0  0  0  0
    1.9108   -3.6998    2.8647 O   0  0  0  0  0  0  0  0  0  0  0  0
    3.1068   -1.5571    2.6394 C   0  0  0  0  0  0  0  0  0  0  0  0
    4.4415   -1.0210    1.9661 C   0  0  0  0  0  0  0  0  0  0  0  0
    4.6634   -1.6933    0.5886 C   0  0  1  0  0  0  0  0  0  0  0  0
    5.7897   -1.3422   -0.4092 C   0  0  1  0  0  0  0  0  0  0  0  0
    7.1737   -1.9418   -0.0452 C   0  0  0  0  0  0  0  0  0  0  0  0
    4.4071   -1.3002   -3.5077 H   0  0  0  0  0  0  0  0  0  0  0  0
    4.9955    0.0418   -2.5413 H   0  0  0  0  0  0  0  0  0  0  0  0
    3.5519   -0.8496   -2.0278 H   0  0  0  0  0  0  0  0  0  0  0  0
    4.3620   -3.4342   -2.7310 H   0  0  0  0  0  0  0  0  0  0  0  0
    5.7559   -3.9217   -1.8348 H   0  0  0  0  0  0  0  0  0  0  0  0
    3.0032   -3.2573   -0.6939 H   0  0  0  0  0  0  0  0  0  0  0  0
    3.8650   -4.7623   -0.6043 H   0  0  0  0  0  0  0  0  0  0  0  0
    9.2942   -3.9489    0.2159 H   0  0  0  0  0  0  0  0  0  0  0  0
    8.9611   -6.2398    1.1611 H   0  0  0  0  0  0  0  0  0  0  0  0
    7.5093   -7.6825    2.2014 H   0  0  0  0  0  0  0  0  0  0  0  0
    4.8878   -3.3762    2.8176 H   0  0  0  0  0  0  0  0  0  0  0  0
    2.2448   -1.0989    2.1521 H   0  0  0  0  0  0  0  0  0  0  0  0
    3.0728   -1.2612    3.6902 H   0  0  0  0  0  0  0  0  0  0  0  0
    4.3710    0.0599    1.8437 H   0  0  0  0  0  0  0  0  0  0  0  0
    5.3012   -1.2012    2.6167 H   0  0  0  0  0  0  0  0  0  0  0  0
    3.7335   -1.3875    0.1065 H   0  0  0  0  0  0  0  0  0  0  0  0
    5.8879   -0.2596   -0.4833 H   0  0  0  0  0  0  0  0  0  0  0  0
    7.5994   -1.3444    0.7691 H   0  0  0  0  0  0  0  0  0  0  0  0
    7.8753   -1.8551   -0.8778 H   0  0  0  0  0  0  0  0  0  0  0  0
  1  2  1  0
  1 22  1  0
  1 23  1  0
  1 24  1  0
  2 20  1  0
  2  3  1  0
  3  4  1  0
  3 25  1  0
  3 26  1  0
  5  4  1  6
  4 27  1  0
  4 28  1  0
  5 14  1  0
  5 19  1  0
  5  6  1  0
  6 12  2  0
  6  7  1  0
  7 21  1  0
  7  8  2  0
  8  9  1  0
  8 29  1  0
  9 10  2  0
  9 30  1  0
 10 11  1  0
 10 12  1  0
 11 31  1  0
 12 13  1  0
 13 14  1  0
 14 15  1  0
 14 32  1  1
 15 16  2  0
 15 17  1  0
 17 18  1  0
 17 33  1  0
 17 34  1  0
 18 19  1  0
 18 35  1  0
 18 36  1  0
 19 20  1  0
 19 37  1  6
 20 21  1  0
 20 38  1  6
 21 39  1  0
 21 40  1  0
M  END
>  <i_m_ct_stereo_status>  (239) 
1

>  <s_m_source_file>  (239) 
/var/tmp/pbs.5076255.sched01/tmpm261n1hm/82shs6bvht.sdf

>  <i_m_source_file_index>  (239) 
20

>  <i_lp_mmshare_version>  (239) 
48012

>  <i_f3d_flags>  (239) 
0

>  <s_epik_input>  (239) 
W0NIMl0xW0NIMl1OKFtDSDNdKVtDQEhdKFtDSDJdMilbQ0BASF0zW0NIMl1bQ0gyXUMoPU8pW0NASF00T2M1YyhbT0hdKVtjSF1bY0hdYzJjNVtDQF0xMzQ=

>  <s_epik_cmdline>  (239) 
J2VwaWtfcHl0aG9uJywgJy1waHQnLCAnMi4wJywgJy1waCcsICc3LjAnLCAnLXRuJywgJzgnLCAnLW1hJywgJzIwMCcsICctaW1hZScsICc8aW5maWxlLm1hZT4nLCAnLW9tYWUnLCAnPG91dGZpbGUubWFlPic=

>  <r_lp_tautomer_probability>  (239) 
1

>  <r_epik_Ionization_Penalty>  (239) 
1.62542

>  <r_epik_Ionization_Penalty_Charging>  (239) 
0

>  <r_epik_Ionization_Penalty_Neutral>  (239) 
1.62542

>  <r_epik_State_Penalty>  (239) 
1.74913

>  <r_epik_Charging_Adjusted_Penalty>  (239) 
1.74913

>  <i_epik_Tot_Q>  (239) 
0

>  <i_epik_Tot_abs_Q>  (239) 
0

>  <s_lp_Force_Field>  (239) 
OPLS3e

>  <r_lp_Energy>  (239) 
81.4639

>  <b_lp_Chiralities_Consistent>  (239) 
1

>  <s_lp_Variant>  (239) 
68:0-2

>  <s_i_glide_gridfile>  (239) 
pfpi4k_grid

>  <i_i_glide_lignum>  (239) 
20

>  <i_i_glide_rotatable_bonds>  (239) 
1

>  <r_i_docking_score>  (239) 
-3.30209

>  <r_i_glide_ligand_efficiency>  (239) 
-0.157242

>  <r_i_glide_ligand_efficiency_sa>  (239) 
-0.433819

>  <r_i_glide_ligand_efficiency_ln>  (239) 
-0.816434

>  <r_i_glide_gscore>  (239) 
-3.30209

>  <r_i_glide_lipo>  (239) 
-0.70336

>  <r_i_glide_hbond>  (239) 
0

>  <r_i_glide_metal>  (239) 
-0

>  <r_i_glide_rewards>  (239) 
-1.46361

>  <r_i_glide_evdw>  (239) 
-21.6275

>  <r_i_glide_ecoul>  (239) 
-0.352166

>  <r_i_glide_erotb>  (239) 
0

>  <r_i_glide_esite>  (239) 
-0.000917354

>  <r_i_glide_emodel>  (239) 
-27.74

>  <r_i_glide_energy>  (239) 
-21.9797

>  <r_i_glide_einternal>  (239) 
0.00272213

>  <r_i_glide_intrahb_reward>  (239) 
-0

>  <i_i_glide_confnum>  (239) 
2

>  <i_i_glide_posenum>  (239) 
28

>  <r_i_glide_eff_state_penalty>  (239) 
0

>  <ligand_id>  (239) 
68

>  <original_smiles>  (239) 
CN1CCC23c4c5ccc(O)c4OC2C(=O)CCC3C1C5

>  <smiles>  (239) 
[H]Oc1c([H])c([H])c2c3c1OC1([H])C(=O)C([H])([H])C([H])([H])C4([H])C([H])(N(C([H])([H])[H])C([H])([H])C([H])([H])C314)C2([H])[H]

$$$$
68:1:2
     RDKit          3D

 40 44  0  0  1  0  0  0  0  0999 V2000
    3.5140   -1.3434   -3.1513 C   0  0  0  0  0  0  0  0  0  0  0  0
    4.4181   -2.1101   -2.3027 N   0  0  0  0  0  0  0  0  0  0  0  0
    3.8431   -3.4312   -1.9471 C   0  0  0  0  0  0  0  0  0  0  0  0
    3.0867   -3.4850   -0.5890 C   0  0  0  0  0  0  0  0  0  0  0  0
    3.9324   -2.7557    0.4779 C   0  0  2  0  0  0  0  0  0  0  0  0
    5.2205   -3.4839    0.6290 C   0  0  0  0  0  0  0  0  0  0  0  0
    6.4051   -3.1992   -0.0478 C   0  0  0  0  0  0  0  0  0  0  0  0
    7.4737   -4.0844    0.1989 C   0  0  0  0  0  0  0  0  0  0  0  0
    7.2832   -5.1862    1.0809 C   0  0  0  0  0  0  0  0  0  0  0  0
    6.0672   -5.3619    1.7967 C   0  0  0  0  0  0  0  0  0  0  0  0
    5.9374   -6.3800    2.6957 O   0  0  0  0  0  0  0  0  0  0  0  0
    5.0002   -4.4605    1.5992 C   0  0  0  0  0  0  0  0  0  0  0  0
    3.8086   -4.2827    2.2848 O   0  0  0  0  0  0  0  0  0  0  0  0
    3.5925   -2.9053    1.9501 C   0  0  2  0  0  0  0  0  0  0  0  0
    2.4228   -2.0640    2.3963 C   0  0  0  0  0  0  0  0  0  0  0  0
    1.4224   -2.4997    2.9637 O   0  0  0  0  0  0  0  0  0  0  0  0
    2.6740   -0.5680    2.0800 C   0  0  0  0  0  0  0  0  0  0  0  0
    3.9437   -0.3127    1.1636 C   0  0  0  0  0  0  0  0  0  0  0  0
    3.9743   -1.3162   -0.0161 C   0  0  1  0  0  0  0  0  0  0  0  0
    4.9818   -1.3060   -1.1909 C   0  0  1  0  0  0  0  0  0  0  0  0
    6.3758   -1.8907   -0.8361 C   0  0  0  0  0  0  0  0  0  0  0  0
    3.2364   -1.9258   -4.0333 H   0  0  0  0  0  0  0  0  0  0  0  0
    4.0089   -0.4364   -3.5058 H   0  0  0  0  0  0  0  0  0  0  0  0
    2.6001   -1.0575   -2.6303 H   0  0  0  0  0  0  0  0  0  0  0  0
    3.1948   -3.7932   -2.7437 H   0  0  0  0  0  0  0  0  0  0  0  0
    4.6624   -4.1502   -1.9039 H   0  0  0  0  0  0  0  0  0  0  0  0
    2.0989   -3.0355   -0.6860 H   0  0  0  0  0  0  0  0  0  0  0  0
    2.9031   -4.5245   -0.3095 H   0  0  0  0  0  0  0  0  0  0  0  0
    8.4263   -3.9296   -0.2844 H   0  0  0  0  0  0  0  0  0  0  0  0
    8.0875   -5.8848    1.2378 H   0  0  0  0  0  0  0  0  0  0  0  0
    5.0800   -6.3987    3.0934 H   0  0  0  0  0  0  0  0  0  0  0  0
    4.3808   -2.4121    2.5289 H   0  0  0  0  0  0  0  0  0  0  0  0
    1.7804   -0.1866    1.5843 H   0  0  0  0  0  0  0  0  0  0  0  0
    2.7749   -0.0232    3.0209 H   0  0  0  0  0  0  0  0  0  0  0  0
    3.9065    0.7077    0.7835 H   0  0  0  0  0  0  0  0  0  0  0  0
    4.8635   -0.3886    1.7466 H   0  0  0  0  0  0  0  0  0  0  0  0
    3.0123   -1.0697   -0.4664 H   0  0  0  0  0  0  0  0  0  0  0  0
    5.1198   -0.2863   -1.5501 H   0  0  0  0  0  0  0  0  0  0  0  0
    6.9029   -1.1565   -0.2292 H   0  0  0  0  0  0  0  0  0  0  0  0
    6.9570   -2.0377   -1.7459 H   0  0  0  0  0  0  0  0  0  0  0  0
  1  2  1  0
  1 22  1  0
  1 23  1  0
  1 24  1  0
  2 20  1  0
  2  3  1  0
  3  4  1  0
  3 25  1  0
  3 26  1  0
  5  4  1  6
  4 27  1  0
  4 28  1  0
  5 14  1  0
  5 19  1  0
  5  6  1  0
  6 12  2  0
  6  7  1  0
  7 21  1  0
  7  8  2  0
  8  9  1  0
  8 29  1  0
  9 10  2  0
  9 30  1  0
 10 11  1  0
 10 12  1  0
 11 31  1  0
 12 13  1  0
 13 14  1  0
 14 15  1  0
 14 32  1  1
 15 16  2  0
 15 17  1  0
 17 18  1  0
 17 33  1  0
 17 34  1  0
 18 19  1  0
 18 35  1  0
 18 36  1  0
 19 20  1  0
 19 37  1  6
 20 21  1  0
 20 38  1  6
 21 39  1  0
 21 40  1  0
M  END
>  <i_m_ct_stereo_status>  (240) 
1

>  <s_m_source_file>  (240) 
/var/tmp/pbs.5076255.sched01/tmpm261n1hm/82shs6bvht.sdf

>  <i_m_source_file_index>  (240) 
20

>  <i_lp_mmshare_version>  (240) 
48012

>  <i_f3d_flags>  (240) 
0

>  <s_epik_input>  (240) 
W0NIMl0xW0NIMl1OKFtDSDNdKVtDQEhdKFtDSDJdMilbQ0BASF0zW0NIMl1bQ0gyXUMoPU8pW0NASF00T2M1YyhbT0hdKVtjSF1bY0hdYzJjNVtDQF0xMzQ=

>  <s_epik_cmdline>  (240) 
J2VwaWtfcHl0aG9uJywgJy1waHQnLCAnMi4wJywgJy1waCcsICc3LjAnLCAnLXRuJywgJzgnLCAnLW1hJywgJzIwMCcsICctaW1hZScsICc8aW5maWxlLm1hZT4nLCAnLW9tYWUnLCAnPG91dGZpbGUubWFlPic=

>  <r_lp_tautomer_probability>  (240) 
1

>  <r_epik_Ionization_Penalty>  (240) 
1.62542

>  <r_epik_Ionization_Penalty_Charging>  (240) 
0

>  <r_epik_Ionization_Penalty_Neutral>  (240) 
1.62542

>  <r_epik_State_Penalty>  (240) 
1.74913

>  <r_epik_Charging_Adjusted_Penalty>  (240) 
1.74913

>  <i_epik_Tot_Q>  (240) 
0

>  <i_epik_Tot_abs_Q>  (240) 
0

>  <s_lp_Force_Field>  (240) 
OPLS3e

>  <r_lp_Energy>  (240) 
81.4639

>  <b_lp_Chiralities_Consistent>  (240) 
1

>  <s_lp_Variant>  (240) 
68:0-2

>  <s_i_glide_gridfile>  (240) 
pfpi4k_grid

>  <i_i_glide_lignum>  (240) 
20

>  <i_i_glide_rotatable_bonds>  (240) 
1

>  <r_i_docking_score>  (240) 
-3.14262

>  <r_i_glide_ligand_efficiency>  (240) 
-0.149648

>  <r_i_glide_ligand_efficiency_sa>  (240) 
-0.412868

>  <r_i_glide_ligand_efficiency_ln>  (240) 
-0.777005

>  <r_i_glide_gscore>  (240) 
-3.14262

>  <r_i_glide_lipo>  (240) 
-0.609414

>  <r_i_glide_hbond>  (240) 
0

>  <r_i_glide_metal>  (240) 
-0

>  <r_i_glide_rewards>  (240) 
-1.46361

>  <r_i_glide_evdw>  (240) 
-21.7797

>  <r_i_glide_ecoul>  (240) 
0.199326

>  <r_i_glide_erotb>  (240) 
0

>  <r_i_glide_esite>  (240) 
-0.0105066

>  <r_i_glide_emodel>  (240) 
-27.1096

>  <r_i_glide_energy>  (240) 
-21.5804

>  <r_i_glide_einternal>  (240) 
0.00162971

>  <r_i_glide_intrahb_reward>  (240) 
-0

>  <i_i_glide_confnum>  (240) 
2

>  <i_i_glide_posenum>  (240) 
10

>  <r_i_glide_eff_state_penalty>  (240) 
0

>  <ligand_id>  (240) 
68

>  <original_smiles>  (240) 
CN1CCC23c4c5ccc(O)c4OC2C(=O)CCC3C1C5

>  <smiles>  (240) 
[H]Oc1c([H])c([H])c2c3c1OC1([H])C(=O)C([H])([H])C([H])([H])C4([H])C([H])(N(C([H])([H])[H])C([H])([H])C([H])([H])C314)C2([H])[H]

$$$$
68:2:0
     RDKit          3D

 40 44  0  0  1  0  0  0  0  0999 V2000
    2.9509   -2.6487   -2.5273 C   0  0  0  0  0  0  0  0  0  0  0  0
    3.8824   -3.2652   -1.5543 N   0  0  2  0  0  0  0  0  0  0  0  0
    3.1569   -4.1748   -0.6073 C   0  0  0  0  0  0  0  0  0  0  0  0
    2.7185   -3.4901    0.7168 C   0  0  0  0  0  0  0  0  0  0  0  0
    3.9157   -2.6910    1.2859 C   0  0  2  0  0  0  0  0  0  0  0  0
    5.0253   -3.6481    1.5381 C   0  0  0  0  0  0  0  0  0  0  0  0
    6.0597   -3.9585    0.6560 C   0  0  0  0  0  0  0  0  0  0  0  0
    6.9058   -5.0073    1.0622 C   0  0  0  0  0  0  0  0  0  0  0  0
    6.6597   -5.6526    2.3045 C   0  0  0  0  0  0  0  0  0  0  0  0
    5.6392   -5.2129    3.1917 C   0  0  0  0  0  0  0  0  0  0  0  0
    5.4882   -5.8019    4.4140 O   0  0  0  0  0  0  0  0  0  0  0  0
    4.8024   -4.1381    2.8175 C   0  0  0  0  0  0  0  0  0  0  0  0
    3.8530   -3.4168    3.5216 O   0  0  0  0  0  0  0  0  0  0  0  0
    3.8807   -2.2272    2.7274 C   0  0  2  0  0  0  0  0  0  0  0  0
    3.0096   -1.0177    2.9403 C   0  0  0  0  0  0  0  0  0  0  0  0
    2.0713   -0.9537    3.7305 O   0  0  0  0  0  0  0  0  0  0  0  0
    3.4829    0.1552    2.0487 C   0  0  0  0  0  0  0  0  0  0  0  0
    4.5550   -0.2634    0.9604 C   0  0  0  0  0  0  0  0  0  0  0  0
    4.1330   -1.5856    0.2633 C   0  0  1  0  0  0  0  0  0  0  0  0
    4.8429   -2.2818   -0.9287 C   0  0  1  0  0  0  0  0  0  0  0  0
    6.1633   -3.0059   -0.5323 C   0  0  0  0  0  0  0  0  0  0  0  0
    2.2196   -2.0367   -2.0158 H   0  0  0  0  0  0  0  0  0  0  0  0
    2.4126   -3.4200   -3.0844 H   0  0  0  0  0  0  0  0  0  0  0  0
    3.4816   -2.0224   -3.2483 H   0  0  0  0  0  0  0  0  0  0  0  0
    2.2851   -4.6176   -1.0928 H   0  0  0  0  0  0  0  0  0  0  0  0
    3.8025   -5.0258   -0.3771 H   0  0  0  0  0  0  0  0  0  0  0  0
    1.8628   -2.8346    0.5333 H   0  0  0  0  0  0  0  0  0  0  0  0
    2.3711   -4.2470    1.4214 H   0  0  0  0  0  0  0  0  0  0  0  0
    7.7352   -5.3066    0.4402 H   0  0  0  0  0  0  0  0  0  0  0  0
    7.2935   -6.4698    2.5998 H   0  0  0  0  0  0  0  0  0  0  0  0
    4.8552   -1.7993    2.9764 H   0  0  0  0  0  0  0  0  0  0  0  0
    2.6024    0.5690    1.5563 H   0  0  0  0  0  0  0  0  0  0  0  0
    3.8831    0.9438    2.6883 H   0  0  0  0  0  0  0  0  0  0  0  0
    4.6234    0.5367    0.2276 H   0  0  0  0  0  0  0  0  0  0  0  0
    5.5488   -0.3691    1.4055 H   0  0  0  0  0  0  0  0  0  0  0  0
    3.1694   -1.2580   -0.1307 H   0  0  0  0  0  0  0  0  0  0  0  0
    5.0972   -1.5337   -1.6846 H   0  0  0  0  0  0  0  0  0  0  0  0
    6.9059   -2.2500   -0.2756 H   0  0  0  0  0  0  0  0  0  0  0  0
    6.5707   -3.5467   -1.3858 H   0  0  0  0  0  0  0  0  0  0  0  0
    4.4463   -3.8906   -2.1140 H   0  0  0  0  0  0  0  0  0  0  0  0
  1  2  1  0
  1 22  1  0
  1 23  1  0
  1 24  1  0
  2 20  1  0
  2  3  1  0
  2 40  1  6
  3  4  1  0
  3 25  1  0
  3 26  1  0
  5  4  1  6
  4 27  1  0
  4 28  1  0
  5 14  1  0
  5 19  1  0
  5  6  1  0
  6 12  2  0
  6  7  1  0
  7 21  1  0
  7  8  2  0
  8  9  1  0
  8 29  1  0
  9 10  2  0
  9 30  1  0
 10 11  1  0
 10 12  1  0
 12 13  1  0
 13 14  1  0
 14 15  1  0
 14 31  1  1
 15 16  2  0
 15 17  1  0
 17 18  1  0
 17 32  1  0
 17 33  1  0
 18 19  1  0
 18 34  1  0
 18 35  1  0
 19 20  1  0
 19 36  1  6
 20 21  1  0
 20 37  1  6
 21 38  1  0
 21 39  1  0
M  CHG  2   2   1  11  -1
M  END
>  <i_m_ct_stereo_status>  (241) 
1

>  <s_m_source_file>  (241) 
/var/tmp/pbs.5076255.sched01/tmpm261n1hm/82shs6bvht.sdf

>  <i_m_source_file_index>  (241) 
21

>  <i_lp_mmshare_version>  (241) 
48012

>  <i_f3d_flags>  (241) 
0

>  <s_epik_input>  (241) 
W0NIMl0xW0NIMl1OKFtDSDNdKVtDQEhdKFtDSDJdMilbQ0BASF0zW0NIMl1bQ0gyXUMoPU8pW0NASF00T2M1YyhbT0hdKVtjSF1bY0hdYzJjNVtDQF0xMzQ=

>  <s_epik_cmdline>  (241) 
J2VwaWtfcHl0aG9uJywgJy1waHQnLCAnMi4wJywgJy1waCcsICc3LjAnLCAnLXRuJywgJzgnLCAnLW1hJywgJzIwMCcsICctaW1hZScsICc8aW5maWxlLm1hZT4nLCAnLW9tYWUnLCAnPG91dGZpbGUubWFlPic=

>  <r_epik_Ionization_Penalty>  (241) 
1.71669

>  <r_epik_Ionization_Penalty_Charging>  (241) 
1.71669

>  <r_epik_Ionization_Penalty_Neutral>  (241) 
1.51878e-10

>  <r_epik_State_Penalty>  (241) 
1.81729

>  <r_epik_Charging_Adjusted_Penalty>  (241) 
3.53398

>  <i_epik_Tot_Q>  (241) 
0

>  <i_epik_Tot_abs_Q>  (241) 
2

>  <s_lp_Force_Field>  (241) 
OPLS3e

>  <r_lp_Energy>  (241) 
81.6101

>  <b_lp_Chiralities_Consistent>  (241) 
1

>  <s_lp_Variant>  (241) 
68:0-3

>  <s_i_glide_gridfile>  (241) 
pfpi4k_grid

>  <i_i_glide_lignum>  (241) 
21

>  <i_i_glide_rotatable_bonds>  (241) 
0

>  <r_i_docking_score>  (241) 
-3.20325

>  <r_i_glide_ligand_efficiency>  (241) 
-0.152536

>  <r_i_glide_ligand_efficiency_sa>  (241) 
-0.420835

>  <r_i_glide_ligand_efficiency_ln>  (241) 
-0.791998

>  <r_i_glide_gscore>  (241) 
-3.20325

>  <r_i_glide_lipo>  (241) 
-0.486895

>  <r_i_glide_hbond>  (241) 
0

>  <r_i_glide_metal>  (241) 
-0

>  <r_i_glide_rewards>  (241) 
-1.46361

>  <r_i_glide_evdw>  (241) 
-15.7551

>  <r_i_glide_ecoul>  (241) 
-3.02463

>  <r_i_glide_erotb>  (241) 
0

>  <r_i_glide_esite>  (241) 
-0.0113046

>  <r_i_glide_emodel>  (241) 
-22.9253

>  <r_i_glide_energy>  (241) 
-18.7797

>  <r_i_glide_einternal>  (241) 
0

>  <r_i_glide_intrahb_reward>  (241) 
-0

>  <i_i_glide_confnum>  (241) 
2

>  <i_i_glide_posenum>  (241) 
3

>  <r_i_glide_eff_state_penalty>  (241) 
0

>  <ligand_id>  (241) 
68

>  <original_smiles>  (241) 
CN1CCC23c4c5ccc(O)c4OC2C(=O)CCC3C1C5

>  <smiles>  (241) 
[H]c1c([H])c2c3c(c1[O-])OC1([H])C(=O)C([H])([H])C([H])([H])C4([H])C31C([H])([H])C([H])([H])[N+]([H])(C([H])([H])[H])C4([H])C2([H])[H]

$$$$
68:2:1
     RDKit          3D

 40 44  0  0  1  0  0  0  0  0999 V2000
    2.1851   -2.4493   -3.4999 C   0  0  0  0  0  0  0  0  0  0  0  0
    3.5803   -2.4114   -2.9933 N   0  0  2  0  0  0  0  0  0  0  0  0
    4.0575   -3.7873   -2.7267 C   0  0  0  0  0  0  0  0  0  0  0  0
    3.7777   -4.2608   -1.2377 C   0  0  0  0  0  0  0  0  0  0  0  0
    4.3021   -3.1769   -0.2696 C   0  0  2  0  0  0  0  0  0  0  0  0
    5.7441   -3.0290   -0.5256 C   0  0  0  0  0  0  0  0  0  0  0  0
    6.2953   -2.1508   -1.4576 C   0  0  0  0  0  0  0  0  0  0  0  0
    7.6724   -2.3740   -1.7009 C   0  0  0  0  0  0  0  0  0  0  0  0
    8.3766   -3.3160   -0.9437 C   0  0  0  0  0  0  0  0  0  0  0  0
    7.7790   -4.1122    0.0668 C   0  0  0  0  0  0  0  0  0  0  0  0
    8.5373   -5.0107    0.7226 O   0  0  0  0  0  0  0  0  0  0  0  0
    6.3841   -3.9429    0.2922 C   0  0  0  0  0  0  0  0  0  0  0  0
    5.5402   -4.4878    1.2542 O   0  0  0  0  0  0  0  0  0  0  0  0
    4.5486   -3.4647    1.1950 C   0  0  2  0  0  0  0  0  0  0  0  0
    3.2823   -3.4621    2.0009 C   0  0  0  0  0  0  0  0  0  0  0  0
    2.8865   -4.4062    2.6745 O   0  0  0  0  0  0  0  0  0  0  0  0
    2.5565   -2.1022    1.8835 C   0  0  0  0  0  0  0  0  0  0  0  0
    3.1456   -1.1581    0.7591 C   0  0  0  0  0  0  0  0  0  0  0  0
    3.3918   -1.9871   -0.5316 C   0  0  1  0  0  0  0  0  0  0  0  0
    3.8245   -1.4215   -1.8959 C   0  0  1  0  0  0  0  0  0  0  0  0
    5.3131   -1.0464   -1.9033 C   0  0  0  0  0  0  0  0  0  0  0  0
    1.4727   -2.7594   -2.7275 H   0  0  0  0  0  0  0  0  0  0  0  0
    2.0721   -3.1158   -4.3636 H   0  0  0  0  0  0  0  0  0  0  0  0
    1.9785   -1.4598   -3.8859 H   0  0  0  0  0  0  0  0  0  0  0  0
    3.6215   -4.3637   -3.5461 H   0  0  0  0  0  0  0  0  0  0  0  0
    5.1312   -3.9040   -2.9272 H   0  0  0  0  0  0  0  0  0  0  0  0
    2.7039   -4.4160   -1.0467 H   0  0  0  0  0  0  0  0  0  0  0  0
    4.2908   -5.2123   -1.0274 H   0  0  0  0  0  0  0  0  0  0  0  0
    8.2599   -1.8973   -2.4517 H   0  0  0  0  0  0  0  0  0  0  0  0
    9.4225   -3.4489   -1.1682 H   0  0  0  0  0  0  0  0  0  0  0  0
    5.0626   -2.6000    1.6377 H   0  0  0  0  0  0  0  0  0  0  0  0
    1.5086   -2.3130    1.6737 H   0  0  0  0  0  0  0  0  0  0  0  0
    2.5974   -1.5995    2.8471 H   0  0  0  0  0  0  0  0  0  0  0  0
    2.4445   -0.3449    0.5568 H   0  0  0  0  0  0  0  0  0  0  0  0
    4.0736   -0.6792    1.0839 H   0  0  0  0  0  0  0  0  0  0  0  0
    2.3884   -2.3590   -0.7107 H   0  0  0  0  0  0  0  0  0  0  0  0
    3.2661   -0.5244   -2.1588 H   0  0  0  0  0  0  0  0  0  0  0  0
    5.4735   -0.2131   -1.2174 H   0  0  0  0  0  0  0  0  0  0  0  0
    5.3973   -0.6752   -2.9132 H   0  0  0  0  0  0  0  0  0  0  0  0
    4.1190   -2.1249   -3.7716 H   0  0  0  0  0  0  0  0  0  0  0  0
  1  2  1  0
  1 22  1  0
  1 23  1  0
  1 24  1  0
  2 20  1  0
  2  3  1  0
  2 40  1  6
  3  4  1  0
  3 25  1  0
  3 26  1  0
  5  4  1  6
  4 27  1  0
  4 28  1  0
  5 14  1  0
  5 19  1  0
  5  6  1  0
  6 12  2  0
  6  7  1  0
  7 21  1  0
  7  8  2  0
  8  9  1  0
  8 29  1  0
  9 10  2  0
  9 30  1  0
 10 11  1  0
 10 12  1  0
 12 13  1  0
 13 14  1  0
 14 15  1  0
 14 31  1  1
 15 16  2  0
 15 17  1  0
 17 18  1  0
 17 32  1  0
 17 33  1  0
 18 19  1  0
 18 34  1  0
 18 35  1  0
 19 20  1  0
 19 36  1  6
 20 21  1  0
 20 37  1  6
 21 38  1  0
 21 39  1  0
M  CHG  2   2   1  11  -1
M  END
>  <i_m_ct_stereo_status>  (242) 
1

>  <s_m_source_file>  (242) 
/var/tmp/pbs.5076255.sched01/tmpm261n1hm/82shs6bvht.sdf

>  <i_m_source_file_index>  (242) 
21

>  <i_lp_mmshare_version>  (242) 
48012

>  <i_f3d_flags>  (242) 
0

>  <s_epik_input>  (242) 
W0NIMl0xW0NIMl1OKFtDSDNdKVtDQEhdKFtDSDJdMilbQ0BASF0zW0NIMl1bQ0gyXUMoPU8pW0NASF00T2M1YyhbT0hdKVtjSF1bY0hdYzJjNVtDQF0xMzQ=

>  <s_epik_cmdline>  (242) 
J2VwaWtfcHl0aG9uJywgJy1waHQnLCAnMi4wJywgJy1waCcsICc3LjAnLCAnLXRuJywgJzgnLCAnLW1hJywgJzIwMCcsICctaW1hZScsICc8aW5maWxlLm1hZT4nLCAnLW9tYWUnLCAnPG91dGZpbGUubWFlPic=

>  <r_epik_Ionization_Penalty>  (242) 
1.71669

>  <r_epik_Ionization_Penalty_Charging>  (242) 
1.71669

>  <r_epik_Ionization_Penalty_Neutral>  (242) 
1.51878e-10

>  <r_epik_State_Penalty>  (242) 
1.81729

>  <r_epik_Charging_Adjusted_Penalty>  (242) 
3.53398

>  <i_epik_Tot_Q>  (242) 
0

>  <i_epik_Tot_abs_Q>  (242) 
2

>  <s_lp_Force_Field>  (242) 
OPLS3e

>  <r_lp_Energy>  (242) 
81.6101

>  <b_lp_Chiralities_Consistent>  (242) 
1

>  <s_lp_Variant>  (242) 
68:0-3

>  <s_i_glide_gridfile>  (242) 
pfpi4k_grid

>  <i_i_glide_lignum>  (242) 
21

>  <i_i_glide_rotatable_bonds>  (242) 
0

>  <r_i_docking_score>  (242) 
-3.126

>  <r_i_glide_ligand_efficiency>  (242) 
-0.148857

>  <r_i_glide_ligand_efficiency_sa>  (242) 
-0.410685

>  <r_i_glide_ligand_efficiency_ln>  (242) 
-0.772896

>  <r_i_glide_gscore>  (242) 
-3.126

>  <r_i_glide_lipo>  (242) 
-0.568461

>  <r_i_glide_hbond>  (242) 
0

>  <r_i_glide_metal>  (242) 
-0

>  <r_i_glide_rewards>  (242) 
-1.46537

>  <r_i_glide_evdw>  (242) 
-7.48675

>  <r_i_glide_ecoul>  (242) 
-4.78553

>  <r_i_glide_erotb>  (242) 
0

>  <r_i_glide_esite>  (242) 
0

>  <r_i_glide_emodel>  (242) 
-15.2773

>  <r_i_glide_energy>  (242) 
-12.2723

>  <r_i_glide_einternal>  (242) 
0

>  <r_i_glide_intrahb_reward>  (242) 
-0

>  <i_i_glide_confnum>  (242) 
1

>  <i_i_glide_posenum>  (242) 
1

>  <r_i_glide_eff_state_penalty>  (242) 
0

>  <ligand_id>  (242) 
68

>  <original_smiles>  (242) 
CN1CCC23c4c5ccc(O)c4OC2C(=O)CCC3C1C5

>  <smiles>  (242) 
[H]c1c([H])c2c3c(c1[O-])OC1([H])C(=O)C([H])([H])C([H])([H])C4([H])C31C([H])([H])C([H])([H])[N+]([H])(C([H])([H])[H])C4([H])C2([H])[H]

$$$$
70:0:0
     RDKit          3D

 20 22  0  0  1  0  0  0  0  0999 V2000
    5.1960   -6.9562    1.1576 C   0  0  0  0  0  0  0  0  0  0  0  0
    4.2197   -5.9635    0.6572 C   0  0  0  0  0  0  0  0  0  0  0  0
    4.4964   -4.8477   -0.0085 N   0  0  0  0  0  0  0  0  0  0  0  0
    3.2526   -4.3202   -0.2034 C   0  0  0  0  0  0  0  0  0  0  0  0
    2.9320   -3.0695   -0.9810 C   0  0  2  0  0  0  0  0  0  0  0  0
    2.1982   -3.1806   -2.3469 C   0  0  0  0  0  0  0  0  0  0  0  0
    3.4079   -2.5006   -2.8831 C   0  0  0  0  0  0  0  0  0  0  0  0
    4.2233   -2.8379   -3.8682 N   0  0  0  0  0  0  0  0  0  0  0  0
    5.3724   -3.0137   -3.1276 C   0  0  0  0  0  0  0  0  0  0  0  0
    5.2937   -2.7309   -1.8300 N   0  0  0  0  0  0  0  0  0  0  0  0
    3.9851   -2.4047   -1.7037 N   0  0  0  0  0  0  0  0  0  0  0  0
    2.2602   -5.0384    0.3179 N   0  0  0  0  0  0  0  0  0  0  0  0
    2.9022   -6.1420    0.8899 O   0  0  0  0  0  0  0  0  0  0  0  0
    6.1987   -6.6502    0.8725 H   0  0  0  0  0  0  0  0  0  0  0  0
    4.9849   -7.9347    0.7311 H   0  0  0  0  0  0  0  0  0  0  0  0
    5.1389   -7.0039    2.2431 H   0  0  0  0  0  0  0  0  0  0  0  0
    2.5165   -2.3089   -0.3146 H   0  0  0  0  0  0  0  0  0  0  0  0
    2.1018   -4.1765   -2.7681 H   0  0  0  0  0  0  0  0  0  0  0  0
    1.3056   -2.5815   -2.4371 H   0  0  0  0  0  0  0  0  0  0  0  0
    6.2815   -3.4194   -3.5572 H   0  0  0  0  0  0  0  0  0  0  0  0
  1  2  1  0
  1 14  1  0
  1 15  1  0
  1 16  1  0
  2 13  1  0
  2  3  2  0
  3  4  1  0
  4  5  1  0
  4 12  2  0
  5 11  1  0
  5  6  1  0
  5 17  1  1
  6  7  1  0
  6 18  1  0
  6 19  1  0
  7 11  1  0
  7  8  2  0
  8  9  1  0
  9 10  2  0
  9 20  1  0
 10 11  1  0
 12 13  1  0
M  END
>  <i_m_ct_stereo_status>  (243) 
1

>  <s_m_source_file>  (243) 
/var/tmp/pbs.5076255.sched01/tmpm261n1hm/82shs6bvht.sdf

>  <i_m_source_file_index>  (243) 
23

>  <i_lp_mmshare_version>  (243) 
48012

>  <i_f3d_flags>  (243) 
0

>  <s_epik_input>  (243) 
W0NIM11jMW5jKG5vMSlbQ0BIXShbQ0gyXTIpbihjMjMpbltjSF1uMw==

>  <s_epik_cmdline>  (243) 
J2VwaWtfcHl0aG9uJywgJy1waHQnLCAnMi4wJywgJy1waCcsICc3LjAnLCAnLXRuJywgJzgnLCAnLW1hJywgJzIwMCcsICctaW1hZScsICc8aW5maWxlLm1hZT4nLCAnLW9tYWUnLCAnPG91dGZpbGUubWFlPic=

>  <r_lp_tautomer_probability>  (243) 
1

>  <r_epik_Ionization_Penalty>  (243) 
2.21992e-05

>  <r_epik_Ionization_Penalty_Charging>  (243) 
0

>  <r_epik_Ionization_Penalty_Neutral>  (243) 
2.21992e-05

>  <r_epik_State_Penalty>  (243) 
-0

>  <r_epik_Charging_Adjusted_Penalty>  (243) 
0

>  <i_epik_Tot_Q>  (243) 
0

>  <i_epik_Tot_abs_Q>  (243) 
0

>  <s_lp_Force_Field>  (243) 
OPLS3e

>  <r_lp_Energy>  (243) 
33.6572

>  <b_lp_Chiralities_Consistent>  (243) 
1

>  <s_lp_Variant>  (243) 
70:0-1

>  <s_i_glide_gridfile>  (243) 
pfpi4k_grid

>  <i_i_glide_lignum>  (243) 
23

>  <i_i_glide_rotatable_bonds>  (243) 
1

>  <r_i_docking_score>  (243) 
-4.21619

>  <r_i_glide_ligand_efficiency>  (243) 
-0.324322

>  <r_i_glide_ligand_efficiency_sa>  (243) 
-0.76259

>  <r_i_glide_ligand_efficiency_ln>  (243) 
-1.18268

>  <r_i_glide_gscore>  (243) 
-4.21619

>  <r_i_glide_lipo>  (243) 
-0.335236

>  <r_i_glide_hbond>  (243) 
-0.089044

>  <r_i_glide_metal>  (243) 
-0

>  <r_i_glide_rewards>  (243) 
-2.42728

>  <r_i_glide_evdw>  (243) 
-17.9514

>  <r_i_glide_ecoul>  (243) 
-5.60561

>  <r_i_glide_erotb>  (243) 
0.498949

>  <r_i_glide_esite>  (243) 
-0.125164

>  <r_i_glide_emodel>  (243) 
-29.4073

>  <r_i_glide_energy>  (243) 
-23.557

>  <r_i_glide_einternal>  (243) 
1.06013

>  <r_i_glide_intrahb_reward>  (243) 
-0

>  <i_i_glide_confnum>  (243) 
3

>  <i_i_glide_posenum>  (243) 
28

>  <r_i_glide_eff_state_penalty>  (243) 
0

>  <ligand_id>  (243) 
70

>  <original_smiles>  (243) 
Cc1nc(C2Cc3ncnn32)no1

>  <smiles>  (243) 
[H]c1nc2n(n1)C([H])(c1noc(C([H])([H])[H])n1)C2([H])[H]

$$$$
70:0:1
     RDKit          3D

 20 22  0  0  1  0  0  0  0  0999 V2000
    4.6888   -7.4508    1.4518 C   0  0  0  0  0  0  0  0  0  0  0  0
    3.9595   -6.2774    0.9224 C   0  0  0  0  0  0  0  0  0  0  0  0
    4.4823   -5.1501    0.4504 N   0  0  0  0  0  0  0  0  0  0  0  0
    3.3655   -4.4469    0.1194 C   0  0  0  0  0  0  0  0  0  0  0  0
    3.3829   -3.0963   -0.5357 C   0  0  2  0  0  0  0  0  0  0  0  0
    4.0182   -2.9151   -1.9354 C   0  0  0  0  0  0  0  0  0  0  0  0
    4.9134   -1.9594   -1.2103 C   0  0  0  0  0  0  0  0  0  0  0  0
    6.2332   -1.8619   -1.1489 N   0  0  0  0  0  0  0  0  0  0  0  0
    6.3973   -2.0590    0.2036 C   0  0  0  0  0  0  0  0  0  0  0  0
    5.2804   -2.2798    0.9034 N   0  0  0  0  0  0  0  0  0  0  0  0
    4.3264   -2.1369   -0.0470 N   0  0  0  0  0  0  0  0  0  0  0  0
    2.2180   -5.0755    0.3492 N   0  0  0  0  0  0  0  0  0  0  0  0
    2.6110   -6.3026    0.9004 O   0  0  0  0  0  0  0  0  0  0  0  0
    5.7615   -7.2719    1.4096 H   0  0  0  0  0  0  0  0  0  0  0  0
    4.4498   -8.3360    0.8617 H   0  0  0  0  0  0  0  0  0  0  0  0
    4.3989   -7.6213    2.4884 H   0  0  0  0  0  0  0  0  0  0  0  0
    2.3964   -2.6179   -0.4600 H   0  0  0  0  0  0  0  0  0  0  0  0
    4.5730   -3.7869   -2.2897 H   0  0  0  0  0  0  0  0  0  0  0  0
    3.3843   -2.4211   -2.6728 H   0  0  0  0  0  0  0  0  0  0  0  0
    7.3684   -2.2106    0.6609 H   0  0  0  0  0  0  0  0  0  0  0  0
  1  2  1  0
  1 14  1  0
  1 15  1  0
  1 16  1  0
  2 13  1  0
  2  3  2  0
  3  4  1  0
  4  5  1  0
  4 12  2  0
  5 11  1  0
  5  6  1  0
  5 17  1  6
  6  7  1  0
  6 18  1  0
  6 19  1  0
  7 11  1  0
  7  8  2  0
  8  9  1  0
  9 10  2  0
  9 20  1  0
 10 11  1  0
 12 13  1  0
M  END
>  <i_m_ct_stereo_status>  (244) 
1

>  <s_m_source_file>  (244) 
/var/tmp/pbs.5076255.sched01/tmpm261n1hm/82shs6bvht.sdf

>  <i_m_source_file_index>  (244) 
23

>  <i_lp_mmshare_version>  (244) 
48012

>  <i_f3d_flags>  (244) 
0

>  <s_epik_input>  (244) 
W0NIM11jMW5jKG5vMSlbQ0BIXShbQ0gyXTIpbihjMjMpbltjSF1uMw==

>  <s_epik_cmdline>  (244) 
J2VwaWtfcHl0aG9uJywgJy1waHQnLCAnMi4wJywgJy1waCcsICc3LjAnLCAnLXRuJywgJzgnLCAnLW1hJywgJzIwMCcsICctaW1hZScsICc8aW5maWxlLm1hZT4nLCAnLW9tYWUnLCAnPG91dGZpbGUubWFlPic=

>  <r_lp_tautomer_probability>  (244) 
1

>  <r_epik_Ionization_Penalty>  (244) 
2.21992e-05

>  <r_epik_Ionization_Penalty_Charging>  (244) 
0

>  <r_epik_Ionization_Penalty_Neutral>  (244) 
2.21992e-05

>  <r_epik_State_Penalty>  (244) 
-0

>  <r_epik_Charging_Adjusted_Penalty>  (244) 
0

>  <i_epik_Tot_Q>  (244) 
0

>  <i_epik_Tot_abs_Q>  (244) 
0

>  <s_lp_Force_Field>  (244) 
OPLS3e

>  <r_lp_Energy>  (244) 
33.6572

>  <b_lp_Chiralities_Consistent>  (244) 
1

>  <s_lp_Variant>  (244) 
70:0-1

>  <s_i_glide_gridfile>  (244) 
pfpi4k_grid

>  <i_i_glide_lignum>  (244) 
23

>  <i_i_glide_rotatable_bonds>  (244) 
1

>  <r_i_docking_score>  (244) 
-3.56911

>  <r_i_glide_ligand_efficiency>  (244) 
-0.274547

>  <r_i_glide_ligand_efficiency_sa>  (244) 
-0.645551

>  <r_i_glide_ligand_efficiency_ln>  (244) 
-1.00117

>  <r_i_glide_gscore>  (244) 
-3.56911

>  <r_i_glide_lipo>  (244) 
-0.160822

>  <r_i_glide_hbond>  (244) 
-0.145182

>  <r_i_glide_metal>  (244) 
-0

>  <r_i_glide_rewards>  (244) 
-2.23423

>  <r_i_glide_evdw>  (244) 
-15.2968

>  <r_i_glide_ecoul>  (244) 
-4.16195

>  <r_i_glide_erotb>  (244) 
0.498949

>  <r_i_glide_esite>  (244) 
-0.138687

>  <r_i_glide_emodel>  (244) 
-24.9046

>  <r_i_glide_energy>  (244) 
-19.4588

>  <r_i_glide_einternal>  (244) 
0.280361

>  <r_i_glide_intrahb_reward>  (244) 
-0

>  <i_i_glide_confnum>  (244) 
3

>  <i_i_glide_posenum>  (244) 
15

>  <r_i_glide_eff_state_penalty>  (244) 
0

>  <ligand_id>  (244) 
70

>  <original_smiles>  (244) 
Cc1nc(C2Cc3ncnn32)no1

>  <smiles>  (244) 
[H]c1nc2n(n1)C([H])(c1noc(C([H])([H])[H])n1)C2([H])[H]

$$$$
70:0:2
     RDKit          3D

 20 22  0  0  1  0  0  0  0  0999 V2000
   -1.3880   -9.2725    2.9120 C   0  0  0  0  0  0  0  0  0  0  0  0
   -0.3181   -8.3456    2.4952 C   0  0  0  0  0  0  0  0  0  0  0  0
    0.9865   -8.5770    2.4571 N   0  0  0  0  0  0  0  0  0  0  0  0
    1.4587   -7.4077    1.9565 C   0  0  0  0  0  0  0  0  0  0  0  0
    2.9435   -7.1850    1.7637 C   0  0  2  0  0  0  0  0  0  0  0  0
    3.8175   -6.6383    2.9236 C   0  0  0  0  0  0  0  0  0  0  0  0
    4.0976   -5.5160    1.9857 C   0  0  0  0  0  0  0  0  0  0  0  0
    4.0053   -4.1975    2.0968 N   0  0  0  0  0  0  0  0  0  0  0  0
    3.1127   -3.9510    1.0880 C   0  0  0  0  0  0  0  0  0  0  0  0
    2.6689   -5.0398    0.4210 N   0  0  0  0  0  0  0  0  0  0  0  0
    3.3754   -6.0358    1.0093 N   0  0  0  0  0  0  0  0  0  0  0  0
    0.5328   -6.4577    1.7940 N   0  0  0  0  0  0  0  0  0  0  0  0
   -0.6664   -7.0958    2.1227 O   0  0  0  0  0  0  0  0  0  0  0  0
   -0.9498  -10.2358    3.1945 H   0  0  0  0  0  0  0  0  0  0  0  0
   -2.0889   -9.4105    2.0879 H   0  0  0  0  0  0  0  0  0  0  0  0
   -1.9083   -8.8470    3.7707 H   0  0  0  0  0  0  0  0  0  0  0  0
    3.4109   -8.0539    1.2749 H   0  0  0  0  0  0  0  0  0  0  0  0
    3.2634   -6.2663    3.7837 H   0  0  0  0  0  0  0  0  0  0  0  0
    4.7203   -7.2075    3.1415 H   0  0  0  0  0  0  0  0  0  0  0  0
    2.6083   -3.0115    0.9613 H   0  0  0  0  0  0  0  0  0  0  0  0
  1  2  1  0
  1 14  1  0
  1 15  1  0
  1 16  1  0
  2 13  1  0
  2  3  2  0
  3  4  1  0
  4  5  1  0
  4 12  2  0
  5 11  1  0
  5  6  1  0
  5 17  1  6
  6  7  1  0
  6 18  1  0
  6 19  1  0
  7 11  1  0
  7  8  2  0
  8  9  1  0
  9 10  2  0
  9 20  1  0
 10 11  1  0
 12 13  1  0
M  END
>  <i_m_ct_stereo_status>  (245) 
1

>  <s_m_source_file>  (245) 
/var/tmp/pbs.5076255.sched01/tmpm261n1hm/82shs6bvht.sdf

>  <i_m_source_file_index>  (245) 
23

>  <i_lp_mmshare_version>  (245) 
48012

>  <i_f3d_flags>  (245) 
0

>  <s_epik_input>  (245) 
W0NIM11jMW5jKG5vMSlbQ0BIXShbQ0gyXTIpbihjMjMpbltjSF1uMw==

>  <s_epik_cmdline>  (245) 
J2VwaWtfcHl0aG9uJywgJy1waHQnLCAnMi4wJywgJy1waCcsICc3LjAnLCAnLXRuJywgJzgnLCAnLW1hJywgJzIwMCcsICctaW1hZScsICc8aW5maWxlLm1hZT4nLCAnLW9tYWUnLCAnPG91dGZpbGUubWFlPic=

>  <r_lp_tautomer_probability>  (245) 
1

>  <r_epik_Ionization_Penalty>  (245) 
2.21992e-05

>  <r_epik_Ionization_Penalty_Charging>  (245) 
0

>  <r_epik_Ionization_Penalty_Neutral>  (245) 
2.21992e-05

>  <r_epik_State_Penalty>  (245) 
-0

>  <r_epik_Charging_Adjusted_Penalty>  (245) 
0

>  <i_epik_Tot_Q>  (245) 
0

>  <i_epik_Tot_abs_Q>  (245) 
0

>  <s_lp_Force_Field>  (245) 
OPLS3e

>  <r_lp_Energy>  (245) 
33.6572

>  <b_lp_Chiralities_Consistent>  (245) 
1

>  <s_lp_Variant>  (245) 
70:0-1

>  <s_i_glide_gridfile>  (245) 
pfpi4k_grid

>  <i_i_glide_lignum>  (245) 
23

>  <i_i_glide_rotatable_bonds>  (245) 
1

>  <r_i_docking_score>  (245) 
-3.21173

>  <r_i_glide_ligand_efficiency>  (245) 
-0.247056

>  <r_i_glide_ligand_efficiency_sa>  (245) 
-0.580911

>  <r_i_glide_ligand_efficiency_ln>  (245) 
-0.900918

>  <r_i_glide_gscore>  (245) 
-3.21173

>  <r_i_glide_lipo>  (245) 
-0.0264994

>  <r_i_glide_hbond>  (245) 
0

>  <r_i_glide_metal>  (245) 
-0

>  <r_i_glide_rewards>  (245) 
-2.24336

>  <r_i_glide_evdw>  (245) 
-15.8232

>  <r_i_glide_ecoul>  (245) 
-2.76632

>  <r_i_glide_erotb>  (245) 
0.498949

>  <r_i_glide_esite>  (245) 
-0.234711

>  <r_i_glide_emodel>  (245) 
-22.9257

>  <r_i_glide_energy>  (245) 
-18.5896

>  <r_i_glide_einternal>  (245) 
1.01907

>  <r_i_glide_intrahb_reward>  (245) 
-0

>  <i_i_glide_confnum>  (245) 
2

>  <i_i_glide_posenum>  (245) 
7

>  <r_i_glide_eff_state_penalty>  (245) 
0

>  <ligand_id>  (245) 
70

>  <original_smiles>  (245) 
Cc1nc(C2Cc3ncnn32)no1

>  <smiles>  (245) 
[H]c1nc2n(n1)C([H])(c1noc(C([H])([H])[H])n1)C2([H])[H]

$$$$
71:0:0
     RDKit          3D

 29 34  0  0  1  0  0  0  0  0999 V2000
    3.2865   -3.4204    1.4511 C   0  0  0  0  0  0  0  0  0  0  0  0
    4.2121   -2.2320    1.7692 C   0  0  0  0  0  0  0  0  0  0  0  0
    5.5488   -2.6213    1.1487 C   0  0  1  0  0  0  0  0  0  0  0  0
    5.3284   -3.8756    0.3103 C   0  0  1  0  0  0  0  0  0  0  0  0
    3.8055   -3.9768    0.1151 C   0  0  2  0  0  0  0  0  0  0  0  0
    3.1830   -3.1135   -1.0160 C   0  0  2  0  0  0  0  0  0  0  0  0
    3.6525   -3.0499   -2.4340 C   0  0  2  0  0  0  0  0  0  0  0  0
    4.9822   -3.6001   -2.8853 C   0  0  0  0  0  0  0  0  0  0  0  0
    6.0029   -2.8076   -2.0849 C   0  0  2  0  0  0  0  0  0  0  0  0
    6.3528   -3.3139   -0.6917 C   0  0  1  0  0  0  0  0  0  0  0  0
    6.1102   -1.9314   -0.1103 C   0  0  1  0  0  0  0  0  0  0  0  0
    5.3262   -1.6113   -1.4058 C   0  0  2  0  0  0  0  0  0  0  0  0
    3.8441   -1.8592   -1.5170 C   0  0  2  0  0  0  0  0  0  0  0  0
    2.2304   -3.1495    1.4403 H   0  0  0  0  0  0  0  0  0  0  0  0
    3.4219   -4.1842    2.2180 H   0  0  0  0  0  0  0  0  0  0  0  0
    3.8348   -1.3294    1.2991 H   0  0  0  0  0  0  0  0  0  0  0  0
    4.2862   -2.0362    2.8412 H   0  0  0  0  0  0  0  0  0  0  0  0
    6.3490   -2.7872    1.8731 H   0  0  0  0  0  0  0  0  0  0  0  0
    5.7465   -4.7351    0.8287 H   0  0  0  0  0  0  0  0  0  0  0  0
    3.4908   -5.0122   -0.0409 H   0  0  0  0  0  0  0  0  0  0  0  0
    2.1073   -3.0623   -0.9164 H   0  0  0  0  0  0  0  0  0  0  0  0
    2.8831   -2.9737   -3.1960 H   0  0  0  0  0  0  0  0  0  0  0  0
    5.0231   -4.6736   -2.6691 H   0  0  0  0  0  0  0  0  0  0  0  0
    5.1028   -3.4675   -3.9638 H   0  0  0  0  0  0  0  0  0  0  0  0
    6.9124   -2.5535   -2.6213 H   0  0  0  0  0  0  0  0  0  0  0  0
    7.3779   -3.6510   -0.5444 H   0  0  0  0  0  0  0  0  0  0  0  0
    7.0351   -1.3807    0.0301 H   0  0  0  0  0  0  0  0  0  0  0  0
    5.6489   -0.6715   -1.8407 H   0  0  0  0  0  0  0  0  0  0  0  0
    3.2110   -0.9916   -1.6559 H   0  0  0  0  0  0  0  0  0  0  0  0
  1  5  1  0
  1  2  1  0
  1 14  1  0
  1 15  1  0
  2  3  1  0
  2 16  1  0
  2 17  1  0
  3 11  1  0
  3  4  1  0
  3 18  1  1
  4 10  1  0
  4  5  1  0
  4 19  1  1
  5  6  1  0
  5 20  1  6
  6 13  1  0
  6  7  1  0
  6 21  1  6
  7 13  1  0
  7  8  1  0
  7 22  1  6
  8  9  1  0
  8 23  1  0
  8 24  1  0
  9 12  1  0
  9 10  1  0
  9 25  1  6
 10 11  1  0
 10 26  1  6
 11 12  1  0
 11 27  1  1
 12 13  1  0
 12 28  1  6
 13 29  1  6
M  END
>  <i_m_ct_stereo_status>  (246) 
1

>  <s_m_source_file>  (246) 
/var/tmp/pbs.5076255.sched01/tmpm261n1hm/82shs6bvht.sdf

>  <i_m_source_file_index>  (246) 
24

>  <i_lp_mmshare_version>  (246) 
48012

>  <i_f3d_flags>  (246) 
0

>  <s_epik_input>  (246) 
W0NIMl0xW0NIMl1bQ0BIXShbQ0BASF0yW0NASF0xMylbQ0BASF00W0NASF01W0NAQEhdNFtDQEBIXTZbQ0BIXShbQ0gyXTUpW0NASF0yW0NASF0zNg==

>  <s_epik_cmdline>  (246) 
J2VwaWtfcHl0aG9uJywgJy1waHQnLCAnMi4wJywgJy1waCcsICc3LjAnLCAnLXRuJywgJzgnLCAnLW1hJywgJzIwMCcsICctaW1hZScsICc8aW5maWxlLm1hZT4nLCAnLW9tYWUnLCAnPG91dGZpbGUubWFlPic=

>  <r_lp_tautomer_probability>  (246) 
1

>  <r_epik_Ionization_Penalty>  (246) 
0

>  <r_epik_Ionization_Penalty_Charging>  (246) 
0

>  <r_epik_Ionization_Penalty_Neutral>  (246) 
0

>  <r_epik_State_Penalty>  (246) 
-0

>  <r_epik_Charging_Adjusted_Penalty>  (246) 
0

>  <i_epik_Tot_Q>  (246) 
0

>  <i_epik_Tot_abs_Q>  (246) 
0

>  <s_lp_Force_Field>  (246) 
OPLS3e

>  <r_lp_Energy>  (246) 
58.5844

>  <b_lp_Chiralities_Consistent>  (246) 
1

>  <s_lp_Variant>  (246) 
71:0-1

>  <s_i_glide_gridfile>  (246) 
pfpi4k_grid

>  <i_i_glide_lignum>  (246) 
24

>  <i_i_glide_rotatable_bonds>  (246) 
0

>  <r_i_docking_score>  (246) 
-3.61912

>  <r_i_glide_ligand_efficiency>  (246) 
-0.278394

>  <r_i_glide_ligand_efficiency_sa>  (246) 
-0.654598

>  <r_i_glide_ligand_efficiency_ln>  (246) 
-1.0152

>  <r_i_glide_gscore>  (246) 
-3.61912

>  <r_i_glide_lipo>  (246) 
-0.407948

>  <r_i_glide_hbond>  (246) 
0

>  <r_i_glide_metal>  (246) 
-0

>  <r_i_glide_rewards>  (246) 
-2.23455

>  <r_i_glide_evdw>  (246) 
-18.6294

>  <r_i_glide_ecoul>  (246) 
-0.301039

>  <r_i_glide_erotb>  (246) 
0

>  <r_i_glide_esite>  (246) 
0

>  <r_i_glide_emodel>  (246) 
-22.9734

>  <r_i_glide_energy>  (246) 
-18.9304

>  <r_i_glide_einternal>  (246) 
0

>  <r_i_glide_intrahb_reward>  (246) 
-0

>  <i_i_glide_confnum>  (246) 
2

>  <i_i_glide_posenum>  (246) 
1

>  <r_i_glide_eff_state_penalty>  (246) 
0

>  <ligand_id>  (246) 
71

>  <original_smiles>  (246) 
C1CC2C3C1C1C4CC5C3C2C5C41

>  <smiles>  (246) 
[H]C1([H])C([H])([H])C2([H])C3([H])C1([H])C1([H])C4([H])C([H])([H])C5([H])C3([H])C2([H])C5([H])C41[H]

$$$$
71:0:1
     RDKit          3D

 29 34  0  0  1  0  0  0  0  0999 V2000
    3.8167   -2.8977   -2.2917 C   0  0  0  0  0  0  0  0  0  0  0  0
    2.7711   -3.4605   -1.3156 C   0  0  0  0  0  0  0  0  0  0  0  0
    3.5919   -4.1835   -0.2588 C   0  0  1  0  0  0  0  0  0  0  0  0
    5.0583   -3.8440   -0.4924 C   0  0  1  0  0  0  0  0  0  0  0  0
    5.0503   -2.6166   -1.4211 C   0  0  2  0  0  0  0  0  0  0  0  0
    4.8289   -1.2330   -0.7563 C   0  0  2  0  0  0  0  0  0  0  0  0
    5.5704   -0.7025    0.4325 C   0  0  2  0  0  0  0  0  0  0  0  0
    6.4469   -1.5632    1.2976 C   0  0  0  0  0  0  0  0  0  0  0  0
    5.4930   -2.5972    1.8693 C   0  0  2  0  0  0  0  0  0  0  0  0
    5.2447   -3.8477    1.0366 C   0  0  1  0  0  0  0  0  0  0  0  0
    3.7422   -3.6590    1.1810 C   0  0  1  0  0  0  0  0  0  0  0  0
    4.0422   -2.1977    1.5844 C   0  0  2  0  0  0  0  0  0  0  0  0
    4.1142   -1.0941    0.5652 C   0  0  2  0  0  0  0  0  0  0  0  0
    3.4580   -2.0396   -2.8559 H   0  0  0  0  0  0  0  0  0  0  0  0
    4.0743   -3.6811   -3.0103 H   0  0  0  0  0  0  0  0  0  0  0  0
    2.2061   -2.6513   -0.8480 H   0  0  0  0  0  0  0  0  0  0  0  0
    2.0517   -4.1093   -1.8079 H   0  0  0  0  0  0  0  0  0  0  0  0
    3.4574   -5.2710   -0.2516 H   0  0  0  0  0  0  0  0  0  0  0  0
    5.5631   -4.7026   -0.9308 H   0  0  0  0  0  0  0  0  0  0  0  0
    5.9615   -2.5652   -2.0220 H   0  0  0  0  0  0  0  0  0  0  0  0
    4.5898   -0.4771   -1.4927 H   0  0  0  0  0  0  0  0  0  0  0  0
    5.7825    0.3601    0.4807 H   0  0  0  0  0  0  0  0  0  0  0  0
    7.2460   -2.0109    0.6954 H   0  0  0  0  0  0  0  0  0  0  0  0
    6.9064   -0.9575    2.0811 H   0  0  0  0  0  0  0  0  0  0  0  0
    5.6542   -2.8584    2.9136 H   0  0  0  0  0  0  0  0  0  0  0  0
    5.5906   -4.7897    1.4630 H   0  0  0  0  0  0  0  0  0  0  0  0
    3.3233   -4.2817    1.9674 H   0  0  0  0  0  0  0  0  0  0  0  0
    3.5206   -1.9314    2.4989 H   0  0  0  0  0  0  0  0  0  0  0  0
    3.3652   -0.3122    0.6413 H   0  0  0  0  0  0  0  0  0  0  0  0
  1  5  1  0
  1  2  1  0
  1 14  1  0
  1 15  1  0
  2  3  1  0
  2 16  1  0
  2 17  1  0
  3 11  1  0
  3  4  1  0
  3 18  1  1
  4 10  1  0
  4  5  1  0
  4 19  1  6
  5  6  1  0
  5 20  1  6
  6 13  1  0
  6  7  1  0
  6 21  1  6
  7 13  1  0
  7  8  1  0
  7 22  1  6
  8  9  1  0
  8 23  1  0
  8 24  1  0
  9 12  1  0
  9 10  1  0
  9 25  1  1
 10 11  1  0
 10 26  1  1
 11 12  1  0
 11 27  1  1
 12 13  1  0
 12 28  1  1
 13 29  1  6
M  END
>  <i_m_ct_stereo_status>  (247) 
1

>  <s_m_source_file>  (247) 
/var/tmp/pbs.5076255.sched01/tmpm261n1hm/82shs6bvht.sdf

>  <i_m_source_file_index>  (247) 
24

>  <i_lp_mmshare_version>  (247) 
48012

>  <i_f3d_flags>  (247) 
0

>  <s_epik_input>  (247) 
W0NIMl0xW0NIMl1bQ0BIXShbQ0BASF0yW0NASF0xMylbQ0BASF00W0NASF01W0NAQEhdNFtDQEBIXTZbQ0BIXShbQ0gyXTUpW0NASF0yW0NASF0zNg==

>  <s_epik_cmdline>  (247) 
J2VwaWtfcHl0aG9uJywgJy1waHQnLCAnMi4wJywgJy1waCcsICc3LjAnLCAnLXRuJywgJzgnLCAnLW1hJywgJzIwMCcsICctaW1hZScsICc8aW5maWxlLm1hZT4nLCAnLW9tYWUnLCAnPG91dGZpbGUubWFlPic=

>  <r_lp_tautomer_probability>  (247) 
1

>  <r_epik_Ionization_Penalty>  (247) 
0

>  <r_epik_Ionization_Penalty_Charging>  (247) 
0

>  <r_epik_Ionization_Penalty_Neutral>  (247) 
0

>  <r_epik_State_Penalty>  (247) 
-0

>  <r_epik_Charging_Adjusted_Penalty>  (247) 
0

>  <i_epik_Tot_Q>  (247) 
0

>  <i_epik_Tot_abs_Q>  (247) 
0

>  <s_lp_Force_Field>  (247) 
OPLS3e

>  <r_lp_Energy>  (247) 
58.5844

>  <b_lp_Chiralities_Consistent>  (247) 
1

>  <s_lp_Variant>  (247) 
71:0-1

>  <s_i_glide_gridfile>  (247) 
pfpi4k_grid

>  <i_i_glide_lignum>  (247) 
24

>  <i_i_glide_rotatable_bonds>  (247) 
0

>  <r_i_docking_score>  (247) 
-3.58471

>  <r_i_glide_ligand_efficiency>  (247) 
-0.275747

>  <r_i_glide_ligand_efficiency_sa>  (247) 
-0.648374

>  <r_i_glide_ligand_efficiency_ln>  (247) 
-1.00554

>  <r_i_glide_gscore>  (247) 
-3.58471

>  <r_i_glide_lipo>  (247) 
-0.478909

>  <r_i_glide_hbond>  (247) 
0

>  <r_i_glide_metal>  (247) 
-0

>  <r_i_glide_rewards>  (247) 
-2.23455

>  <r_i_glide_evdw>  (247) 
-16.1493

>  <r_i_glide_ecoul>  (247) 
-0.425258

>  <r_i_glide_erotb>  (247) 
0

>  <r_i_glide_esite>  (247) 
0

>  <r_i_glide_emodel>  (247) 
-20.5708

>  <r_i_glide_energy>  (247) 
-16.5746

>  <r_i_glide_einternal>  (247) 
0

>  <r_i_glide_intrahb_reward>  (247) 
-0

>  <i_i_glide_confnum>  (247) 
2

>  <i_i_glide_posenum>  (247) 
15

>  <r_i_glide_eff_state_penalty>  (247) 
0

>  <ligand_id>  (247) 
71

>  <original_smiles>  (247) 
C1CC2C3C1C1C4CC5C3C2C5C41

>  <smiles>  (247) 
[H]C1([H])C([H])([H])C2([H])C3([H])C1([H])C1([H])C4([H])C([H])([H])C5([H])C3([H])C2([H])C5([H])C41[H]

$$$$
71:0:2
     RDKit          3D

 29 34  0  0  1  0  0  0  0  0999 V2000
    4.3683   -1.6698   -3.4225 C   0  0  0  0  0  0  0  0  0  0  0  0
    2.9297   -1.8078   -2.9190 C   0  0  0  0  0  0  0  0  0  0  0  0
    2.9501   -3.0564   -2.0598 C   0  0  1  0  0  0  0  0  0  0  0  0
    4.3990   -3.4944   -1.8947 C   0  0  1  0  0  0  0  0  0  0  0  0
    5.2303   -2.2759   -2.3012 C   0  0  2  0  0  0  0  0  0  0  0  0
    5.4133   -1.1810   -1.2284 C   0  0  2  0  0  0  0  0  0  0  0  0
    5.8967   -1.3954    0.1782 C   0  0  2  0  0  0  0  0  0  0  0  0
    5.9660   -2.7527    0.8317 C   0  0  0  0  0  0  0  0  0  0  0  0
    4.5228   -3.2412    0.8072 C   0  0  2  0  0  0  0  0  0  0  0  0
    4.0548   -3.9472   -0.4622 C   0  0  1  0  0  0  0  0  0  0  0  0
    2.8336   -3.0488   -0.5211 C   0  0  1  0  0  0  0  0  0  0  0  0
    3.5788   -2.0958    0.4369 C   0  0  2  0  0  0  0  0  0  0  0  0
    4.4566   -0.9929   -0.0805 C   0  0  2  0  0  0  0  0  0  0  0  0
    4.6154   -0.6469   -3.6847 H   0  0  0  0  0  0  0  0  0  0  0  0
    4.4823   -2.2842   -4.3163 H   0  0  0  0  0  0  0  0  0  0  0  0
    2.6464   -0.9437   -2.3186 H   0  0  0  0  0  0  0  0  0  0  0  0
    2.2204   -1.8799   -3.7432 H   0  0  0  0  0  0  0  0  0  0  0  0
    2.3347   -3.8581   -2.4632 H   0  0  0  0  0  0  0  0  0  0  0  0
    4.6008   -4.3620   -2.5202 H   0  0  0  0  0  0  0  0  0  0  0  0
    6.2158   -2.5739   -2.6687 H   0  0  0  0  0  0  0  0  0  0  0  0
    5.7759   -0.2741   -1.6757 H   0  0  0  0  0  0  0  0  0  0  0  0
    6.5492   -0.6374    0.5923 H   0  0  0  0  0  0  0  0  0  0  0  0
    6.6382   -3.4014    0.2592 H   0  0  0  0  0  0  0  0  0  0  0  0
    6.3543   -2.6660    1.8480 H   0  0  0  0  0  0  0  0  0  0  0  0
    4.1899   -3.7808    1.6898 H   0  0  0  0  0  0  0  0  0  0  0  0
    3.7739   -4.9948   -0.3581 H   0  0  0  0  0  0  0  0  0  0  0  0
    1.9547   -3.5266   -0.1095 H   0  0  0  0  0  0  0  0  0  0  0  0
    2.9427   -1.8103    1.2716 H   0  0  0  0  0  0  0  0  0  0  0  0
    4.1562    0.0251    0.1457 H   0  0  0  0  0  0  0  0  0  0  0  0
  1  5  1  0
  1  2  1  0
  1 14  1  0
  1 15  1  0
  2  3  1  0
  2 16  1  0
  2 17  1  0
  3 11  1  0
  3  4  1  0
  3 18  1  6
  4 10  1  0
  4  5  1  0
  4 19  1  6
  5  6  1  0
  5 20  1  6
  6 13  1  0
  6  7  1  0
  6 21  1  6
  7 13  1  0
  7  8  1  0
  7 22  1  1
  8  9  1  0
  8 23  1  0
  8 24  1  0
  9 12  1  0
  9 10  1  0
  9 25  1  1
 10 11  1  0
 10 26  1  1
 11 12  1  0
 11 27  1  6
 12 13  1  0
 12 28  1  1
 13 29  1  1
M  END
>  <i_m_ct_stereo_status>  (248) 
1

>  <s_m_source_file>  (248) 
/var/tmp/pbs.5076255.sched01/tmpm261n1hm/82shs6bvht.sdf

>  <i_m_source_file_index>  (248) 
24

>  <i_lp_mmshare_version>  (248) 
48012

>  <i_f3d_flags>  (248) 
0

>  <s_epik_input>  (248) 
W0NIMl0xW0NIMl1bQ0BIXShbQ0BASF0yW0NASF0xMylbQ0BASF00W0NASF01W0NAQEhdNFtDQEBIXTZbQ0BIXShbQ0gyXTUpW0NASF0yW0NASF0zNg==

>  <s_epik_cmdline>  (248) 
J2VwaWtfcHl0aG9uJywgJy1waHQnLCAnMi4wJywgJy1waCcsICc3LjAnLCAnLXRuJywgJzgnLCAnLW1hJywgJzIwMCcsICctaW1hZScsICc8aW5maWxlLm1hZT4nLCAnLW9tYWUnLCAnPG91dGZpbGUubWFlPic=

>  <r_lp_tautomer_probability>  (248) 
1

>  <r_epik_Ionization_Penalty>  (248) 
0

>  <r_epik_Ionization_Penalty_Charging>  (248) 
0

>  <r_epik_Ionization_Penalty_Neutral>  (248) 
0

>  <r_epik_State_Penalty>  (248) 
-0

>  <r_epik_Charging_Adjusted_Penalty>  (248) 
0

>  <i_epik_Tot_Q>  (248) 
0

>  <i_epik_Tot_abs_Q>  (248) 
0

>  <s_lp_Force_Field>  (248) 
OPLS3e

>  <r_lp_Energy>  (248) 
58.5844

>  <b_lp_Chiralities_Consistent>  (248) 
1

>  <s_lp_Variant>  (248) 
71:0-1

>  <s_i_glide_gridfile>  (248) 
pfpi4k_grid

>  <i_i_glide_lignum>  (248) 
24

>  <i_i_glide_rotatable_bonds>  (248) 
0

>  <r_i_docking_score>  (248) 
-3.42963

>  <r_i_glide_ligand_efficiency>  (248) 
-0.263817

>  <r_i_glide_ligand_efficiency_sa>  (248) 
-0.620323

>  <r_i_glide_ligand_efficiency_ln>  (248) 
-0.962041

>  <r_i_glide_gscore>  (248) 
-3.42963

>  <r_i_glide_lipo>  (248) 
-0.312513

>  <r_i_glide_hbond>  (248) 
0

>  <r_i_glide_metal>  (248) 
-0

>  <r_i_glide_rewards>  (248) 
-2.23455

>  <r_i_glide_evdw>  (248) 
-18.8178

>  <r_i_glide_ecoul>  (248) 
0.388837

>  <r_i_glide_erotb>  (248) 
0

>  <r_i_glide_esite>  (248) 
0

>  <r_i_glide_emodel>  (248) 
-22.2173

>  <r_i_glide_energy>  (248) 
-18.429

>  <r_i_glide_einternal>  (248) 
0

>  <r_i_glide_intrahb_reward>  (248) 
-0

>  <i_i_glide_confnum>  (248) 
1

>  <i_i_glide_posenum>  (248) 
5

>  <r_i_glide_eff_state_penalty>  (248) 
0

>  <ligand_id>  (248) 
71

>  <original_smiles>  (248) 
C1CC2C3C1C1C4CC5C3C2C5C41

>  <smiles>  (248) 
[H]C1([H])C([H])([H])C2([H])C3([H])C1([H])C1([H])C4([H])C([H])([H])C5([H])C3([H])C2([H])C5([H])C41[H]

$$$$
72:0:0
     RDKit          3D

103109  0  0  1  0  0  0  0  0999 V2000
   -2.4270    2.4216    4.0100 C   0  0  0  0  0  0  0  0  0  0  0  0
   -1.7750    1.2097    4.3888 O   0  0  0  0  0  0  0  0  0  0  0  0
   -0.6181    0.8929    3.7129 C   0  0  0  0  0  0  0  0  0  0  0  0
    0.0674   -0.2873    4.0868 C   0  0  0  0  0  0  0  0  0  0  0  0
    1.2753   -0.6469    3.4559 C   0  0  0  0  0  0  0  0  0  0  0  0
    1.8021    0.1379    2.4039 C   0  0  0  0  0  0  0  0  0  0  0  0
    3.0744   -0.1476    1.7226 C   0  0  0  0  0  0  0  0  0  0  0  0
    3.5738   -1.3179    1.4800 N   0  0  0  0  0  0  0  0  0  0  0  0
    2.9536   -2.6445    1.7089 C   0  0  0  0  0  0  0  0  0  0  0  0
    3.6385   -3.8192    0.9544 C   0  0  1  0  0  0  0  0  0  0  0  0
    3.2044   -3.5611   -0.5244 C   0  0  0  0  0  0  0  0  0  0  0  0
    5.2066   -3.9303    1.0061 C   0  0  0  0  0  0  0  0  0  0  0  0
    5.7464   -5.1415    1.8578 C   0  0  1  0  0  0  0  0  0  0  0  0
    5.1745   -4.9906    3.2874 C   0  0  0  0  0  0  0  0  0  0  0  0
    6.1955   -5.6662    4.2754 C   0  0  0  0  0  0  0  0  0  0  0  0
    5.1912   -3.5470    3.9107 C   0  0  0  0  0  0  0  0  0  0  0  0
    3.6654   -5.5189    3.0756 C   0  0  1  0  0  0  0  0  0  0  0  0
    3.0863   -5.1459    1.5796 C   0  0  2  0  0  0  0  0  0  0  0  0
    3.1649   -6.2605    0.4942 C   0  0  0  0  0  0  0  0  0  0  0  0
    4.6013   -6.5198   -0.0095 C   0  0  0  0  0  0  0  0  0  0  0  0
    5.4391   -6.5765    1.2441 C   0  0  1  0  0  0  0  0  0  0  0  0
    6.4026   -7.5752    1.6434 O   0  0  0  0  0  0  0  0  0  0  0  0
    5.0657   -7.9618    1.8981 C   0  0  2  0  0  0  0  0  0  0  0  0
    4.7733   -9.2199    1.0862 C   0  0  0  0  0  0  0  0  0  0  0  0
    4.4949   -8.0482    3.3302 C   0  0  2  0  0  0  0  0  0  0  0  0
    4.4383   -9.4667    3.9641 C   0  0  0  0  0  0  0  0  0  0  0  0
    3.2502  -10.3982    3.6339 C   0  0  1  0  0  0  0  0  0  0  0  0
    3.7318  -11.6797    3.2847 O   0  0  0  0  0  0  0  0  0  0  0  0
    2.3724  -10.5382    4.8540 C   0  0  2  0  0  0  0  0  0  0  0  0
    0.8971  -10.7081    4.7801 C   0  0  0  0  0  0  0  0  0  0  0  0
    1.4597   -9.4232    5.3812 C   0  0  1  0  0  0  0  0  0  0  0  0
    1.4800   -9.3267    6.8892 C   0  0  0  0  0  0  0  0  0  0  0  0
    0.1820   -9.5248    7.6767 C   0  0  0  0  0  0  0  0  0  0  0  0
    2.5309   -9.0614    7.4799 O   0  0  0  0  0  0  0  0  0  0  0  0
    1.0113   -8.1167    4.6552 C   0  0  1  0  0  0  0  0  0  0  0  0
    0.6418   -7.0472    5.5409 O   0  0  0  0  0  0  0  0  0  0  0  0
   -0.5774   -6.4485    5.4440 C   0  0  0  0  0  0  0  0  0  0  0  0
   -1.4453   -6.7816    4.6308 O   0  0  0  0  0  0  0  0  0  0  0  0
   -0.7498   -5.4753    6.4319 N   0  0  0  0  0  0  0  0  0  0  0  0
    0.3404   -4.9618    7.2585 C   0  0  0  0  0  0  0  0  0  0  0  0
   -2.0929   -5.0155    6.7920 C   0  0  0  0  0  0  0  0  0  0  0  0
    1.8626   -7.5127    3.4606 C   0  0  1  0  0  0  0  0  0  0  0  0
    1.0333   -6.4688    2.9556 O   0  0  0  0  0  0  0  0  0  0  0  0
    0.0554   -6.8243    1.9884 C   0  0  0  0  0  0  0  0  0  0  0  0
    3.3580   -6.9858    3.6857 C   0  0  2  0  0  0  0  0  0  0  0  0
    3.4571   -6.7913    5.0902 O   0  0  0  0  0  0  0  0  0  0  0  0
    1.1230    1.3171    2.0395 C   0  0  0  0  0  0  0  0  0  0  0  0
   -0.0676    1.6880    2.6770 C   0  0  0  0  0  0  0  0  0  0  0  0
   -3.3469    2.5900    4.5711 H   0  0  0  0  0  0  0  0  0  0  0  0
   -2.6940    2.3987    2.9505 H   0  0  0  0  0  0  0  0  0  0  0  0
   -1.7662    3.2709    4.1982 H   0  0  0  0  0  0  0  0  0  0  0  0
   -0.3212   -0.9117    4.8788 H   0  0  0  0  0  0  0  0  0  0  0  0
    1.7949   -1.5184    3.8254 H   0  0  0  0  0  0  0  0  0  0  0  0
    3.6126    0.7195    1.3576 H   0  0  0  0  0  0  0  0  0  0  0  0
    2.9407   -2.8401    2.7739 H   0  0  0  0  0  0  0  0  0  0  0  0
    1.9068   -2.5563    1.4185 H   0  0  0  0  0  0  0  0  0  0  0  0
    3.6396   -4.2576   -1.2429 H   0  0  0  0  0  0  0  0  0  0  0  0
    3.5157   -2.5697   -0.8545 H   0  0  0  0  0  0  0  0  0  0  0  0
    2.1203   -3.6144   -0.6388 H   0  0  0  0  0  0  0  0  0  0  0  0
    5.6294   -3.9743   -0.0005 H   0  0  0  0  0  0  0  0  0  0  0  0
    5.6471   -3.0032    1.3678 H   0  0  0  0  0  0  0  0  0  0  0  0
    6.8324   -5.0348    1.8891 H   0  0  0  0  0  0  0  0  0  0  0  0
    5.7483   -6.0222    5.2026 H   0  0  0  0  0  0  0  0  0  0  0  0
    6.9995   -5.0193    4.6090 H   0  0  0  0  0  0  0  0  0  0  0  0
    6.7914   -6.4505    3.8072 H   0  0  0  0  0  0  0  0  0  0  0  0
    4.6263   -3.5278    4.8429 H   0  0  0  0  0  0  0  0  0  0  0  0
    4.8374   -2.7372    3.2995 H   0  0  0  0  0  0  0  0  0  0  0  0
    6.1822   -3.1962    4.1693 H   0  0  0  0  0  0  0  0  0  0  0  0
    3.0615   -4.8769    3.7177 H   0  0  0  0  0  0  0  0  0  0  0  0
    2.0250   -4.9336    1.6713 H   0  0  0  0  0  0  0  0  0  0  0  0
    2.7695   -7.1872    0.8973 H   0  0  0  0  0  0  0  0  0  0  0  0
    2.4955   -6.0263   -0.3237 H   0  0  0  0  0  0  0  0  0  0  0  0
    4.6104   -7.4330   -0.5946 H   0  0  0  0  0  0  0  0  0  0  0  0
    4.9884   -5.7995   -0.7221 H   0  0  0  0  0  0  0  0  0  0  0  0
    3.7120   -9.3119    0.8521 H   0  0  0  0  0  0  0  0  0  0  0  0
    5.0948  -10.1232    1.5961 H   0  0  0  0  0  0  0  0  0  0  0  0
    5.3392   -9.1989    0.1628 H   0  0  0  0  0  0  0  0  0  0  0  0
    5.3422   -7.7903    3.9183 H   0  0  0  0  0  0  0  0  0  0  0  0
    5.3775   -9.9756    3.7362 H   0  0  0  0  0  0  0  0  0  0  0  0
    4.5002   -9.3546    5.0515 H   0  0  0  0  0  0  0  0  0  0  0  0
    2.6634  -10.0763    2.7841 H   0  0  0  0  0  0  0  0  0  0  0  0
    3.8278  -11.7385    2.3320 H   0  0  0  0  0  0  0  0  0  0  0  0
    2.8472  -11.1625    5.6174 H   0  0  0  0  0  0  0  0  0  0  0  0
    0.4464  -10.6622    3.7906 H   0  0  0  0  0  0  0  0  0  0  0  0
    0.4595  -11.4413    5.4474 H   0  0  0  0  0  0  0  0  0  0  0  0
   -0.6127   -8.8830    7.2941 H   0  0  0  0  0  0  0  0  0  0  0  0
    0.3328   -9.2902    8.7303 H   0  0  0  0  0  0  0  0  0  0  0  0
   -0.1560  -10.5620    7.6152 H   0  0  0  0  0  0  0  0  0  0  0  0
    0.0912   -8.4527    4.1771 H   0  0  0  0  0  0  0  0  0  0  0  0
    1.3008   -4.9859    6.7371 H   0  0  0  0  0  0  0  0  0  0  0  0
    0.4189   -5.5493    8.1753 H   0  0  0  0  0  0  0  0  0  0  0  0
    0.1470   -3.9191    7.5233 H   0  0  0  0  0  0  0  0  0  0  0  0
   -2.8681   -5.4216    6.1323 H   0  0  0  0  0  0  0  0  0  0  0  0
   -2.1685   -3.9264    6.7725 H   0  0  0  0  0  0  0  0  0  0  0  0
   -2.3365   -5.3657    7.7956 H   0  0  0  0  0  0  0  0  0  0  0  0
    1.8996   -8.2317    2.6531 H   0  0  0  0  0  0  0  0  0  0  0  0
   -0.4353   -5.9017    1.6829 H   0  0  0  0  0  0  0  0  0  0  0  0
   -0.6922   -7.5042    2.3899 H   0  0  0  0  0  0  0  0  0  0  0  0
    0.4935   -7.2799    1.1042 H   0  0  0  0  0  0  0  0  0  0  0  0
    3.3232   -7.6236    5.5225 H   0  0  0  0  0  0  0  0  0  0  0  0
    1.5058    1.9690    1.2732 H   0  0  0  0  0  0  0  0  0  0  0  0
   -0.5231    2.6093    2.3409 H   0  0  0  0  0  0  0  0  0  0  0  0
    4.4564   -1.3526    0.9639 H   0  0  0  0  0  0  0  0  0  0  0  0
  1  2  1  0
  1 49  1  0
  1 50  1  0
  1 51  1  0
  2  3  1  0
  3 48  2  0
  3  4  1  0
  4  5  2  0
  4 52  1  0
  5  6  1  0
  5 53  1  0
  6  7  1  0
  6 47  2  0
  7  8  2  3
  7 54  1  0
  8  9  1  0
  8103  1  0
 10  9  1  1
  9 55  1  0
  9 56  1  0
 10 18  1  0
 10 11  1  0
 10 12  1  0
 11 57  1  0
 11 58  1  0
 11 59  1  0
 12 13  1  0
 12 60  1  0
 12 61  1  0
 13 21  1  0
 13 14  1  0
 13 62  1  1
 14 15  1  0
 14 16  1  0
 14 17  1  0
 15 63  1  0
 15 64  1  0
 15 65  1  0
 16 66  1  0
 16 67  1  0
 16 68  1  0
 17 45  1  0
 17 18  1  0
 17 69  1  1
 18 19  1  0
 18 70  1  1
 19 20  1  0
 19 71  1  0
 19 72  1  0
 20 21  1  0
 20 73  1  0
 20 74  1  0
 21 23  1  0
 21 22  1  6
 22 23  1  0
 23 24  1  6
 23 25  1  0
 24 75  1  0
 24 76  1  0
 24 77  1  0
 25 45  1  0
 25 26  1  0
 25 78  1  1
 26 27  1  0
 26 79  1  0
 26 80  1  0
 27 28  1  0
 27 29  1  0
 27 81  1  6
 28 82  1  0
 29 31  1  0
 29 30  1  0
 29 83  1  1
 30 31  1  0
 30 84  1  0
 30 85  1  0
 31 32  1  1
 31 35  1  0
 32 33  1  0
 32 34  2  0
 33 86  1  0
 33 87  1  0
 33 88  1  0
 35 36  1  0
 35 42  1  0
 35 89  1  6
 36 37  1  0
 37 38  2  0
 37 39  1  0
 39 40  1  0
 39 41  1  0
 40 90  1  0
 40 91  1  0
 40 92  1  0
 41 93  1  0
 41 94  1  0
 41 95  1  0
 42 43  1  0
 42 45  1  0
 42 96  1  6
 43 44  1  0
 44 97  1  0
 44 98  1  0
 44 99  1  0
 45 46  1  1
 46100  1  0
 47 48  1  0
 47101  1  0
 48102  1  0
M  CHG  1   8   1
M  END
>  <i_m_ct_stereo_status>  (249) 
1

>  <s_m_source_file>  (249) 
/var/tmp/pbs.5076255.sched01/tmpm261n1hm/82shs6bvht.sdf

>  <i_m_source_file_index>  (249) 
25

>  <i_lp_mmshare_version>  (249) 
48012

>  <i_f3d_flags>  (249) 
0

>  <s_epik_input>  (249) 
W0NIM11PYzFbY0hdW2NIXWMoW2NIXVtjSF0xKS9bQ0hdPU4vW0NIMl1bQ0BAXShbQ0gzXSkoW0NIMl1bQ0BASF0yW0NAQF0zNDUpW0NAQEhdKFtDSDJdW0NIMl0zKVtDQEhdKEMyKFtDSDNdKVtDSDNdKVtDQF02KFtPSF0pW0NASF0oW0NAQF01KE80KVtDSDNdKVtDSDJdW0NAQEhdKFtPSF0pW0NASF03W0NAQF0oW0NIMl03KShDKD1PKVtDSDNdKVtDQEhdKFtDQEhdNk9bQ0gzXSlPQyg9TylOKFtDSDNdKVtDSDNd

>  <s_epik_cmdline>  (249) 
J2VwaWtfcHl0aG9uJywgJy1waHQnLCAnMi4wJywgJy1waCcsICc3LjAnLCAnLXRuJywgJzgnLCAnLW1hJywgJzIwMCcsICctaW1hZScsICc8aW5maWxlLm1hZT4nLCAnLW9tYWUnLCAnPG91dGZpbGUubWFlPic=

>  <r_lp_tautomer_probability>  (249) 
0.99995

>  <r_epik_Ionization_Penalty>  (249) 
0.000622722

>  <r_epik_Ionization_Penalty_Charging>  (249) 
0.000620529

>  <r_epik_Ionization_Penalty_Neutral>  (249) 
2.19321e-06

>  <r_epik_State_Penalty>  (249) 
0.000391712

>  <r_epik_Charging_Adjusted_Penalty>  (249) 
0.00101224

>  <i_epik_Tot_Q>  (249) 
1

>  <i_epik_Tot_abs_Q>  (249) 
1

>  <s_epik_Chemistry_Notes>  (249) 
This compound has an ester and may undergo hydrolysis at high or low pH. This compound has an imine and may undergo hydrolysis.

>  <s_lp_Force_Field>  (249) 
OPLS3e

>  <r_lp_Energy>  (249) 
206.233

>  <b_lp_Chiralities_Consistent>  (249) 
1

>  <s_lp_Variant>  (249) 
72:0-1

>  <s_i_glide_gridfile>  (249) 
pfpi4k_grid

>  <i_i_glide_lignum>  (249) 
25

>  <i_i_glide_rotatable_bonds>  (249) 
11

>  <r_i_docking_score>  (249) 
-3.13728

>  <r_i_glide_ligand_efficiency>  (249) 
-0.0653601

>  <r_i_glide_ligand_efficiency_sa>  (249) 
-0.237534

>  <r_i_glide_ligand_efficiency_ln>  (249) 
-0.644047

>  <r_i_glide_gscore>  (249) 
-3.13728

>  <r_i_glide_lipo>  (249) 
-0.348896

>  <r_i_glide_hbond>  (249) 
-0.144015

>  <r_i_glide_metal>  (249) 
-0

>  <r_i_glide_rewards>  (249) 
0

>  <r_i_glide_evdw>  (249) 
-35.508

>  <r_i_glide_ecoul>  (249) 
-5.51552

>  <r_i_glide_erotb>  (249) 
0.0784939

>  <r_i_glide_esite>  (249) 
-0.12014

>  <r_i_glide_emodel>  (249) 
-43.564

>  <r_i_glide_energy>  (249) 
-41.0235

>  <r_i_glide_einternal>  (249) 
9.14952

>  <r_i_glide_intrahb_reward>  (249) 
-0

>  <i_i_glide_confnum>  (249) 
4

>  <i_i_glide_posenum>  (249) 
6

>  <r_i_glide_eff_state_penalty>  (249) 
0

>  <ligand_id>  (249) 
72

>  <original_smiles>  (249) 
COc1ccc(C=NCC2(C)CC3C(C)(C)C4C2CCC32OC2(C)C2CC(O)C3CC3(C(C)=O)C(OC(=O)N(C)C)C(OC)C42O)cc1

>  <smiles>  (249) 
[H]OC1([H])C([H])([H])C2([H])C(O[H])(C([H])(OC([H])([H])[H])C([H])(OC(=O)N(C([H])([H])[H])C([H])([H])[H])C3(C(=O)C([H])([H])[H])C([H])([H])C13[H])C1([H])C3([H])C([H])([H])C([H])([H])C4(OC24C([H])([H])[H])C([H])(C([H])([H])C3(C([H])([H])[H])C([H])([H])[N+]([H])=C([H])c2c([H])c([H])c(OC([H])([H])[H])c([H])c2[H])C1(C([H])([H])[H])C([H])([H])[H]

$$$$
72:0:1
     RDKit          3D

103109  0  0  1  0  0  0  0  0999 V2000
   -0.4005    2.1013    6.4428 C   0  0  0  0  0  0  0  0  0  0  0  0
   -0.5634    1.0210    5.5408 O   0  0  0  0  0  0  0  0  0  0  0  0
    0.4034    0.8086    4.5824 C   0  0  0  0  0  0  0  0  0  0  0  0
    1.5835    1.5759    4.4316 C   0  0  0  0  0  0  0  0  0  0  0  0
    2.5134    1.2624    3.4142 C   0  0  0  0  0  0  0  0  0  0  0  0
    2.2696    0.1813    2.5313 C   0  0  0  0  0  0  0  0  0  0  0  0
    3.2555   -0.1360    1.4836 C   0  0  0  0  0  0  0  0  0  0  0  0
    3.6229   -1.3391    1.1342 N   0  0  0  0  0  0  0  0  0  0  0  0
    3.1249   -2.6441    1.6392 C   0  0  0  0  0  0  0  0  0  0  0  0
    3.8486   -3.8945    1.0476 C   0  0  1  0  0  0  0  0  0  0  0  0
    3.4975   -3.8078   -0.4775 C   0  0  0  0  0  0  0  0  0  0  0  0
    5.4093   -3.9893    1.1855 C   0  0  0  0  0  0  0  0  0  0  0  0
    5.8968   -5.0999    2.1916 C   0  0  1  0  0  0  0  0  0  0  0  0
    5.2436   -4.8006    3.5600 C   0  0  0  0  0  0  0  0  0  0  0  0
    6.2056   -5.3566    4.6734 C   0  0  0  0  0  0  0  0  0  0  0  0
    5.2281   -3.2979    4.0212 C   0  0  0  0  0  0  0  0  0  0  0  0
    3.7498   -5.3647    3.3207 C   0  0  1  0  0  0  0  0  0  0  0  0
    3.2560   -5.1588    1.7667 C   0  0  2  0  0  0  0  0  0  0  0  0
    3.3994   -6.3786    0.8062 C   0  0  0  0  0  0  0  0  0  0  0  0
    4.8606   -6.6760    0.4174 C   0  0  0  0  0  0  0  0  0  0  0  0
    5.6245   -6.5971    1.7159 C   0  0  1  0  0  0  0  0  0  0  0  0
    6.5742   -7.5358    2.2519 O   0  0  0  0  0  0  0  0  0  0  0  0
    5.2237   -7.9094    2.4798 C   0  0  2  0  0  0  0  0  0  0  0  0
    4.9722   -9.2606    1.7907 C   0  0  0  0  0  0  0  0  0  0  0  0
    4.5634   -7.8473    3.8799 C   0  0  2  0  0  0  0  0  0  0  0  0
    4.4822   -9.1854    4.6733 C   0  0  0  0  0  0  0  0  0  0  0  0
    3.3184  -10.1516    4.3880 C   0  0  1  0  0  0  0  0  0  0  0  0
    3.8224  -11.4589    4.2159 O   0  0  0  0  0  0  0  0  0  0  0  0
    2.3637  -10.1765    5.5551 C   0  0  2  0  0  0  0  0  0  0  0  0
    0.8973  -10.3650    5.3816 C   0  0  0  0  0  0  0  0  0  0  0  0
    1.4235   -9.0314    5.9050 C   0  0  1  0  0  0  0  0  0  0  0  0
    1.3443   -8.7897    7.3986 C   0  0  0  0  0  0  0  0  0  0  0  0
    0.1641   -9.3586    8.1934 C   0  0  0  0  0  0  0  0  0  0  0  0
    2.2015   -8.1074    7.9598 O   0  0  0  0  0  0  0  0  0  0  0  0
    1.0288   -7.8119    5.0280 C   0  0  1  0  0  0  0  0  0  0  0  0
    0.6065   -6.6782    5.8030 O   0  0  0  0  0  0  0  0  0  0  0  0
   -0.6474   -6.1985    5.6740 C   0  0  0  0  0  0  0  0  0  0  0  0
   -1.4733   -6.6658    4.8757 O   0  0  0  0  0  0  0  0  0  0  0  0
   -0.9150   -5.1885    6.6074 N   0  0  0  0  0  0  0  0  0  0  0  0
    0.1146   -4.5626    7.4223 C   0  0  0  0  0  0  0  0  0  0  0  0
   -2.2894   -4.7508    6.8849 C   0  0  0  0  0  0  0  0  0  0  0  0
    1.9302   -7.3134    3.8262 C   0  0  1  0  0  0  0  0  0  0  0  0
    1.1241   -6.3168    3.1980 O   0  0  0  0  0  0  0  0  0  0  0  0
    0.1669   -6.7721    2.2478 C   0  0  0  0  0  0  0  0  0  0  0  0
    3.4104   -6.7594    4.0626 C   0  0  2  0  0  0  0  0  0  0  0  0
    3.4379   -6.4143    5.4382 O   0  0  0  0  0  0  0  0  0  0  0  0
    1.0678   -0.5324    2.6549 C   0  0  0  0  0  0  0  0  0  0  0  0
    0.1604   -0.2479    3.6888 C   0  0  0  0  0  0  0  0  0  0  0  0
   -1.2490    2.1194    7.1321 H   0  0  0  0  0  0  0  0  0  0  0  0
   -0.3749    3.0563    5.9161 H   0  0  0  0  0  0  0  0  0  0  0  0
    0.5069    1.9799    7.0348 H   0  0  0  0  0  0  0  0  0  0  0  0
    1.8001    2.4146    5.0856 H   0  0  0  0  0  0  0  0  0  0  0  0
    3.4100    1.8554    3.3070 H   0  0  0  0  0  0  0  0  0  0  0  0
    3.6989    0.7039    0.9665 H   0  0  0  0  0  0  0  0  0  0  0  0
    3.0419   -2.6184    2.7275 H   0  0  0  0  0  0  0  0  0  0  0  0
    2.1053   -2.7265    1.2747 H   0  0  0  0  0  0  0  0  0  0  0  0
    3.9684   -4.5729   -1.0937 H   0  0  0  0  0  0  0  0  0  0  0  0
    3.8277   -2.8684   -0.9217 H   0  0  0  0  0  0  0  0  0  0  0  0
    2.4203   -3.8844   -0.6475 H   0  0  0  0  0  0  0  0  0  0  0  0
    5.8874   -4.1365    0.2125 H   0  0  0  0  0  0  0  0  0  0  0  0
    5.8155   -3.0247    1.4670 H   0  0  0  0  0  0  0  0  0  0  0  0
    6.9788   -4.9874    2.2709 H   0  0  0  0  0  0  0  0  0  0  0  0
    5.7075   -5.6177    5.6062 H   0  0  0  0  0  0  0  0  0  0  0  0
    6.9797   -4.6589    4.9844 H   0  0  0  0  0  0  0  0  0  0  0  0
    6.8315   -6.1788    4.3276 H   0  0  0  0  0  0  0  0  0  0  0  0
    4.6068   -3.1769    4.9097 H   0  0  0  0  0  0  0  0  0  0  0  0
    4.9327   -2.5541    3.3020 H   0  0  0  0  0  0  0  0  0  0  0  0
    6.2066   -2.9315    4.3144 H   0  0  0  0  0  0  0  0  0  0  0  0
    3.1103   -4.6595    3.8505 H   0  0  0  0  0  0  0  0  0  0  0  0
    2.1917   -4.9549    1.7782 H   0  0  0  0  0  0  0  0  0  0  0  0
    2.9616   -7.2588    1.2626 H   0  0  0  0  0  0  0  0  0  0  0  0
    2.7961   -6.2392   -0.0882 H   0  0  0  0  0  0  0  0  0  0  0  0
    4.9052   -7.6471   -0.0580 H   0  0  0  0  0  0  0  0  0  0  0  0
    5.2847   -6.0307   -0.3438 H   0  0  0  0  0  0  0  0  0  0  0  0
    3.9216   -9.3802    1.5162 H   0  0  0  0  0  0  0  0  0  0  0  0
    5.2842  -10.1053    2.4049 H   0  0  0  0  0  0  0  0  0  0  0  0
    5.5805   -9.3584    0.8902 H   0  0  0  0  0  0  0  0  0  0  0  0
    5.3788   -7.5132    4.4762 H   0  0  0  0  0  0  0  0  0  0  0  0
    5.4327   -9.7098    4.5463 H   0  0  0  0  0  0  0  0  0  0  0  0
    4.4837   -8.9474    5.7391 H   0  0  0  0  0  0  0  0  0  0  0  0
    2.7900   -9.9266    3.4697 H   0  0  0  0  0  0  0  0  0  0  0  0
    4.0280  -11.8280    5.0622 H   0  0  0  0  0  0  0  0  0  0  0  0
    2.7855  -10.7012    6.4170 H   0  0  0  0  0  0  0  0  0  0  0  0
    0.5164  -10.4053    4.3657 H   0  0  0  0  0  0  0  0  0  0  0  0
    0.3957  -11.0403    6.0658 H   0  0  0  0  0  0  0  0  0  0  0  0
   -0.7958   -9.1240    7.7218 H   0  0  0  0  0  0  0  0  0  0  0  0
    0.1569   -8.9736    9.2149 H   0  0  0  0  0  0  0  0  0  0  0  0
    0.2547  -10.4431    8.2573 H   0  0  0  0  0  0  0  0  0  0  0  0
    0.1508   -8.2091    4.5241 H   0  0  0  0  0  0  0  0  0  0  0  0
    1.0934   -4.5786    6.9402 H   0  0  0  0  0  0  0  0  0  0  0  0
    0.1772   -5.0798    8.3800 H   0  0  0  0  0  0  0  0  0  0  0  0
   -0.1362   -3.5161    7.5979 H   0  0  0  0  0  0  0  0  0  0  0  0
   -3.0338   -5.2140    6.2337 H   0  0  0  0  0  0  0  0  0  0  0  0
   -2.3980   -3.6663    6.7968 H   0  0  0  0  0  0  0  0  0  0  0  0
   -2.5687   -5.0380    7.8994 H   0  0  0  0  0  0  0  0  0  0  0  0
    2.0011   -8.1056    3.0892 H   0  0  0  0  0  0  0  0  0  0  0  0
   -0.2838   -5.8905    1.8020 H   0  0  0  0  0  0  0  0  0  0  0  0
   -0.6263   -7.3698    2.6917 H   0  0  0  0  0  0  0  0  0  0  0  0
    0.6131   -7.3544    1.4435 H   0  0  0  0  0  0  0  0  0  0  0  0
    3.2710   -7.1884    5.9578 H   0  0  0  0  0  0  0  0  0  0  0  0
    0.7994   -1.3081    1.9587 H   0  0  0  0  0  0  0  0  0  0  0  0
   -0.7422   -0.8263    3.7778 H   0  0  0  0  0  0  0  0  0  0  0  0
    4.2570   -1.4149    0.3363 H   0  0  0  0  0  0  0  0  0  0  0  0
  1  2  1  0
  1 49  1  0
  1 50  1  0
  1 51  1  0
  2  3  1  0
  3 48  2  0
  3  4  1  0
  4  5  2  0
  4 52  1  0
  5  6  1  0
  5 53  1  0
  6  7  1  0
  6 47  2  0
  7  8  2  3
  7 54  1  0
  8  9  1  0
  8103  1  0
 10  9  1  1
  9 55  1  0
  9 56  1  0
 10 18  1  0
 10 11  1  0
 10 12  1  0
 11 57  1  0
 11 58  1  0
 11 59  1  0
 12 13  1  0
 12 60  1  0
 12 61  1  0
 13 21  1  0
 13 14  1  0
 13 62  1  1
 14 15  1  0
 14 16  1  0
 14 17  1  0
 15 63  1  0
 15 64  1  0
 15 65  1  0
 16 66  1  0
 16 67  1  0
 16 68  1  0
 17 45  1  0
 17 18  1  0
 17 69  1  1
 18 19  1  0
 18 70  1  1
 19 20  1  0
 19 71  1  0
 19 72  1  0
 20 21  1  0
 20 73  1  0
 20 74  1  0
 21 23  1  0
 21 22  1  6
 22 23  1  0
 23 24  1  6
 23 25  1  0
 24 75  1  0
 24 76  1  0
 24 77  1  0
 25 45  1  0
 25 26  1  0
 25 78  1  1
 26 27  1  0
 26 79  1  0
 26 80  1  0
 27 28  1  0
 27 29  1  0
 27 81  1  6
 28 82  1  0
 29 31  1  0
 29 30  1  0
 29 83  1  1
 30 31  1  0
 30 84  1  0
 30 85  1  0
 31 32  1  1
 31 35  1  0
 32 33  1  0
 32 34  2  0
 33 86  1  0
 33 87  1  0
 33 88  1  0
 35 36  1  0
 35 42  1  0
 35 89  1  6
 36 37  1  0
 37 38  2  0
 37 39  1  0
 39 40  1  0
 39 41  1  0
 40 90  1  0
 40 91  1  0
 40 92  1  0
 41 93  1  0
 41 94  1  0
 41 95  1  0
 42 43  1  0
 42 45  1  0
 42 96  1  6
 43 44  1  0
 44 97  1  0
 44 98  1  0
 44 99  1  0
 45 46  1  1
 46100  1  0
 47 48  1  0
 47101  1  0
 48102  1  0
M  CHG  1   8   1
M  END
>  <i_m_ct_stereo_status>  (250) 
1

>  <s_m_source_file>  (250) 
/var/tmp/pbs.5076255.sched01/tmpm261n1hm/82shs6bvht.sdf

>  <i_m_source_file_index>  (250) 
25

>  <i_lp_mmshare_version>  (250) 
48012

>  <i_f3d_flags>  (250) 
0

>  <s_epik_input>  (250) 
W0NIM11PYzFbY0hdW2NIXWMoW2NIXVtjSF0xKS9bQ0hdPU4vW0NIMl1bQ0BAXShbQ0gzXSkoW0NIMl1bQ0BASF0yW0NAQF0zNDUpW0NAQEhdKFtDSDJdW0NIMl0zKVtDQEhdKEMyKFtDSDNdKVtDSDNdKVtDQF02KFtPSF0pW0NASF0oW0NAQF01KE80KVtDSDNdKVtDSDJdW0NAQEhdKFtPSF0pW0NASF03W0NAQF0oW0NIMl03KShDKD1PKVtDSDNdKVtDQEhdKFtDQEhdNk9bQ0gzXSlPQyg9TylOKFtDSDNdKVtDSDNd

>  <s_epik_cmdline>  (250) 
J2VwaWtfcHl0aG9uJywgJy1waHQnLCAnMi4wJywgJy1waCcsICc3LjAnLCAnLXRuJywgJzgnLCAnLW1hJywgJzIwMCcsICctaW1hZScsICc8aW5maWxlLm1hZT4nLCAnLW9tYWUnLCAnPG91dGZpbGUubWFlPic=

>  <r_lp_tautomer_probability>  (250) 
0.99995

>  <r_epik_Ionization_Penalty>  (250) 
0.000622722

>  <r_epik_Ionization_Penalty_Charging>  (250) 
0.000620529

>  <r_epik_Ionization_Penalty_Neutral>  (250) 
2.19321e-06

>  <r_epik_State_Penalty>  (250) 
0.000391712

>  <r_epik_Charging_Adjusted_Penalty>  (250) 
0.00101224

>  <i_epik_Tot_Q>  (250) 
1

>  <i_epik_Tot_abs_Q>  (250) 
1

>  <s_epik_Chemistry_Notes>  (250) 
This compound has an ester and may undergo hydrolysis at high or low pH. This compound has an imine and may undergo hydrolysis.

>  <s_lp_Force_Field>  (250) 
OPLS3e

>  <r_lp_Energy>  (250) 
206.233

>  <b_lp_Chiralities_Consistent>  (250) 
1

>  <s_lp_Variant>  (250) 
72:0-1

>  <s_i_glide_gridfile>  (250) 
pfpi4k_grid

>  <i_i_glide_lignum>  (250) 
25

>  <i_i_glide_rotatable_bonds>  (250) 
11

>  <r_i_docking_score>  (250) 
-3.02386

>  <r_i_glide_ligand_efficiency>  (250) 
-0.062997

>  <r_i_glide_ligand_efficiency_sa>  (250) 
-0.228946

>  <r_i_glide_ligand_efficiency_ln>  (250) 
-0.620762

>  <r_i_glide_gscore>  (250) 
-3.02386

>  <r_i_glide_lipo>  (250) 
-0.361697

>  <r_i_glide_hbond>  (250) 
0

>  <r_i_glide_metal>  (250) 
-0

>  <r_i_glide_rewards>  (250) 
-0.5

>  <r_i_glide_evdw>  (250) 
-30.1501

>  <r_i_glide_ecoul>  (250) 
-4.20589

>  <r_i_glide_erotb>  (250) 
0.0784939

>  <r_i_glide_esite>  (250) 
-0.102266

>  <r_i_glide_emodel>  (250) 
-44.083

>  <r_i_glide_energy>  (250) 
-34.356

>  <r_i_glide_einternal>  (250) 
4.75499

>  <r_i_glide_intrahb_reward>  (250) 
-0.5

>  <i_i_glide_confnum>  (250) 
2

>  <i_i_glide_posenum>  (250) 
31

>  <r_i_glide_eff_state_penalty>  (250) 
0

>  <ligand_id>  (250) 
72

>  <original_smiles>  (250) 
COc1ccc(C=NCC2(C)CC3C(C)(C)C4C2CCC32OC2(C)C2CC(O)C3CC3(C(C)=O)C(OC(=O)N(C)C)C(OC)C42O)cc1

>  <smiles>  (250) 
[H]OC1([H])C([H])([H])C2([H])C(O[H])(C([H])(OC([H])([H])[H])C([H])(OC(=O)N(C([H])([H])[H])C([H])([H])[H])C3(C(=O)C([H])([H])[H])C([H])([H])C13[H])C1([H])C3([H])C([H])([H])C([H])([H])C4(OC24C([H])([H])[H])C([H])(C([H])([H])C3(C([H])([H])[H])C([H])([H])[N+]([H])=C([H])c2c([H])c([H])c(OC([H])([H])[H])c([H])c2[H])C1(C([H])([H])[H])C([H])([H])[H]

$$$$
72:0:2
     RDKit          3D

103109  0  0  1  0  0  0  0  0999 V2000
   -2.4259    2.4584    3.9279 C   0  0  0  0  0  0  0  0  0  0  0  0
   -1.7722    1.2720    4.3490 O   0  0  0  0  0  0  0  0  0  0  0  0
   -0.6120    0.9338    3.6800 C   0  0  0  0  0  0  0  0  0  0  0  0
    0.0425   -0.2395    4.0728 C   0  0  0  0  0  0  0  0  0  0  0  0
    1.2539   -0.6360    3.4658 C   0  0  0  0  0  0  0  0  0  0  0  0
    1.8126    0.1220    2.4064 C   0  0  0  0  0  0  0  0  0  0  0  0
    3.0865   -0.1976    1.7373 C   0  0  0  0  0  0  0  0  0  0  0  0
    3.5871   -1.3641    1.5372 N   0  0  0  0  0  0  0  0  0  0  0  0
    2.9714   -2.6921    1.8109 C   0  0  0  0  0  0  0  0  0  0  0  0
    3.6543   -3.8881    1.1030 C   0  0  1  0  0  0  0  0  0  0  0  0
    3.2185   -3.6872   -0.3767 C   0  0  0  0  0  0  0  0  0  0  0  0
    5.2218   -3.9975    1.1594 C   0  0  0  0  0  0  0  0  0  0  0  0
    5.7554   -5.1734    2.0580 C   0  0  1  0  0  0  0  0  0  0  0  0
    5.1855   -4.9682    3.4791 C   0  0  0  0  0  0  0  0  0  0  0  0
    6.2004   -5.5973    4.5008 C   0  0  0  0  0  0  0  0  0  0  0  0
    5.2021   -3.5034    4.0489 C   0  0  0  0  0  0  0  0  0  0  0  0
    3.6748   -5.5088    3.2867 C   0  0  1  0  0  0  0  0  0  0  0  0
    3.0964   -5.1930    1.7772 C   0  0  2  0  0  0  0  0  0  0  0  0
    3.1786   -6.3475    0.7335 C   0  0  0  0  0  0  0  0  0  0  0  0
    4.6120   -6.6202    0.2397 C   0  0  0  0  0  0  0  0  0  0  0  0
    5.4484   -6.6437    1.5068 C   0  0  1  0  0  0  0  0  0  0  0  0
    6.4076   -7.6079    1.9231 O   0  0  0  0  0  0  0  0  0  0  0  0
    5.0810   -7.9812    2.1969 C   0  0  2  0  0  0  0  0  0  0  0  0
    4.7765   -9.2874    1.4456 C   0  0  0  0  0  0  0  0  0  0  0  0
    4.5027   -8.0225    3.6346 C   0  0  2  0  0  0  0  0  0  0  0  0
    4.4505   -9.4165    4.3273 C   0  0  0  0  0  0  0  0  0  0  0  0
    3.2679  -10.3588    4.0236 C   0  0  1  0  0  0  0  0  0  0  0  0
    3.7587  -11.6439    3.7313 O   0  0  0  0  0  0  0  0  0  0  0  0
    2.3868  -10.4797    5.2406 C   0  0  2  0  0  0  0  0  0  0  0  0
    0.9107  -10.6070    5.1752 C   0  0  0  0  0  0  0  0  0  0  0  0
    1.5235   -9.3241    5.7353 C   0  0  1  0  0  0  0  0  0  0  0  0
    1.4972   -9.1961    7.2548 C   0  0  0  0  0  0  0  0  0  0  0  0
    2.8274   -9.1674    8.0279 C   0  0  0  0  0  0  0  0  0  0  0  0
    0.4336   -9.1186    7.8679 O   0  0  0  0  0  0  0  0  0  0  0  0
    1.0227   -8.0645    4.9622 C   0  0  1  0  0  0  0  0  0  0  0  0
    0.6350   -6.9797    5.8300 O   0  0  0  0  0  0  0  0  0  0  0  0
   -0.5698   -6.3730    5.7202 C   0  0  0  0  0  0  0  0  0  0  0  0
   -1.4314   -6.6691    4.8769 O   0  0  0  0  0  0  0  0  0  0  0  0
   -0.7396   -5.4015    6.7206 N   0  0  0  0  0  0  0  0  0  0  0  0
   -2.0144   -4.7127    6.8841 C   0  0  0  0  0  0  0  0  0  0  0  0
    0.2974   -5.0362    7.6981 C   0  0  0  0  0  0  0  0  0  0  0  0
    1.8706   -7.4853    3.7596 C   0  0  1  0  0  0  0  0  0  0  0  0
    1.0575   -6.4526    3.2198 O   0  0  0  0  0  0  0  0  0  0  0  0
    0.0825   -6.8390    2.2605 C   0  0  0  0  0  0  0  0  0  0  0  0
    3.3664   -6.9515    3.9502 C   0  0  2  0  0  0  0  0  0  0  0  0
    3.4687   -6.6979    5.3401 O   0  0  0  0  0  0  0  0  0  0  0  0
    1.1691    1.3057    2.0310 C   0  0  0  0  0  0  0  0  0  0  0  0
   -0.0364    1.7123    2.6408 C   0  0  0  0  0  0  0  0  0  0  0  0
   -3.3556    2.6584    4.4832 H   0  0  0  0  0  0  0  0  0  0  0  0
   -2.6936    2.4047    2.8679 H   0  0  0  0  0  0  0  0  0  0  0  0
   -1.7720    3.3208    4.0825 H   0  0  0  0  0  0  0  0  0  0  0  0
   -0.3655   -0.8614    4.8730 H   0  0  0  0  0  0  0  0  0  0  0  0
    1.7505   -1.5146    3.8621 H   0  0  0  0  0  0  0  0  0  0  0  0
    3.6216    0.6635    1.3371 H   0  0  0  0  0  0  0  0  0  0  0  0
    2.9692   -2.8587    2.8718 H   0  0  0  0  0  0  0  0  0  0  0  0
    1.9241   -2.6062    1.5236 H   0  0  0  0  0  0  0  0  0  0  0  0
    3.6532   -4.4028   -1.0709 H   0  0  0  0  0  0  0  0  0  0  0  0
    3.5300   -2.7067   -0.7441 H   0  0  0  0  0  0  0  0  0  0  0  0
    2.1301   -3.7430   -0.4880 H   0  0  0  0  0  0  0  0  0  0  0  0
    5.6448   -4.0705    0.1509 H   0  0  0  0  0  0  0  0  0  0  0  0
    5.6520   -3.0711    1.4994 H   0  0  0  0  0  0  0  0  0  0  0  0
    6.8391   -5.0722    2.0893 H   0  0  0  0  0  0  0  0  0  0  0  0
    5.7531   -5.9214    5.4405 H   0  0  0  0  0  0  0  0  0  0  0  0
    6.9920   -4.9202    4.8285 H   0  0  0  0  0  0  0  0  0  0  0  0
    6.8042   -6.3915    4.0681 H   0  0  0  0  0  0  0  0  0  0  0  0
    4.6417   -3.4456    4.9841 H   0  0  0  0  0  0  0  0  0  0  0  0
    4.8587   -2.7134    3.4132 H   0  0  0  0  0  0  0  0  0  0  0  0
    6.1965   -3.1401    4.3001 H   0  0  0  0  0  0  0  0  0  0  0  0
    3.0780   -4.8436    3.9071 H   0  0  0  0  0  0  0  0  0  0  0  0
    2.0452   -4.9687    1.8639 H   0  0  0  0  0  0  0  0  0  0  0  0
    2.7789   -7.2530    1.1691 H   0  0  0  0  0  0  0  0  0  0  0  0
    2.5230   -6.1535   -0.1104 H   0  0  0  0  0  0  0  0  0  0  0  0
    4.6166   -7.5567   -0.2971 H   0  0  0  0  0  0  0  0  0  0  0  0
    5.0020   -5.9242   -0.4973 H   0  0  0  0  0  0  0  0  0  0  0  0
    3.7161   -9.3869    1.2170 H   0  0  0  0  0  0  0  0  0  0  0  0
    5.1232  -10.1717    1.9815 H   0  0  0  0  0  0  0  0  0  0  0  0
    5.3452   -9.3204    0.5212 H   0  0  0  0  0  0  0  0  0  0  0  0
    5.3551   -7.7362    4.2080 H   0  0  0  0  0  0  0  0  0  0  0  0
    5.3921   -9.9310    4.1226 H   0  0  0  0  0  0  0  0  0  0  0  0
    4.5093   -9.2547    5.4072 H   0  0  0  0  0  0  0  0  0  0  0  0
    2.6735  -10.0653    3.1720 H   0  0  0  0  0  0  0  0  0  0  0  0
    3.8854  -11.7216    2.7890 H   0  0  0  0  0  0  0  0  0  0  0  0
    2.8425  -11.1110    6.0058 H   0  0  0  0  0  0  0  0  0  0  0  0
    0.4609  -10.5872    4.1871 H   0  0  0  0  0  0  0  0  0  0  0  0
    0.4337  -11.2971    5.8699 H   0  0  0  0  0  0  0  0  0  0  0  0
    3.5011   -9.9788    7.7394 H   0  0  0  0  0  0  0  0  0  0  0  0
    2.6584   -9.2907    9.1040 H   0  0  0  0  0  0  0  0  0  0  0  0
    3.3526   -8.2186    7.8735 H   0  0  0  0  0  0  0  0  0  0  0  0
    0.1013   -8.4262    4.5051 H   0  0  0  0  0  0  0  0  0  0  0  0
   -2.8707   -5.2583    6.4723 H   0  0  0  0  0  0  0  0  0  0  0  0
   -1.9847   -3.7097    6.4540 H   0  0  0  0  0  0  0  0  0  0  0  0
   -2.2556   -4.5769    7.9474 H   0  0  0  0  0  0  0  0  0  0  0  0
    1.2231   -5.6062    7.6813 H   0  0  0  0  0  0  0  0  0  0  0  0
   -0.1082   -5.1393    8.7095 H   0  0  0  0  0  0  0  0  0  0  0  0
    0.5625   -3.9926    7.5283 H   0  0  0  0  0  0  0  0  0  0  0  0
    1.9078   -8.2220    2.9715 H   0  0  0  0  0  0  0  0  0  0  0  0
   -0.3926   -5.9246    1.9240 H   0  0  0  0  0  0  0  0  0  0  0  0
   -0.6818   -7.4970    2.6661 H   0  0  0  0  0  0  0  0  0  0  0  0
    0.5081   -7.3205    1.3806 H   0  0  0  0  0  0  0  0  0  0  0  0
    3.3279   -7.5159    5.8044 H   0  0  0  0  0  0  0  0  0  0  0  0
    1.5746    1.9705    1.2830 H   0  0  0  0  0  0  0  0  0  0  0  0
   -0.4440    2.6419    2.2704 H   0  0  0  0  0  0  0  0  0  0  0  0
    4.4715   -1.4208    1.0220 H   0  0  0  0  0  0  0  0  0  0  0  0
  1  2  1  0
  1 49  1  0
  1 50  1  0
  1 51  1  0
  2  3  1  0
  3 48  2  0
  3  4  1  0
  4  5  2  0
  4 52  1  0
  5  6  1  0
  5 53  1  0
  6  7  1  0
  6 47  2  0
  7  8  2  3
  7 54  1  0
  8  9  1  0
  8103  1  0
 10  9  1  1
  9 55  1  0
  9 56  1  0
 10 18  1  0
 10 11  1  0
 10 12  1  0
 11 57  1  0
 11 58  1  0
 11 59  1  0
 12 13  1  0
 12 60  1  0
 12 61  1  0
 13 21  1  0
 13 14  1  0
 13 62  1  1
 14 15  1  0
 14 16  1  0
 14 17  1  0
 15 63  1  0
 15 64  1  0
 15 65  1  0
 16 66  1  0
 16 67  1  0
 16 68  1  0
 17 45  1  0
 17 18  1  0
 17 69  1  1
 18 19  1  0
 18 70  1  1
 19 20  1  0
 19 71  1  0
 19 72  1  0
 20 21  1  0
 20 73  1  0
 20 74  1  0
 21 23  1  0
 21 22  1  6
 22 23  1  0
 23 24  1  6
 23 25  1  0
 24 75  1  0
 24 76  1  0
 24 77  1  0
 25 45  1  0
 25 26  1  0
 25 78  1  1
 26 27  1  0
 26 79  1  0
 26 80  1  0
 27 28  1  0
 27 29  1  0
 27 81  1  6
 28 82  1  0
 29 31  1  0
 29 30  1  0
 29 83  1  1
 30 31  1  0
 30 84  1  0
 30 85  1  0
 31 32  1  1
 31 35  1  0
 32 33  1  0
 32 34  2  0
 33 86  1  0
 33 87  1  0
 33 88  1  0
 35 36  1  0
 35 42  1  0
 35 89  1  6
 36 37  1  0
 37 38  2  0
 37 39  1  0
 39 40  1  0
 39 41  1  0
 40 90  1  0
 40 91  1  0
 40 92  1  0
 41 93  1  0
 41 94  1  0
 41 95  1  0
 42 43  1  0
 42 45  1  0
 42 96  1  6
 43 44  1  0
 44 97  1  0
 44 98  1  0
 44 99  1  0
 45 46  1  1
 46100  1  0
 47 48  1  0
 47101  1  0
 48102  1  0
M  CHG  1   8   1
M  END
>  <i_m_ct_stereo_status>  (251) 
1

>  <s_m_source_file>  (251) 
/var/tmp/pbs.5076255.sched01/tmpm261n1hm/82shs6bvht.sdf

>  <i_m_source_file_index>  (251) 
25

>  <i_lp_mmshare_version>  (251) 
48012

>  <i_f3d_flags>  (251) 
0

>  <s_epik_input>  (251) 
W0NIM11PYzFbY0hdW2NIXWMoW2NIXVtjSF0xKS9bQ0hdPU4vW0NIMl1bQ0BAXShbQ0gzXSkoW0NIMl1bQ0BASF0yW0NAQF0zNDUpW0NAQEhdKFtDSDJdW0NIMl0zKVtDQEhdKEMyKFtDSDNdKVtDSDNdKVtDQF02KFtPSF0pW0NASF0oW0NAQF01KE80KVtDSDNdKVtDSDJdW0NAQEhdKFtPSF0pW0NASF03W0NAQF0oW0NIMl03KShDKD1PKVtDSDNdKVtDQEhdKFtDQEhdNk9bQ0gzXSlPQyg9TylOKFtDSDNdKVtDSDNd

>  <s_epik_cmdline>  (251) 
J2VwaWtfcHl0aG9uJywgJy1waHQnLCAnMi4wJywgJy1waCcsICc3LjAnLCAnLXRuJywgJzgnLCAnLW1hJywgJzIwMCcsICctaW1hZScsICc8aW5maWxlLm1hZT4nLCAnLW9tYWUnLCAnPG91dGZpbGUubWFlPic=

>  <r_lp_tautomer_probability>  (251) 
0.99995

>  <r_epik_Ionization_Penalty>  (251) 
0.000622722

>  <r_epik_Ionization_Penalty_Charging>  (251) 
0.000620529

>  <r_epik_Ionization_Penalty_Neutral>  (251) 
2.19321e-06

>  <r_epik_State_Penalty>  (251) 
0.000391712

>  <r_epik_Charging_Adjusted_Penalty>  (251) 
0.00101224

>  <i_epik_Tot_Q>  (251) 
1

>  <i_epik_Tot_abs_Q>  (251) 
1

>  <s_epik_Chemistry_Notes>  (251) 
This compound has an ester and may undergo hydrolysis at high or low pH. This compound has an imine and may undergo hydrolysis.

>  <s_lp_Force_Field>  (251) 
OPLS3e

>  <r_lp_Energy>  (251) 
206.233

>  <b_lp_Chiralities_Consistent>  (251) 
1

>  <s_lp_Variant>  (251) 
72:0-1

>  <s_i_glide_gridfile>  (251) 
pfpi4k_grid

>  <i_i_glide_lignum>  (251) 
25

>  <i_i_glide_rotatable_bonds>  (251) 
11

>  <r_i_docking_score>  (251) 
-2.92023

>  <r_i_glide_ligand_efficiency>  (251) 
-0.0608382

>  <r_i_glide_ligand_efficiency_sa>  (251) 
-0.221101

>  <r_i_glide_ligand_efficiency_ln>  (251) 
-0.59949

>  <r_i_glide_gscore>  (251) 
-2.92023

>  <r_i_glide_lipo>  (251) 
-0.362641

>  <r_i_glide_hbond>  (251) 
0

>  <r_i_glide_metal>  (251) 
-0

>  <r_i_glide_rewards>  (251) 
0

>  <r_i_glide_evdw>  (251) 
-34.8332

>  <r_i_glide_ecoul>  (251) 
-5.16939

>  <r_i_glide_erotb>  (251) 
0.0784939

>  <r_i_glide_esite>  (251) 
-0.119019

>  <r_i_glide_emodel>  (251) 
-42.9526

>  <r_i_glide_energy>  (251) 
-40.0026

>  <r_i_glide_einternal>  (251) 
8.28245

>  <r_i_glide_intrahb_reward>  (251) 
-0

>  <i_i_glide_confnum>  (251) 
4

>  <i_i_glide_posenum>  (251) 
15

>  <r_i_glide_eff_state_penalty>  (251) 
0

>  <ligand_id>  (251) 
72

>  <original_smiles>  (251) 
COc1ccc(C=NCC2(C)CC3C(C)(C)C4C2CCC32OC2(C)C2CC(O)C3CC3(C(C)=O)C(OC(=O)N(C)C)C(OC)C42O)cc1

>  <smiles>  (251) 
[H]OC1([H])C([H])([H])C2([H])C(O[H])(C([H])(OC([H])([H])[H])C([H])(OC(=O)N(C([H])([H])[H])C([H])([H])[H])C3(C(=O)C([H])([H])[H])C([H])([H])C13[H])C1([H])C3([H])C([H])([H])C([H])([H])C4(OC24C([H])([H])[H])C([H])(C([H])([H])C3(C([H])([H])[H])C([H])([H])[N+]([H])=C([H])c2c([H])c([H])c(OC([H])([H])[H])c([H])c2[H])C1(C([H])([H])[H])C([H])([H])[H]

$$$$
73:0:0
     RDKit          3D

 30 32  0  0  1  0  0  0  0  0999 V2000
    2.6286   -0.0657    1.6724 C   0  0  0  0  0  0  0  0  0  0  0  0
    3.8666   -0.8232    1.2343 C   0  0  0  0  0  0  0  0  0  0  0  0
    5.1136   -0.3247    1.3493 N   0  0  0  0  0  0  0  0  0  0  0  0
    6.2230   -1.4390    0.7441 S   0  0  0  0  0  0  0  0  0  0  0  0
    4.9543   -2.5652    0.3614 C   0  0  0  0  0  0  0  0  0  0  0  0
    5.1739   -3.9113   -0.3062 C   0  0  2  0  0  0  0  0  0  0  0  0
    4.8392   -3.8534   -1.8032 C   0  0  0  0  0  0  0  0  0  0  0  0
    4.4312   -5.0352    0.4095 C   0  0  0  0  0  0  0  0  0  0  0  0
    5.1530   -6.0114    1.1189 C   0  0  0  0  0  0  0  0  0  0  0  0
    4.4699   -7.0695    1.7478 C   0  0  0  0  0  0  0  0  0  0  0  0
    3.0674   -7.1755    1.6866 C   0  0  0  0  0  0  0  0  0  0  0  0
    2.4379   -8.2008    2.3059 N   0  0  0  0  0  0  0  0  0  0  0  0
    1.0949   -8.2580    2.2214 C   0  0  0  0  0  0  0  0  0  0  0  0
    0.3621   -7.2865    1.5086 C   0  0  0  0  0  0  0  0  0  0  0  0
    0.9705   -6.2576    0.8862 N   0  0  0  0  0  0  0  0  0  0  0  0
    2.3249   -6.1857    0.9723 C   0  0  0  0  0  0  0  0  0  0  0  0
    3.0227   -5.1330    0.3499 C   0  0  0  0  0  0  0  0  0  0  0  0
    3.7739   -2.0564    0.7045 N   0  0  0  0  0  0  0  0  0  0  0  0
    2.8474    0.9828    1.8675 H   0  0  0  0  0  0  0  0  0  0  0  0
    2.2177   -0.5100    2.5773 H   0  0  0  0  0  0  0  0  0  0  0  0
    1.8604   -0.1213    0.8979 H   0  0  0  0  0  0  0  0  0  0  0  0
    6.2405   -4.1211   -0.2257 H   0  0  0  0  0  0  0  0  0  0  0  0
    3.7923   -3.5993   -1.9730 H   0  0  0  0  0  0  0  0  0  0  0  0
    5.0172   -4.8210   -2.2719 H   0  0  0  0  0  0  0  0  0  0  0  0
    5.4461   -3.1089   -2.3200 H   0  0  0  0  0  0  0  0  0  0  0  0
    6.2329   -5.9631    1.1772 H   0  0  0  0  0  0  0  0  0  0  0  0
    5.0318   -7.8156    2.2893 H   0  0  0  0  0  0  0  0  0  0  0  0
    0.6009   -9.0821    2.7139 H   0  0  0  0  0  0  0  0  0  0  0  0
   -0.7147   -7.3484    1.4349 H   0  0  0  0  0  0  0  0  0  0  0  0
    2.4635   -4.3962   -0.2081 H   0  0  0  0  0  0  0  0  0  0  0  0
  1  2  1  0
  1 19  1  0
  1 20  1  0
  1 21  1  0
  2 18  1  0
  2  3  2  0
  3  4  1  0
  4  5  1  0
  5  6  1  0
  5 18  2  0
  6  7  1  0
  6  8  1  0
  6 22  1  6
  7 23  1  0
  7 24  1  0
  7 25  1  0
  8 17  1  0
  8  9  2  0
  9 10  1  0
  9 26  1  0
 10 11  2  0
 10 27  1  0
 11 16  1  0
 11 12  1  0
 12 13  2  0
 13 14  1  0
 13 28  1  0
 14 15  2  0
 14 29  1  0
 15 16  1  0
 16 17  2  0
 17 30  1  0
M  END
>  <i_m_ct_stereo_status>  (252) 
1

>  <s_m_source_file>  (252) 
/var/tmp/pbs.5076255.sched01/tmpm261n1hm/82shs6bvht.sdf

>  <i_m_source_file_index>  (252) 
26

>  <i_lp_mmshare_version>  (252) 
48012

>  <i_f3d_flags>  (252) 
0

>  <s_epik_input>  (252) 
W0NIM11jMW5zYyhuMSlbQ0BIXShbQ0gzXSljKFtjSF1bY0hdMilbY0hdYyhjMjMpbltjSF1bY0hdbjM=

>  <s_epik_cmdline>  (252) 
J2VwaWtfcHl0aG9uJywgJy1waHQnLCAnMi4wJywgJy1waCcsICc3LjAnLCAnLXRuJywgJzgnLCAnLW1hJywgJzIwMCcsICctaW1hZScsICc8aW5maWxlLm1hZT4nLCAnLW9tYWUnLCAnPG91dGZpbGUubWFlPic=

>  <r_lp_tautomer_probability>  (252) 
1

>  <r_epik_Ionization_Penalty>  (252) 
1.0346e-06

>  <r_epik_Ionization_Penalty_Charging>  (252) 
0

>  <r_epik_Ionization_Penalty_Neutral>  (252) 
1.0346e-06

>  <r_epik_State_Penalty>  (252) 
-0

>  <r_epik_Charging_Adjusted_Penalty>  (252) 
0

>  <i_epik_Tot_Q>  (252) 
0

>  <i_epik_Tot_abs_Q>  (252) 
0

>  <s_lp_Force_Field>  (252) 
OPLS3e

>  <r_lp_Energy>  (252) 
23.6632

>  <b_lp_Chiralities_Consistent>  (252) 
1

>  <s_lp_Variant>  (252) 
73:0-1

>  <s_i_glide_gridfile>  (252) 
pfpi4k_grid

>  <i_i_glide_lignum>  (252) 
26

>  <i_i_glide_rotatable_bonds>  (252) 
2

>  <r_i_docking_score>  (252) 
-3.39317

>  <r_i_glide_ligand_efficiency>  (252) 
-0.18851

>  <r_i_glide_ligand_efficiency_sa>  (252) 
-0.494035

>  <r_i_glide_ligand_efficiency_ln>  (252) 
-0.872198

>  <r_i_glide_gscore>  (252) 
-3.39317

>  <r_i_glide_lipo>  (252) 
-0.42929

>  <r_i_glide_hbond>  (252) 
-0.225169

>  <r_i_glide_metal>  (252) 
-0

>  <r_i_glide_rewards>  (252) 
-1.66141

>  <r_i_glide_evdw>  (252) 
-23.2795

>  <r_i_glide_ecoul>  (252) 
-2.99408

>  <r_i_glide_erotb>  (252) 
0.536479

>  <r_i_glide_esite>  (252) 
-0.000702245

>  <r_i_glide_emodel>  (252) 
-31.9557

>  <r_i_glide_energy>  (252) 
-26.2736

>  <r_i_glide_einternal>  (252) 
0.0827028

>  <r_i_glide_intrahb_reward>  (252) 
-0

>  <i_i_glide_confnum>  (252) 
3

>  <i_i_glide_posenum>  (252) 
1

>  <r_i_glide_eff_state_penalty>  (252) 
0

>  <ligand_id>  (252) 
73

>  <original_smiles>  (252) 
Cc1nsc(C(C)c2ccc3nccnc3c2)n1

>  <smiles>  (252) 
[H]c1nc2c([H])c([H])c(C([H])(c3nc(C([H])([H])[H])ns3)C([H])([H])[H])c([H])c2nc1[H]

$$$$
73:0:1
     RDKit          3D

 30 32  0  0  1  0  0  0  0  0999 V2000
    3.7264    0.3631   -4.4822 C   0  0  0  0  0  0  0  0  0  0  0  0
    3.6730   -0.8801   -3.6384 C   0  0  0  0  0  0  0  0  0  0  0  0
    2.7832   -1.8580   -3.8769 N   0  0  0  0  0  0  0  0  0  0  0  0
    2.9408   -3.0481   -2.7038 S   0  0  0  0  0  0  0  0  0  0  0  0
    4.2726   -2.1973   -1.9507 C   0  0  0  0  0  0  0  0  0  0  0  0
    5.0648   -2.6406   -0.7254 C   0  0  2  0  0  0  0  0  0  0  0  0
    6.1919   -3.6228   -1.0720 C   0  0  0  0  0  0  0  0  0  0  0  0
    4.1860   -3.1683    0.3982 C   0  0  0  0  0  0  0  0  0  0  0  0
    4.0944   -2.4580    1.6096 C   0  0  0  0  0  0  0  0  0  0  0  0
    3.2747   -2.9474    2.6442 C   0  0  0  0  0  0  0  0  0  0  0  0
    2.5297   -4.1341    2.4839 C   0  0  0  0  0  0  0  0  0  0  0  0
    1.7345   -4.5794    3.4894 N   0  0  0  0  0  0  0  0  0  0  0  0
    1.0521   -5.7266    3.2878 C   0  0  0  0  0  0  0  0  0  0  0  0
    1.1271   -6.4266    2.0670 C   0  0  0  0  0  0  0  0  0  0  0  0
    1.8886   -5.9767    1.0480 N   0  0  0  0  0  0  0  0  0  0  0  0
    2.6159   -4.8522    1.2560 C   0  0  0  0  0  0  0  0  0  0  0  0
    3.4599   -4.3686    0.2397 C   0  0  0  0  0  0  0  0  0  0  0  0
    4.5411   -1.0810   -2.6273 N   0  0  0  0  0  0  0  0  0  0  0  0
    2.8426    0.4472   -5.1210 H   0  0  0  0  0  0  0  0  0  0  0  0
    4.5960    0.3048   -5.1191 H   0  0  0  0  0  0  0  0  0  0  0  0
    3.8121    1.2563   -3.8562 H   0  0  0  0  0  0  0  0  0  0  0  0
    5.5530   -1.7389   -0.3546 H   0  0  0  0  0  0  0  0  0  0  0  0
    5.7916   -4.5447   -1.4875 H   0  0  0  0  0  0  0  0  0  0  0  0
    6.7587   -3.8847   -0.1802 H   0  0  0  0  0  0  0  0  0  0  0  0
    6.8916   -3.2024   -1.7934 H   0  0  0  0  0  0  0  0  0  0  0  0
    4.6520   -1.5400    1.7527 H   0  0  0  0  0  0  0  0  0  0  0  0
    3.2109   -2.4005    3.5700 H   0  0  0  0  0  0  0  0  0  0  0  0
    0.4305   -6.0739    4.0988 H   0  0  0  0  0  0  0  0  0  0  0  0
    0.5744   -7.3406    1.8974 H   0  0  0  0  0  0  0  0  0  0  0  0
    3.5166   -4.9292   -0.6796 H   0  0  0  0  0  0  0  0  0  0  0  0
  1  2  1  0
  1 19  1  0
  1 20  1  0
  1 21  1  0
  2 18  1  0
  2  3  2  0
  3  4  1  0
  4  5  1  0
  5  6  1  0
  5 18  2  0
  6  7  1  0
  6  8  1  0
  6 22  1  1
  7 23  1  0
  7 24  1  0
  7 25  1  0
  8 17  1  0
  8  9  2  0
  9 10  1  0
  9 26  1  0
 10 11  2  0
 10 27  1  0
 11 16  1  0
 11 12  1  0
 12 13  2  0
 13 14  1  0
 13 28  1  0
 14 15  2  0
 14 29  1  0
 15 16  1  0
 16 17  2  0
 17 30  1  0
M  END
>  <i_m_ct_stereo_status>  (253) 
1

>  <s_m_source_file>  (253) 
/var/tmp/pbs.5076255.sched01/tmpm261n1hm/82shs6bvht.sdf

>  <i_m_source_file_index>  (253) 
26

>  <i_lp_mmshare_version>  (253) 
48012

>  <i_f3d_flags>  (253) 
0

>  <s_epik_input>  (253) 
W0NIM11jMW5zYyhuMSlbQ0BIXShbQ0gzXSljKFtjSF1bY0hdMilbY0hdYyhjMjMpbltjSF1bY0hdbjM=

>  <s_epik_cmdline>  (253) 
J2VwaWtfcHl0aG9uJywgJy1waHQnLCAnMi4wJywgJy1waCcsICc3LjAnLCAnLXRuJywgJzgnLCAnLW1hJywgJzIwMCcsICctaW1hZScsICc8aW5maWxlLm1hZT4nLCAnLW9tYWUnLCAnPG91dGZpbGUubWFlPic=

>  <r_lp_tautomer_probability>  (253) 
1

>  <r_epik_Ionization_Penalty>  (253) 
1.0346e-06

>  <r_epik_Ionization_Penalty_Charging>  (253) 
0

>  <r_epik_Ionization_Penalty_Neutral>  (253) 
1.0346e-06

>  <r_epik_State_Penalty>  (253) 
-0

>  <r_epik_Charging_Adjusted_Penalty>  (253) 
0

>  <i_epik_Tot_Q>  (253) 
0

>  <i_epik_Tot_abs_Q>  (253) 
0

>  <s_lp_Force_Field>  (253) 
OPLS3e

>  <r_lp_Energy>  (253) 
23.6632

>  <b_lp_Chiralities_Consistent>  (253) 
1

>  <s_lp_Variant>  (253) 
73:0-1

>  <s_i_glide_gridfile>  (253) 
pfpi4k_grid

>  <i_i_glide_lignum>  (253) 
26

>  <i_i_glide_rotatable_bonds>  (253) 
2

>  <r_i_docking_score>  (253) 
-3.16611

>  <r_i_glide_ligand_efficiency>  (253) 
-0.175895

>  <r_i_glide_ligand_efficiency_sa>  (253) 
-0.460975

>  <r_i_glide_ligand_efficiency_ln>  (253) 
-0.813831

>  <r_i_glide_gscore>  (253) 
-3.16611

>  <r_i_glide_lipo>  (253) 
-0.228175

>  <r_i_glide_hbond>  (253) 
-0.0151338

>  <r_i_glide_metal>  (253) 
-0

>  <r_i_glide_rewards>  (253) 
-1.99386

>  <r_i_glide_evdw>  (253) 
-26.0956

>  <r_i_glide_ecoul>  (253) 
-1.07089

>  <r_i_glide_erotb>  (253) 
0.536479

>  <r_i_glide_esite>  (253) 
0

>  <r_i_glide_emodel>  (253) 
-31.9142

>  <r_i_glide_energy>  (253) 
-27.1665

>  <r_i_glide_einternal>  (253) 
0.961945

>  <r_i_glide_intrahb_reward>  (253) 
-0

>  <i_i_glide_confnum>  (253) 
4

>  <i_i_glide_posenum>  (253) 
2

>  <r_i_glide_eff_state_penalty>  (253) 
0

>  <ligand_id>  (253) 
73

>  <original_smiles>  (253) 
Cc1nsc(C(C)c2ccc3nccnc3c2)n1

>  <smiles>  (253) 
[H]c1nc2c([H])c([H])c(C([H])(c3nc(C([H])([H])[H])ns3)C([H])([H])[H])c([H])c2nc1[H]

$$$$
73:0:2
     RDKit          3D

 30 32  0  0  1  0  0  0  0  0999 V2000
    2.4417   -2.8555   -3.4850 C   0  0  0  0  0  0  0  0  0  0  0  0
    3.4124   -2.5418   -2.3730 C   0  0  0  0  0  0  0  0  0  0  0  0
    4.1450   -1.4138   -2.3169 N   0  0  0  0  0  0  0  0  0  0  0  0
    5.1117   -1.4544   -0.9323 S   0  0  0  0  0  0  0  0  0  0  0  0
    4.4861   -3.0123   -0.4730 C   0  0  0  0  0  0  0  0  0  0  0  0
    4.9362   -3.8129    0.7434 C   0  0  2  0  0  0  0  0  0  0  0  0
    6.0110   -4.8458    0.3770 C   0  0  0  0  0  0  0  0  0  0  0  0
    3.7808   -4.4643    1.5006 C   0  0  0  0  0  0  0  0  0  0  0  0
    3.6112   -4.2064    2.8746 C   0  0  0  0  0  0  0  0  0  0  0  0
    2.5576   -4.8135    3.5831 C   0  0  0  0  0  0  0  0  0  0  0  0
    1.6481   -5.6784    2.9414 C   0  0  0  0  0  0  0  0  0  0  0  0
    0.6265   -6.2346    3.6369 N   0  0  0  0  0  0  0  0  0  0  0  0
   -0.2063   -7.0656    2.9749 C   0  0  0  0  0  0  0  0  0  0  0  0
   -0.0543   -7.3093    1.5969 C   0  0  0  0  0  0  0  0  0  0  0  0
    0.9313   -6.7257    0.8830 N   0  0  0  0  0  0  0  0  0  0  0  0
    1.8129   -5.9397    1.5486 C   0  0  0  0  0  0  0  0  0  0  0  0
    2.8848   -5.3488    0.8592 C   0  0  0  0  0  0  0  0  0  0  0  0
    3.6011   -3.4205   -1.3777 N   0  0  0  0  0  0  0  0  0  0  0  0
    2.5464   -2.1684   -4.3184 H   0  0  0  0  0  0  0  0  0  0  0  0
    1.4226   -2.7789   -3.1192 H   0  0  0  0  0  0  0  0  0  0  0  0
    2.5968   -3.8748   -3.8408 H   0  0  0  0  0  0  0  0  0  0  0  0
    5.4013   -3.0887    1.4156 H   0  0  0  0  0  0  0  0  0  0  0  0
    5.6276   -5.5801   -0.3300 H   0  0  0  0  0  0  0  0  0  0  0  0
    6.3466   -5.3848    1.2615 H   0  0  0  0  0  0  0  0  0  0  0  0
    6.8799   -4.3667   -0.0724 H   0  0  0  0  0  0  0  0  0  0  0  0
    4.2952   -3.5500    3.3961 H   0  0  0  0  0  0  0  0  0  0  0  0
    2.4378   -4.6095    4.6359 H   0  0  0  0  0  0  0  0  0  0  0  0
   -1.0076   -7.5200    3.5406 H   0  0  0  0  0  0  0  0  0  0  0  0
   -0.7294   -7.9632    1.0628 H   0  0  0  0  0  0  0  0  0  0  0  0
    2.9967   -5.5709   -0.1917 H   0  0  0  0  0  0  0  0  0  0  0  0
  1  2  1  0
  1 19  1  0
  1 20  1  0
  1 21  1  0
  2 18  1  0
  2  3  2  0
  3  4  1  0
  4  5  1  0
  5  6  1  0
  5 18  2  0
  6  7  1  0
  6  8  1  0
  6 22  1  1
  7 23  1  0
  7 24  1  0
  7 25  1  0
  8 17  1  0
  8  9  2  0
  9 10  1  0
  9 26  1  0
 10 11  2  0
 10 27  1  0
 11 16  1  0
 11 12  1  0
 12 13  2  0
 13 14  1  0
 13 28  1  0
 14 15  2  0
 14 29  1  0
 15 16  1  0
 16 17  2  0
 17 30  1  0
M  END
>  <i_m_ct_stereo_status>  (254) 
1

>  <s_m_source_file>  (254) 
/var/tmp/pbs.5076255.sched01/tmpm261n1hm/82shs6bvht.sdf

>  <i_m_source_file_index>  (254) 
26

>  <i_lp_mmshare_version>  (254) 
48012

>  <i_f3d_flags>  (254) 
0

>  <s_epik_input>  (254) 
W0NIM11jMW5zYyhuMSlbQ0BIXShbQ0gzXSljKFtjSF1bY0hdMilbY0hdYyhjMjMpbltjSF1bY0hdbjM=

>  <s_epik_cmdline>  (254) 
J2VwaWtfcHl0aG9uJywgJy1waHQnLCAnMi4wJywgJy1waCcsICc3LjAnLCAnLXRuJywgJzgnLCAnLW1hJywgJzIwMCcsICctaW1hZScsICc8aW5maWxlLm1hZT4nLCAnLW9tYWUnLCAnPG91dGZpbGUubWFlPic=

>  <r_lp_tautomer_probability>  (254) 
1

>  <r_epik_Ionization_Penalty>  (254) 
1.0346e-06

>  <r_epik_Ionization_Penalty_Charging>  (254) 
0

>  <r_epik_Ionization_Penalty_Neutral>  (254) 
1.0346e-06

>  <r_epik_State_Penalty>  (254) 
-0

>  <r_epik_Charging_Adjusted_Penalty>  (254) 
0

>  <i_epik_Tot_Q>  (254) 
0

>  <i_epik_Tot_abs_Q>  (254) 
0

>  <s_lp_Force_Field>  (254) 
OPLS3e

>  <r_lp_Energy>  (254) 
23.6632

>  <b_lp_Chiralities_Consistent>  (254) 
1

>  <s_lp_Variant>  (254) 
73:0-1

>  <s_i_glide_gridfile>  (254) 
pfpi4k_grid

>  <i_i_glide_lignum>  (254) 
26

>  <i_i_glide_rotatable_bonds>  (254) 
2

>  <r_i_docking_score>  (254) 
-3.05661

>  <r_i_glide_ligand_efficiency>  (254) 
-0.169812

>  <r_i_glide_ligand_efficiency_sa>  (254) 
-0.445032

>  <r_i_glide_ligand_efficiency_ln>  (254) 
-0.785686

>  <r_i_glide_gscore>  (254) 
-3.05661

>  <r_i_glide_lipo>  (254) 
-0.399786

>  <r_i_glide_hbond>  (254) 
-0.048004

>  <r_i_glide_metal>  (254) 
-0

>  <r_i_glide_rewards>  (254) 
-1.66141

>  <r_i_glide_evdw>  (254) 
-25.7134

>  <r_i_glide_ecoul>  (254) 
-1.1426

>  <r_i_glide_erotb>  (254) 
0.536479

>  <r_i_glide_esite>  (254) 
-0.0268329

>  <r_i_glide_emodel>  (254) 
-31.856

>  <r_i_glide_energy>  (254) 
-26.856

>  <r_i_glide_einternal>  (254) 
0.0856549

>  <r_i_glide_intrahb_reward>  (254) 
-0

>  <i_i_glide_confnum>  (254) 
4

>  <i_i_glide_posenum>  (254) 
26

>  <r_i_glide_eff_state_penalty>  (254) 
0

>  <ligand_id>  (254) 
73

>  <original_smiles>  (254) 
Cc1nsc(C(C)c2ccc3nccnc3c2)n1

>  <smiles>  (254) 
[H]c1nc2c([H])c([H])c(C([H])(c3nc(C([H])([H])[H])ns3)C([H])([H])[H])c([H])c2nc1[H]

$$$$
74:0:0
     RDKit          3D

 37 43  0  0  1  0  0  0  0  0999 V2000
    6.9176   -1.8117   -0.3231 O   0  0  0  0  0  0  0  0  0  0  0  0
    5.5271   -1.5926   -0.1682 C   0  0  2  0  0  0  0  0  0  0  0  0
    5.1348   -1.8588    1.2882 C   0  0  0  0  0  0  0  0  0  0  0  0
    4.8955   -3.3109    1.3876 N   0  0  2  0  0  0  0  0  0  0  0  0
    5.9944   -4.0881    1.9788 C   0  0  0  0  0  0  0  0  0  0  0  0
    6.0591   -5.3929    1.1906 C   0  0  0  0  0  0  0  0  0  0  0  0
    5.6892   -4.9275   -0.1996 C   0  0  0  0  0  0  0  0  0  0  0  0
    4.6546   -3.8417    0.0360 C   0  0  2  0  0  0  0  0  0  0  0  0
    4.6980   -2.6409   -0.9368 C   0  0  2  0  0  0  0  0  0  0  0  0
    5.1424   -2.9494   -2.4993 C   0  0  1  0  0  0  0  0  0  0  0  0
    4.1970   -2.4662   -3.9357 C   0  0  2  0  0  0  0  0  0  0  0  0
    4.2641   -1.5887   -3.0546 C   0  0  1  0  0  0  0  0  0  0  0  0
    3.0246   -1.2316   -2.4357 C   0  0  1  0  0  0  0  0  0  0  0  0
    2.6458   -2.3182   -3.4370 C   0  0  2  0  0  0  0  0  0  0  0  0
    2.6445   -3.1571   -2.2042 C   0  0  1  0  0  0  0  0  0  0  0  0
    3.9428   -3.3598   -2.7991 C   0  0  2  0  0  0  0  0  0  0  0  0
    3.1906   -2.1685   -1.2040 C   0  0  1  0  0  0  0  0  0  0  0  0
    7.1213   -2.7055   -0.0852 H   0  0  0  0  0  0  0  0  0  0  0  0
    5.2811   -0.5680   -0.4626 H   0  0  0  0  0  0  0  0  0  0  0  0
    5.8371   -1.4767    2.0327 H   0  0  0  0  0  0  0  0  0  0  0  0
    4.1688   -1.3883    1.4835 H   0  0  0  0  0  0  0  0  0  0  0  0
    6.9267   -3.5412    1.8305 H   0  0  0  0  0  0  0  0  0  0  0  0
    5.8347   -4.2439    3.0470 H   0  0  0  0  0  0  0  0  0  0  0  0
    7.0512   -5.8472    1.2160 H   0  0  0  0  0  0  0  0  0  0  0  0
    5.3287   -6.1161    1.5580 H   0  0  0  0  0  0  0  0  0  0  0  0
    6.5781   -4.4988   -0.6640 H   0  0  0  0  0  0  0  0  0  0  0  0
    5.2988   -5.7263   -0.8364 H   0  0  0  0  0  0  0  0  0  0  0  0
    3.6711   -4.3158    0.0624 H   0  0  0  0  0  0  0  0  0  0  0  0
    5.8961   -3.7191   -2.6685 H   0  0  0  0  0  0  0  0  0  0  0  0
    4.6199   -1.9122   -4.7765 H   0  0  0  0  0  0  0  0  0  0  0  0
    5.1686   -0.9314   -2.9876 H   0  0  0  0  0  0  0  0  0  0  0  0
    2.5553   -0.2506   -2.5002 H   0  0  0  0  0  0  0  0  0  0  0  0
    1.7696   -2.1876   -4.0690 H   0  0  0  0  0  0  0  0  0  0  0  0
    2.0368   -4.0386   -2.0096 H   0  0  0  0  0  0  0  0  0  0  0  0
    4.1145   -4.3851   -3.2733 H   0  0  0  0  0  0  0  0  0  0  0  0
    2.6048   -1.9301   -0.3277 H   0  0  0  0  0  0  0  0  0  0  0  0
    4.0692   -3.4738    1.9320 H   0  0  0  0  0  0  0  0  0  0  0  0
  1  2  1  0
  1 18  1  0
  9  2  1  1
  2  3  1  0
  2 19  1  6
  3  4  1  0
  3 20  1  0
  3 21  1  0
  4  8  1  0
  4  5  1  0
  4 37  1  1
  5  6  1  0
  5 22  1  0
  5 23  1  0
  6  7  1  0
  6 24  1  0
  6 25  1  0
  7  8  1  0
  7 26  1  0
  7 27  1  0
  8  9  1  0
  8 28  1  1
  9 17  1  0
  9 10  1  0
 10 16  1  0
 10 11  1  0
 10 29  1  6
 11 14  1  0
 11 12  1  0
 11 30  1  6
 12 16  1  0
 12 13  1  0
 12 31  1  1
 13 17  1  0
 13 14  1  0
 13 32  1  1
 14 15  1  0
 14 33  1  6
 15 16  1  0
 15 17  1  0
 15 34  1  1
 16 35  1  6
 17 36  1  1
M  CHG  1   4   1
M  END
>  <i_m_ct_stereo_status>  (255) 
1

>  <s_m_source_file>  (255) 
/var/tmp/pbs.5076255.sched01/tmpm261n1hm/82shs6bvht.sdf

>  <i_m_source_file_index>  (255) 
27

>  <i_lp_mmshare_version>  (255) 
48012

>  <i_f3d_flags>  (255) 
0

>  <s_epik_input>  (255) 
W09IXVtDQEBIXTFbQ0gyXU4oW0NIMl1bQ0gyXVtDSDJdMilbQ0BIXTJbQ0BAXTEzW0NAQEhdNFtDQEBIXTVbQ0BIXTZbQ0BIXTdbQ0BASF01W0NAQEhdKFtDQEhdNDYpW0NAQEhdMzc=

>  <s_epik_cmdline>  (255) 
J2VwaWtfcHl0aG9uJywgJy1waHQnLCAnMi4wJywgJy1waCcsICc3LjAnLCAnLXRuJywgJzgnLCAnLW1hJywgJzIwMCcsICctaW1hZScsICc8aW5maWxlLm1hZT4nLCAnLW9tYWUnLCAnPG91dGZpbGUubWFlPic=

>  <r_lp_tautomer_probability>  (255) 
1

>  <r_epik_Ionization_Penalty>  (255) 
4.20559e-05

>  <r_epik_Ionization_Penalty_Charging>  (255) 
4.2054e-05

>  <r_epik_Ionization_Penalty_Neutral>  (255) 
1.83059e-09

>  <r_epik_State_Penalty>  (255) 
-0

>  <r_epik_Charging_Adjusted_Penalty>  (255) 
4.2054e-05

>  <i_epik_Tot_Q>  (255) 
1

>  <i_epik_Tot_abs_Q>  (255) 
1

>  <s_lp_Force_Field>  (255) 
OPLS3e

>  <r_lp_Energy>  (255) 
394.392

>  <b_lp_Chiralities_Consistent>  (255) 
1

>  <s_lp_Variant>  (255) 
74:0-1

>  <s_i_glide_gridfile>  (255) 
pfpi4k_grid

>  <i_i_glide_lignum>  (255) 
27

>  <i_i_glide_rotatable_bonds>  (255) 
1

>  <r_i_docking_score>  (255) 
-4.14885

>  <r_i_glide_ligand_efficiency>  (255) 
-0.24405

>  <r_i_glide_ligand_efficiency_sa>  (255) 
-0.627521

>  <r_i_glide_ligand_efficiency_ln>  (255) 
-1.08234

>  <r_i_glide_gscore>  (255) 
-4.14885

>  <r_i_glide_lipo>  (255) 
-0.731531

>  <r_i_glide_hbond>  (255) 
-0.146654

>  <r_i_glide_metal>  (255) 
-0

>  <r_i_glide_rewards>  (255) 
-1.83869

>  <r_i_glide_evdw>  (255) 
-15.9042

>  <r_i_glide_ecoul>  (255) 
-4.24509

>  <r_i_glide_erotb>  (255) 
0

>  <r_i_glide_esite>  (255) 
0

>  <r_i_glide_emodel>  (255) 
-26.5477

>  <r_i_glide_energy>  (255) 
-20.1493

>  <r_i_glide_einternal>  (255) 
0.00199766

>  <r_i_glide_intrahb_reward>  (255) 
-0

>  <i_i_glide_confnum>  (255) 
4

>  <i_i_glide_posenum>  (255) 
7

>  <r_i_glide_eff_state_penalty>  (255) 
0

>  <ligand_id>  (255) 
74

>  <original_smiles>  (255) 
OC1CN2CCCC2C12C1C3C4C5C3C(C41)C52

>  <smiles>  (255) 
[H]OC1([H])C2(C3([H])C4([H])C5([H])C6([H])C4([H])C([H])(C53[H])C62[H])C2([H])C([H])([H])C([H])([H])C([H])([H])[N+]2([H])C1([H])[H]

$$$$
74:0:1
     RDKit          3D

 37 43  0  0  1  0  0  0  0  0999 V2000
    5.7576   -1.3180    1.7569 O   0  0  0  0  0  0  0  0  0  0  0  0
    4.8581   -0.8609    0.7511 C   0  0  2  0  0  0  0  0  0  0  0  0
    3.6286   -0.2345    1.4227 C   0  0  0  0  0  0  0  0  0  0  0  0
    2.7061   -1.3467    1.6911 N   0  0  2  0  0  0  0  0  0  0  0  0
    2.6818   -1.8155    3.0900 C   0  0  0  0  0  0  0  0  0  0  0  0
    2.5423   -3.3372    3.0130 C   0  0  0  0  0  0  0  0  0  0  0  0
    3.3582   -3.6749    1.7775 C   0  0  0  0  0  0  0  0  0  0  0  0
    3.0741   -2.4894    0.8381 C   0  0  2  0  0  0  0  0  0  0  0  0
    4.2255   -2.0131   -0.0678 C   0  0  2  0  0  0  0  0  0  0  0  0
    5.2595   -3.2016   -0.5741 C   0  0  1  0  0  0  0  0  0  0  0  0
    5.7414   -3.4559   -2.2608 C   0  0  2  0  0  0  0  0  0  0  0  0
    5.7122   -2.2631   -1.9109 C   0  0  1  0  0  0  0  0  0  0  0  0
    4.7408   -1.4451   -2.6012 C   0  0  1  0  0  0  0  0  0  0  0  0
    4.5463   -2.8308   -3.1977 C   0  0  2  0  0  0  0  0  0  0  0  0
    3.4059   -2.8612   -2.2331 C   0  0  1  0  0  0  0  0  0  0  0  0
    4.4669   -3.5353   -1.5392 C   0  0  2  0  0  0  0  0  0  0  0  0
    3.6451   -1.5472   -1.5118 C   0  0  1  0  0  0  0  0  0  0  0  0
    6.1696   -0.5875    2.1931 H   0  0  0  0  0  0  0  0  0  0  0  0
    5.3708   -0.1380    0.1203 H   0  0  0  0  0  0  0  0  0  0  0  0
    3.8286    0.3925    2.3008 H   0  0  0  0  0  0  0  0  0  0  0  0
    3.1088    0.3835    0.6931 H   0  0  0  0  0  0  0  0  0  0  0  0
    3.6465   -1.5655    3.5478 H   0  0  0  0  0  0  0  0  0  0  0  0
    1.8826   -1.3284    3.6461 H   0  0  0  0  0  0  0  0  0  0  0  0
    2.9356   -3.8275    3.9041 H   0  0  0  0  0  0  0  0  0  0  0  0
    1.4954   -3.6221    2.8800 H   0  0  0  0  0  0  0  0  0  0  0  0
    4.4098   -3.7106    2.0656 H   0  0  0  0  0  0  0  0  0  0  0  0
    3.0830   -4.6271    1.3213 H   0  0  0  0  0  0  0  0  0  0  0  0
    2.1924   -2.7188    0.2553 H   0  0  0  0  0  0  0  0  0  0  0  0
    5.4872   -4.0224    0.1132 H   0  0  0  0  0  0  0  0  0  0  0  0
    6.7848   -3.6008   -2.5874 H   0  0  0  0  0  0  0  0  0  0  0  0
    6.6208   -1.8479   -1.3939 H   0  0  0  0  0  0  0  0  0  0  0  0
    5.0127   -0.5718   -3.1768 H   0  0  0  0  0  0  0  0  0  0  0  0
    4.4194   -2.9655   -4.2756 H   0  0  0  0  0  0  0  0  0  0  0  0
    2.4725   -3.4214   -2.3195 H   0  0  0  0  0  0  0  0  0  0  0  0
    4.3236   -4.6628   -1.4146 H   0  0  0  0  0  0  0  0  0  0  0  0
    2.8437   -0.8109   -1.6106 H   0  0  0  0  0  0  0  0  0  0  0  0
    1.7753   -1.0677    1.4002 H   0  0  0  0  0  0  0  0  0  0  0  0
  1  2  1  0
  1 18  1  0
  9  2  1  1
  2  3  1  0
  2 19  1  6
  3  4  1  0
  3 20  1  0
  3 21  1  0
  4  8  1  0
  4  5  1  0
  4 37  1  6
  5  6  1  0
  5 22  1  0
  5 23  1  0
  6  7  1  0
  6 24  1  0
  6 25  1  0
  7  8  1  0
  7 26  1  0
  7 27  1  0
  8  9  1  0
  8 28  1  6
  9 17  1  0
  9 10  1  0
 10 16  1  0
 10 11  1  0
 10 29  1  1
 11 14  1  0
 11 12  1  0
 11 30  1  1
 12 16  1  0
 12 13  1  0
 12 31  1  1
 13 17  1  0
 13 14  1  0
 13 32  1  6
 14 15  1  0
 14 33  1  6
 15 16  1  0
 15 17  1  0
 15 34  1  6
 16 35  1  6
 17 36  1  1
M  CHG  1   4   1
M  END
>  <i_m_ct_stereo_status>  (256) 
1

>  <s_m_source_file>  (256) 
/var/tmp/pbs.5076255.sched01/tmpm261n1hm/82shs6bvht.sdf

>  <i_m_source_file_index>  (256) 
27

>  <i_lp_mmshare_version>  (256) 
48012

>  <i_f3d_flags>  (256) 
0

>  <s_epik_input>  (256) 
W09IXVtDQEBIXTFbQ0gyXU4oW0NIMl1bQ0gyXVtDSDJdMilbQ0BIXTJbQ0BAXTEzW0NAQEhdNFtDQEBIXTVbQ0BIXTZbQ0BIXTdbQ0BASF01W0NAQEhdKFtDQEhdNDYpW0NAQEhdMzc=

>  <s_epik_cmdline>  (256) 
J2VwaWtfcHl0aG9uJywgJy1waHQnLCAnMi4wJywgJy1waCcsICc3LjAnLCAnLXRuJywgJzgnLCAnLW1hJywgJzIwMCcsICctaW1hZScsICc8aW5maWxlLm1hZT4nLCAnLW9tYWUnLCAnPG91dGZpbGUubWFlPic=

>  <r_lp_tautomer_probability>  (256) 
1

>  <r_epik_Ionization_Penalty>  (256) 
4.20559e-05

>  <r_epik_Ionization_Penalty_Charging>  (256) 
4.2054e-05

>  <r_epik_Ionization_Penalty_Neutral>  (256) 
1.83059e-09

>  <r_epik_State_Penalty>  (256) 
-0

>  <r_epik_Charging_Adjusted_Penalty>  (256) 
4.2054e-05

>  <i_epik_Tot_Q>  (256) 
1

>  <i_epik_Tot_abs_Q>  (256) 
1

>  <s_lp_Force_Field>  (256) 
OPLS3e

>  <r_lp_Energy>  (256) 
394.392

>  <b_lp_Chiralities_Consistent>  (256) 
1

>  <s_lp_Variant>  (256) 
74:0-1

>  <s_i_glide_gridfile>  (256) 
pfpi4k_grid

>  <i_i_glide_lignum>  (256) 
27

>  <i_i_glide_rotatable_bonds>  (256) 
1

>  <r_i_docking_score>  (256) 
-4.05017

>  <r_i_glide_ligand_efficiency>  (256) 
-0.238245

>  <r_i_glide_ligand_efficiency_sa>  (256) 
-0.612596

>  <r_i_glide_ligand_efficiency_ln>  (256) 
-1.0566

>  <r_i_glide_gscore>  (256) 
-4.05017

>  <r_i_glide_lipo>  (256) 
-0.497252

>  <r_i_glide_hbond>  (256) 
-0.00345804

>  <r_i_glide_metal>  (256) 
-0

>  <r_i_glide_rewards>  (256) 
-1.83869

>  <r_i_glide_evdw>  (256) 
-21.1998

>  <r_i_glide_ecoul>  (256) 
-4.02849

>  <r_i_glide_erotb>  (256) 
0

>  <r_i_glide_esite>  (256) 
-0.0465075

>  <r_i_glide_emodel>  (256) 
-31.5115

>  <r_i_glide_energy>  (256) 
-25.2283

>  <r_i_glide_einternal>  (256) 
0.327492

>  <r_i_glide_intrahb_reward>  (256) 
-0

>  <i_i_glide_confnum>  (256) 
4

>  <i_i_glide_posenum>  (256) 
40

>  <r_i_glide_eff_state_penalty>  (256) 
0

>  <ligand_id>  (256) 
74

>  <original_smiles>  (256) 
OC1CN2CCCC2C12C1C3C4C5C3C(C41)C52

>  <smiles>  (256) 
[H]OC1([H])C2(C3([H])C4([H])C5([H])C6([H])C4([H])C([H])(C53[H])C62[H])C2([H])C([H])([H])C([H])([H])C([H])([H])[N+]2([H])C1([H])[H]

$$$$
74:0:2
     RDKit          3D

 37 43  0  0  1  0  0  0  0  0999 V2000
    5.6938   -1.2994    1.7003 O   0  0  0  0  0  0  0  0  0  0  0  0
    4.8042   -0.8452    0.6979 C   0  0  2  0  0  0  0  0  0  0  0  0
    3.5845   -0.2172    1.3764 C   0  0  0  0  0  0  0  0  0  0  0  0
    2.6449   -1.3252    1.6482 N   0  0  2  0  0  0  0  0  0  0  0  0
    2.6436   -1.8046    3.0520 C   0  0  0  0  0  0  0  0  0  0  0  0
    2.5058   -3.3265    2.9668 C   0  0  0  0  0  0  0  0  0  0  0  0
    3.3115   -3.6618    1.7235 C   0  0  0  0  0  0  0  0  0  0  0  0
    3.0216   -2.4789    0.7898 C   0  0  2  0  0  0  0  0  0  0  0  0
    4.1684   -1.9922   -0.1178 C   0  0  2  0  0  0  0  0  0  0  0  0
    5.2156   -3.1945   -0.6229 C   0  0  1  0  0  0  0  0  0  0  0  0
    5.6735   -3.4438   -2.3213 C   0  0  2  0  0  0  0  0  0  0  0  0
    5.6495   -2.2599   -1.9744 C   0  0  1  0  0  0  0  0  0  0  0  0
    4.6717   -1.4194   -2.6551 C   0  0  1  0  0  0  0  0  0  0  0  0
    4.4821   -2.8153   -3.2533 C   0  0  2  0  0  0  0  0  0  0  0  0
    3.3373   -2.8400   -2.2836 C   0  0  1  0  0  0  0  0  0  0  0  0
    4.4053   -3.5112   -1.5889 C   0  0  2  0  0  0  0  0  0  0  0  0
    3.5881   -1.5354   -1.5521 C   0  0  1  0  0  0  0  0  0  0  0  0
    5.2642   -1.9577    2.2352 H   0  0  0  0  0  0  0  0  0  0  0  0
    5.3325   -0.1234    0.0702 H   0  0  0  0  0  0  0  0  0  0  0  0
    3.8007    0.4041    2.2482 H   0  0  0  0  0  0  0  0  0  0  0  0
    3.0710    0.4065    0.6503 H   0  0  0  0  0  0  0  0  0  0  0  0
    3.6000   -1.5560    3.5133 H   0  0  0  0  0  0  0  0  0  0  0  0
    1.8444   -1.3264    3.6136 H   0  0  0  0  0  0  0  0  0  0  0  0
    2.8987   -3.8264    3.8540 H   0  0  0  0  0  0  0  0  0  0  0  0
    1.4593   -3.6121    2.8362 H   0  0  0  0  0  0  0  0  0  0  0  0
    4.3671   -3.7143    1.9997 H   0  0  0  0  0  0  0  0  0  0  0  0
    3.0302   -4.6152    1.2665 H   0  0  0  0  0  0  0  0  0  0  0  0
    2.1395   -2.7088    0.2010 H   0  0  0  0  0  0  0  0  0  0  0  0
    5.4362   -4.0064    0.0496 H   0  0  0  0  0  0  0  0  0  0  0  0
    6.7079   -3.6063   -2.6594 H   0  0  0  0  0  0  0  0  0  0  0  0
    6.5548   -1.8185   -1.4646 H   0  0  0  0  0  0  0  0  0  0  0  0
    4.9443   -0.5432   -3.2252 H   0  0  0  0  0  0  0  0  0  0  0  0
    4.3401   -2.9511   -4.3260 H   0  0  0  0  0  0  0  0  0  0  0  0
    2.4046   -3.3938   -2.3576 H   0  0  0  0  0  0  0  0  0  0  0  0
    4.2539   -4.6453   -1.4698 H   0  0  0  0  0  0  0  0  0  0  0  0
    2.7857   -0.7909   -1.6349 H   0  0  0  0  0  0  0  0  0  0  0  0
    1.7352   -1.0539    1.3620 H   0  0  0  0  0  0  0  0  0  0  0  0
  1  2  1  0
  1 18  1  0
  9  2  1  1
  2  3  1  0
  2 19  1  6
  3  4  1  0
  3 20  1  0
  3 21  1  0
  4  8  1  0
  4  5  1  0
  4 37  1  6
  5  6  1  0
  5 22  1  0
  5 23  1  0
  6  7  1  0
  6 24  1  0
  6 25  1  0
  7  8  1  0
  7 26  1  0
  7 27  1  0
  8  9  1  0
  8 28  1  6
  9 17  1  0
  9 10  1  0
 10 16  1  0
 10 11  1  0
 10 29  1  1
 11 14  1  0
 11 12  1  0
 11 30  1  1
 12 16  1  0
 12 13  1  0
 12 31  1  1
 13 17  1  0
 13 14  1  0
 13 32  1  6
 14 15  1  0
 14 33  1  6
 15 16  1  0
 15 17  1  0
 15 34  1  6
 16 35  1  6
 17 36  1  1
M  CHG  1   4   1
M  END
>  <i_m_ct_stereo_status>  (257) 
1

>  <s_m_source_file>  (257) 
/var/tmp/pbs.5076255.sched01/tmpm261n1hm/82shs6bvht.sdf

>  <i_m_source_file_index>  (257) 
27

>  <i_lp_mmshare_version>  (257) 
48012

>  <i_f3d_flags>  (257) 
0

>  <s_epik_input>  (257) 
W09IXVtDQEBIXTFbQ0gyXU4oW0NIMl1bQ0gyXVtDSDJdMilbQ0BIXTJbQ0BAXTEzW0NAQEhdNFtDQEBIXTVbQ0BIXTZbQ0BIXTdbQ0BASF01W0NAQEhdKFtDQEhdNDYpW0NAQEhdMzc=

>  <s_epik_cmdline>  (257) 
J2VwaWtfcHl0aG9uJywgJy1waHQnLCAnMi4wJywgJy1waCcsICc3LjAnLCAnLXRuJywgJzgnLCAnLW1hJywgJzIwMCcsICctaW1hZScsICc8aW5maWxlLm1hZT4nLCAnLW9tYWUnLCAnPG91dGZpbGUubWFlPic=

>  <r_lp_tautomer_probability>  (257) 
1

>  <r_epik_Ionization_Penalty>  (257) 
4.20559e-05

>  <r_epik_Ionization_Penalty_Charging>  (257) 
4.2054e-05

>  <r_epik_Ionization_Penalty_Neutral>  (257) 
1.83059e-09

>  <r_epik_State_Penalty>  (257) 
-0

>  <r_epik_Charging_Adjusted_Penalty>  (257) 
4.2054e-05

>  <i_epik_Tot_Q>  (257) 
1

>  <i_epik_Tot_abs_Q>  (257) 
1

>  <s_lp_Force_Field>  (257) 
OPLS3e

>  <r_lp_Energy>  (257) 
394.392

>  <b_lp_Chiralities_Consistent>  (257) 
1

>  <s_lp_Variant>  (257) 
74:0-1

>  <s_i_glide_gridfile>  (257) 
pfpi4k_grid

>  <i_i_glide_lignum>  (257) 
27

>  <i_i_glide_rotatable_bonds>  (257) 
1

>  <r_i_docking_score>  (257) 
-4.03942

>  <r_i_glide_ligand_efficiency>  (257) 
-0.237613

>  <r_i_glide_ligand_efficiency_sa>  (257) 
-0.610971

>  <r_i_glide_ligand_efficiency_ln>  (257) 
-1.0538

>  <r_i_glide_gscore>  (257) 
-4.03942

>  <r_i_glide_lipo>  (257) 
-0.493894

>  <r_i_glide_hbond>  (257) 
-0.0203258

>  <r_i_glide_metal>  (257) 
-0

>  <r_i_glide_rewards>  (257) 
-1.83869

>  <r_i_glide_evdw>  (257) 
-21.0519

>  <r_i_glide_ecoul>  (257) 
-3.88018

>  <r_i_glide_erotb>  (257) 
0

>  <r_i_glide_esite>  (257) 
-0.051894

>  <r_i_glide_emodel>  (257) 
-31.3788

>  <r_i_glide_energy>  (257) 
-24.932

>  <r_i_glide_einternal>  (257) 
6.52618e-05

>  <r_i_glide_intrahb_reward>  (257) 
-0

>  <i_i_glide_confnum>  (257) 
4

>  <i_i_glide_posenum>  (257) 
1

>  <r_i_glide_eff_state_penalty>  (257) 
0

>  <ligand_id>  (257) 
74

>  <original_smiles>  (257) 
OC1CN2CCCC2C12C1C3C4C5C3C(C41)C52

>  <smiles>  (257) 
[H]OC1([H])C2(C3([H])C4([H])C5([H])C6([H])C4([H])C([H])(C53[H])C62[H])C2([H])C([H])([H])C([H])([H])C([H])([H])[N+]2([H])C1([H])[H]

$$$$
78:0:0
     RDKit          3D

 22 24  0  0  1  0  0  0  0  0999 V2000
   -1.1800    0.1973    4.0797 C   0  0  0  0  0  0  0  0  0  0  0  0
   -0.8548    1.0857    2.8599 C   0  0  2  0  0  0  0  0  0  0  0  0
    0.5803    0.8119    2.3176 C   0  0  0  0  0  0  0  0  0  0  0  0
    1.5667    1.5023    3.1354 N   0  0  0  0  0  0  0  0  0  0  0  0
    2.8347    1.0852    3.3244 N   0  0  0  0  0  0  0  0  0  0  0  0
    3.3285    2.0648    4.0825 C   0  0  0  0  0  0  0  0  0  0  0  0
    2.4666    3.0815    4.4022 N   0  0  0  0  0  0  0  0  0  0  0  0
    1.3789    2.6619    3.7657 C   0  0  0  0  0  0  0  0  0  0  0  0
    0.0638    3.2776    3.7024 C   0  0  0  0  0  0  0  0  0  0  0  0
   -0.4486    4.5232    3.9743 C   0  0  0  0  0  0  0  0  0  0  0  0
    0.3721    5.8805    4.5844 Cl  0  0  0  0  0  0  0  0  0  0  0  0
   -1.8154    4.5255    3.6809 N   0  0  0  0  0  0  0  0  0  0  0  0
   -2.0618    3.2898    3.2432 C   0  0  0  0  0  0  0  0  0  0  0  0
   -0.9828    2.4944    3.2304 N   0  0  0  0  0  0  0  0  0  0  0  0
   -1.1192   -0.8602    3.8186 H   0  0  0  0  0  0  0  0  0  0  0  0
   -2.1897    0.3874    4.4452 H   0  0  0  0  0  0  0  0  0  0  0  0
   -0.4893    0.3716    4.9058 H   0  0  0  0  0  0  0  0  0  0  0  0
   -1.5758    0.8797    2.0675 H   0  0  0  0  0  0  0  0  0  0  0  0
    0.8055   -0.2550    2.2647 H   0  0  0  0  0  0  0  0  0  0  0  0
    0.6642    1.2098    1.3043 H   0  0  0  0  0  0  0  0  0  0  0  0
    4.3636    2.0624    4.3909 H   0  0  0  0  0  0  0  0  0  0  0  0
   -3.0389    2.9585    2.9153 H   0  0  0  0  0  0  0  0  0  0  0  0
  1  2  1  0
  1 15  1  0
  1 16  1  0
  1 17  1  0
  2 14  1  0
  2  3  1  0
  2 18  1  6
  3  4  1  0
  3 19  1  0
  3 20  1  0
  4  8  1  0
  4  5  1  0
  5  6  2  0
  6  7  1  0
  6 21  1  0
  7  8  2  0
  8  9  1  0
  9 14  1  0
  9 10  2  0
 10 11  1  0
 10 12  1  0
 12 13  2  0
 13 14  1  0
 13 22  1  0
M  END
>  <i_m_ct_stereo_status>  (258) 
1

>  <s_m_source_file>  (258) 
/var/tmp/pbs.5076255.sched01/tmpm261n1hm/82shs6bvht.sdf

>  <i_m_source_file_index>  (258) 
31

>  <i_lp_mmshare_version>  (258) 
48012

>  <i_f3d_flags>  (258) 
0

>  <s_epik_input>  (258) 
Q2xjMW5bY0hdbihbQ0BIXShbQ0gzXSlbQ0gyXTIpYzFjKG4yMyluW2NIXW4z

>  <s_epik_cmdline>  (258) 
J2VwaWtfcHl0aG9uJywgJy1waHQnLCAnMi4wJywgJy1waCcsICc3LjAnLCAnLXRuJywgJzgnLCAnLW1hJywgJzIwMCcsICctaW1hZScsICc8aW5maWxlLm1hZT4nLCAnLW9tYWUnLCAnPG91dGZpbGUubWFlPic=

>  <r_lp_tautomer_probability>  (258) 
1

>  <r_epik_Ionization_Penalty>  (258) 
5.28067e-05

>  <r_epik_Ionization_Penalty_Charging>  (258) 
5.069e-05

>  <r_epik_Ionization_Penalty_Neutral>  (258) 
2.11669e-06

>  <r_epik_State_Penalty>  (258) 
-0

>  <r_epik_Charging_Adjusted_Penalty>  (258) 
5.069e-05

>  <i_epik_Tot_Q>  (258) 
0

>  <i_epik_Tot_abs_Q>  (258) 
0

>  <s_lp_Force_Field>  (258) 
OPLS3e

>  <r_lp_Energy>  (258) 
12.4824

>  <b_lp_Chiralities_Consistent>  (258) 
1

>  <s_lp_Variant>  (258) 
78:0-1

>  <s_i_glide_gridfile>  (258) 
pfpi4k_grid

>  <i_i_glide_lignum>  (258) 
31

>  <i_i_glide_rotatable_bonds>  (258) 
0

>  <r_i_docking_score>  (258) 
-3.91277

>  <r_i_glide_ligand_efficiency>  (258) 
-0.279483

>  <r_i_glide_ligand_efficiency_sa>  (258) 
-0.673595

>  <r_i_glide_ligand_efficiency_ln>  (258) 
-1.07521

>  <r_i_glide_gscore>  (258) 
-3.91277

>  <r_i_glide_lipo>  (258) 
0

>  <r_i_glide_hbond>  (258) 
-0.16

>  <r_i_glide_metal>  (258) 
-0

>  <r_i_glide_rewards>  (258) 
-1.97976

>  <r_i_glide_evdw>  (258) 
-17.2532

>  <r_i_glide_ecoul>  (258) 
-4.87237

>  <r_i_glide_erotb>  (258) 
0

>  <r_i_glide_esite>  (258) 
-0.179492

>  <r_i_glide_emodel>  (258) 
-27.8068

>  <r_i_glide_energy>  (258) 
-22.1256

>  <r_i_glide_einternal>  (258) 
0

>  <r_i_glide_intrahb_reward>  (258) 
-0

>  <i_i_glide_confnum>  (258) 
1

>  <i_i_glide_posenum>  (258) 
1

>  <r_i_glide_eff_state_penalty>  (258) 
0

>  <ligand_id>  (258) 
78

>  <original_smiles>  (258) 
CC1Cn2ncnc2-c2c(Cl)ncn21

>  <smiles>  (258) 
[H]c1nc2n(n1)C([H])([H])C([H])(C([H])([H])[H])n1c([H])nc(Cl)c1-2

$$$$
78:0:1
     RDKit          3D

 22 24  0  0  1  0  0  0  0  0999 V2000
    5.6541   -1.3381    0.3503 C   0  0  0  0  0  0  0  0  0  0  0  0
    5.9450   -2.7124   -0.2769 C   0  0  2  0  0  0  0  0  0  0  0  0
    5.7377   -2.6970   -1.8203 C   0  0  0  0  0  0  0  0  0  0  0  0
    4.3258   -2.8149   -2.1486 N   0  0  0  0  0  0  0  0  0  0  0  0
    3.7606   -2.3354   -3.2741 N   0  0  0  0  0  0  0  0  0  0  0  0
    2.4907   -2.7295   -3.1268 C   0  0  0  0  0  0  0  0  0  0  0  0
    2.2122   -3.4432   -1.9909 N   0  0  0  0  0  0  0  0  0  0  0  0
    3.4141   -3.4548   -1.4243 C   0  0  0  0  0  0  0  0  0  0  0  0
    3.8260   -4.0773   -0.1777 C   0  0  0  0  0  0  0  0  0  0  0  0
    3.3067   -5.0289    0.6646 C   0  0  0  0  0  0  0  0  0  0  0  0
    1.8168   -5.8584    0.5303 Cl  0  0  0  0  0  0  0  0  0  0  0  0
    4.2207   -5.2517    1.7020 N   0  0  0  0  0  0  0  0  0  0  0  0
    5.2379   -4.4356    1.4413 C   0  0  0  0  0  0  0  0  0  0  0  0
    5.0739   -3.7140    0.3269 N   0  0  0  0  0  0  0  0  0  0  0  0
    6.3093   -0.5675   -0.0523 H   0  0  0  0  0  0  0  0  0  0  0  0
    5.8044   -1.3550    1.4310 H   0  0  0  0  0  0  0  0  0  0  0  0
    4.6260   -1.0170    0.1663 H   0  0  0  0  0  0  0  0  0  0  0  0
    6.9782   -2.9871   -0.0582 H   0  0  0  0  0  0  0  0  0  0  0  0
    6.1581   -1.8067   -2.2815 H   0  0  0  0  0  0  0  0  0  0  0  0
    6.2341   -3.5580   -2.2615 H   0  0  0  0  0  0  0  0  0  0  0  0
    1.7537   -2.5085   -3.8885 H   0  0  0  0  0  0  0  0  0  0  0  0
    6.1169   -4.3802    2.0715 H   0  0  0  0  0  0  0  0  0  0  0  0
  1  2  1  0
  1 15  1  0
  1 16  1  0
  1 17  1  0
  2 14  1  0
  2  3  1  0
  2 18  1  6
  3  4  1  0
  3 19  1  0
  3 20  1  0
  4  8  1  0
  4  5  1  0
  5  6  2  0
  6  7  1  0
  6 21  1  0
  7  8  2  0
  8  9  1  0
  9 14  1  0
  9 10  2  0
 10 11  1  0
 10 12  1  0
 12 13  2  0
 13 14  1  0
 13 22  1  0
M  END
>  <i_m_ct_stereo_status>  (259) 
1

>  <s_m_source_file>  (259) 
/var/tmp/pbs.5076255.sched01/tmpm261n1hm/82shs6bvht.sdf

>  <i_m_source_file_index>  (259) 
31

>  <i_lp_mmshare_version>  (259) 
48012

>  <i_f3d_flags>  (259) 
0

>  <s_epik_input>  (259) 
Q2xjMW5bY0hdbihbQ0BIXShbQ0gzXSlbQ0gyXTIpYzFjKG4yMyluW2NIXW4z

>  <s_epik_cmdline>  (259) 
J2VwaWtfcHl0aG9uJywgJy1waHQnLCAnMi4wJywgJy1waCcsICc3LjAnLCAnLXRuJywgJzgnLCAnLW1hJywgJzIwMCcsICctaW1hZScsICc8aW5maWxlLm1hZT4nLCAnLW9tYWUnLCAnPG91dGZpbGUubWFlPic=

>  <r_lp_tautomer_probability>  (259) 
1

>  <r_epik_Ionization_Penalty>  (259) 
5.28067e-05

>  <r_epik_Ionization_Penalty_Charging>  (259) 
5.069e-05

>  <r_epik_Ionization_Penalty_Neutral>  (259) 
2.11669e-06

>  <r_epik_State_Penalty>  (259) 
-0

>  <r_epik_Charging_Adjusted_Penalty>  (259) 
5.069e-05

>  <i_epik_Tot_Q>  (259) 
0

>  <i_epik_Tot_abs_Q>  (259) 
0

>  <s_lp_Force_Field>  (259) 
OPLS3e

>  <r_lp_Energy>  (259) 
12.4824

>  <b_lp_Chiralities_Consistent>  (259) 
1

>  <s_lp_Variant>  (259) 
78:0-1

>  <s_i_glide_gridfile>  (259) 
pfpi4k_grid

>  <i_i_glide_lignum>  (259) 
31

>  <i_i_glide_rotatable_bonds>  (259) 
0

>  <r_i_docking_score>  (259) 
-3.50768

>  <r_i_glide_ligand_efficiency>  (259) 
-0.250549

>  <r_i_glide_ligand_efficiency_sa>  (259) 
-0.603858

>  <r_i_glide_ligand_efficiency_ln>  (259) 
-0.963898

>  <r_i_glide_gscore>  (259) 
-3.50768

>  <r_i_glide_lipo>  (259) 
-0.088517

>  <r_i_glide_hbond>  (259) 
0

>  <r_i_glide_metal>  (259) 
-0

>  <r_i_glide_rewards>  (259) 
-2.29623

>  <r_i_glide_evdw>  (259) 
-21.5525

>  <r_i_glide_ecoul>  (259) 
-0.290733

>  <r_i_glide_erotb>  (259) 
0

>  <r_i_glide_esite>  (259) 
-0.00170028

>  <r_i_glide_emodel>  (259) 
-26.9318

>  <r_i_glide_energy>  (259) 
-21.8432

>  <r_i_glide_einternal>  (259) 
0

>  <r_i_glide_intrahb_reward>  (259) 
-0

>  <i_i_glide_confnum>  (259) 
1

>  <i_i_glide_posenum>  (259) 
10

>  <r_i_glide_eff_state_penalty>  (259) 
0

>  <ligand_id>  (259) 
78

>  <original_smiles>  (259) 
CC1Cn2ncnc2-c2c(Cl)ncn21

>  <smiles>  (259) 
[H]c1nc2n(n1)C([H])([H])C([H])(C([H])([H])[H])n1c([H])nc(Cl)c1-2

$$$$
78:0:2
     RDKit          3D

 22 24  0  0  1  0  0  0  0  0999 V2000
    3.9376   -0.2723    0.8870 C   0  0  0  0  0  0  0  0  0  0  0  0
    4.8283   -1.4535    0.4679 C   0  0  2  0  0  0  0  0  0  0  0  0
    5.0206   -1.5096   -1.0780 C   0  0  0  0  0  0  0  0  0  0  0  0
    3.8622   -2.1194   -1.7103 N   0  0  0  0  0  0  0  0  0  0  0  0
    3.4720   -1.8865   -2.9821 N   0  0  0  0  0  0  0  0  0  0  0  0
    2.4140   -2.6920   -3.0878 C   0  0  0  0  0  0  0  0  0  0  0  0
    2.1144   -3.4416   -1.9842 N   0  0  0  0  0  0  0  0  0  0  0  0
    3.0757   -3.0462   -1.1625 C   0  0  0  0  0  0  0  0  0  0  0  0
    3.3594   -3.4883    0.1945 C   0  0  0  0  0  0  0  0  0  0  0  0
    3.0024   -4.5590    0.9812 C   0  0  0  0  0  0  0  0  0  0  0  0
    1.9396   -5.8463    0.5972 Cl  0  0  0  0  0  0  0  0  0  0  0  0
    3.6422   -4.4380    2.2159 N   0  0  0  0  0  0  0  0  0  0  0  0
    4.3543   -3.3184    2.1238 C   0  0  0  0  0  0  0  0  0  0  0  0
    4.2391   -2.7056    0.9376 N   0  0  0  0  0  0  0  0  0  0  0  0
    4.3720    0.6733    0.5690 H   0  0  0  0  0  0  0  0  0  0  0  0
    3.8131   -0.2281    1.9693 H   0  0  0  0  0  0  0  0  0  0  0  0
    2.9412   -0.3374    0.4454 H   0  0  0  0  0  0  0  0  0  0  0  0
    5.8038   -1.3390    0.9441 H   0  0  0  0  0  0  0  0  0  0  0  0
    5.2133   -0.5245   -1.5071 H   0  0  0  0  0  0  0  0  0  0  0  0
    5.8724   -2.1477   -1.3116 H   0  0  0  0  0  0  0  0  0  0  0  0
    1.8527   -2.7562   -4.0131 H   0  0  0  0  0  0  0  0  0  0  0  0
    4.9707   -2.9444    2.9311 H   0  0  0  0  0  0  0  0  0  0  0  0
  1  2  1  0
  1 15  1  0
  1 16  1  0
  1 17  1  0
  2 14  1  0
  2  3  1  0
  2 18  1  1
  3  4  1  0
  3 19  1  0
  3 20  1  0
  4  8  1  0
  4  5  1  0
  5  6  2  0
  6  7  1  0
  6 21  1  0
  7  8  2  0
  8  9  1  0
  9 14  1  0
  9 10  2  0
 10 11  1  0
 10 12  1  0
 12 13  2  0
 13 14  1  0
 13 22  1  0
M  END
>  <i_m_ct_stereo_status>  (260) 
1

>  <s_m_source_file>  (260) 
/var/tmp/pbs.5076255.sched01/tmpm261n1hm/82shs6bvht.sdf

>  <i_m_source_file_index>  (260) 
31

>  <i_lp_mmshare_version>  (260) 
48012

>  <i_f3d_flags>  (260) 
0

>  <s_epik_input>  (260) 
Q2xjMW5bY0hdbihbQ0BIXShbQ0gzXSlbQ0gyXTIpYzFjKG4yMyluW2NIXW4z

>  <s_epik_cmdline>  (260) 
J2VwaWtfcHl0aG9uJywgJy1waHQnLCAnMi4wJywgJy1waCcsICc3LjAnLCAnLXRuJywgJzgnLCAnLW1hJywgJzIwMCcsICctaW1hZScsICc8aW5maWxlLm1hZT4nLCAnLW9tYWUnLCAnPG91dGZpbGUubWFlPic=

>  <r_lp_tautomer_probability>  (260) 
1

>  <r_epik_Ionization_Penalty>  (260) 
5.28067e-05

>  <r_epik_Ionization_Penalty_Charging>  (260) 
5.069e-05

>  <r_epik_Ionization_Penalty_Neutral>  (260) 
2.11669e-06

>  <r_epik_State_Penalty>  (260) 
-0

>  <r_epik_Charging_Adjusted_Penalty>  (260) 
5.069e-05

>  <i_epik_Tot_Q>  (260) 
0

>  <i_epik_Tot_abs_Q>  (260) 
0

>  <s_lp_Force_Field>  (260) 
OPLS3e

>  <r_lp_Energy>  (260) 
12.4824

>  <b_lp_Chiralities_Consistent>  (260) 
1

>  <s_lp_Variant>  (260) 
78:0-1

>  <s_i_glide_gridfile>  (260) 
pfpi4k_grid

>  <i_i_glide_lignum>  (260) 
31

>  <i_i_glide_rotatable_bonds>  (260) 
0

>  <r_i_docking_score>  (260) 
-3.29827

>  <r_i_glide_ligand_efficiency>  (260) 
-0.235591

>  <r_i_glide_ligand_efficiency_sa>  (260) 
-0.567808

>  <r_i_glide_ligand_efficiency_ln>  (260) 
-0.906353

>  <r_i_glide_gscore>  (260) 
-3.29827

>  <r_i_glide_lipo>  (260) 
-0.08626

>  <r_i_glide_hbond>  (260) 
0

>  <r_i_glide_metal>  (260) 
-0

>  <r_i_glide_rewards>  (260) 
-2.11735

>  <r_i_glide_evdw>  (260) 
-20.9527

>  <r_i_glide_ecoul>  (260) 
-0.0407906

>  <r_i_glide_erotb>  (260) 
0

>  <r_i_glide_esite>  (260) 
-0.0409102

>  <r_i_glide_emodel>  (260) 
-25.7639

>  <r_i_glide_energy>  (260) 
-20.9935

>  <r_i_glide_einternal>  (260) 
0

>  <r_i_glide_intrahb_reward>  (260) 
-0

>  <i_i_glide_confnum>  (260) 
2

>  <i_i_glide_posenum>  (260) 
3

>  <r_i_glide_eff_state_penalty>  (260) 
0

>  <ligand_id>  (260) 
78

>  <original_smiles>  (260) 
CC1Cn2ncnc2-c2c(Cl)ncn21

>  <smiles>  (260) 
[H]c1nc2n(n1)C([H])([H])C([H])(C([H])([H])[H])n1c([H])nc(Cl)c1-2

$$$$
79:0:0
     RDKit          3D

 58 62  0  0  1  0  0  0  0  0999 V2000
    2.0936   -5.5406    5.2715 C   0  0  0  0  0  0  0  0  0  0  0  0
    1.6496   -4.5757    4.1454 C   0  0  2  0  0  0  0  0  0  0  0  0
    1.7310   -5.3179    2.7734 C   0  0  0  0  0  0  0  0  0  0  0  0
    2.2742   -4.5256    1.5902 C   0  0  0  0  0  0  0  0  0  0  0  0
    2.5460   -3.2133    1.6597 C   0  0  0  0  0  0  0  0  0  0  0  0
    2.3479   -2.3782    2.9135 C   0  0  1  0  0  0  0  0  0  0  0  0
    2.4005   -3.2166    4.2229 C   0  0  1  0  0  0  0  0  0  0  0  0
    1.6333   -2.5020    5.3425 C   0  0  0  0  0  0  0  0  0  0  0  0
    0.2351   -3.0624    5.1830 C   0  0  0  0  0  0  0  0  0  0  0  0
   -0.7807   -2.5338    5.6373 O   0  0  0  0  0  0  0  0  0  0  0  0
    0.3120   -4.2009    4.4843 O   0  0  0  0  0  0  0  0  0  0  0  0
    3.3035   -1.1317    2.7770 C   0  0  0  0  0  0  0  0  0  0  0  0
    2.5028    0.1812    2.6212 C   0  0  0  0  0  0  0  0  0  0  0  0
    4.3367   -0.9582    3.9072 C   0  0  0  0  0  0  0  0  0  0  0  0
    4.0467   -1.4685    1.4868 C   0  0  2  0  0  0  0  0  0  0  0  0
    4.5452   -0.4049    0.5293 C   0  0  1  0  0  0  0  0  0  0  0  0
    5.7605    0.1456    0.9348 O   0  0  0  0  0  0  0  0  0  0  0  0
    4.7181   -1.2387   -0.7228 C   0  0  0  0  0  0  0  0  0  0  0  0
    5.5547   -0.9808   -1.5853 O   0  0  0  0  0  0  0  0  0  0  0  0
    3.8012   -2.4732   -0.7294 C   0  0  1  0  0  0  0  0  0  0  0  0
    2.8564   -2.3647   -1.9657 C   0  0  0  0  0  0  0  0  0  0  0  0
    3.5198   -2.4575   -3.3599 C   0  0  0  0  0  0  0  0  0  0  0  0
    4.3282   -3.7342   -3.4267 C   0  0  1  0  0  0  0  0  0  0  0  0
    5.0077   -3.9042   -4.6073 O   0  0  0  0  0  0  0  0  0  0  0  0
    5.2993   -3.8547   -2.2435 C   0  0  0  0  0  0  0  0  0  0  0  0
    4.6162   -3.7732   -0.8686 C   0  0  1  0  0  0  0  0  0  0  0  0
    5.6250   -3.9181    0.1172 O   0  0  0  0  0  0  0  0  0  0  0  0
    3.0772   -2.2381    0.6397 C   0  0  1  0  0  0  0  0  0  0  0  0
    3.1350   -5.8410    5.1559 H   0  0  0  0  0  0  0  0  0  0  0  0
    1.4856   -6.4467    5.2731 H   0  0  0  0  0  0  0  0  0  0  0  0
    1.9968   -5.0980    6.2632 H   0  0  0  0  0  0  0  0  0  0  0  0
    2.3897   -6.1800    2.8646 H   0  0  0  0  0  0  0  0  0  0  0  0
    0.7524   -5.7278    2.5227 H   0  0  0  0  0  0  0  0  0  0  0  0
    2.3920   -5.0729    0.6664 H   0  0  0  0  0  0  0  0  0  0  0  0
    1.3283   -2.0102    2.7968 H   0  0  0  0  0  0  0  0  0  0  0  0
    3.4372   -3.4033    4.5014 H   0  0  0  0  0  0  0  0  0  0  0  0
    2.0029   -2.7948    6.3239 H   0  0  0  0  0  0  0  0  0  0  0  0
    1.6394   -1.4153    5.2655 H   0  0  0  0  0  0  0  0  0  0  0  0
    3.1691    1.0321    2.4611 H   0  0  0  0  0  0  0  0  0  0  0  0
    1.9157    0.3852    3.5158 H   0  0  0  0  0  0  0  0  0  0  0  0
    1.8157    0.1502    1.7727 H   0  0  0  0  0  0  0  0  0  0  0  0
    5.0052   -0.1236    3.6874 H   0  0  0  0  0  0  0  0  0  0  0  0
    4.9663   -1.8419    4.0240 H   0  0  0  0  0  0  0  0  0  0  0  0
    3.8508   -0.7531    4.8602 H   0  0  0  0  0  0  0  0  0  0  0  0
    4.8856   -2.1194    1.7492 H   0  0  0  0  0  0  0  0  0  0  0  0
    3.8265    0.3932    0.3170 H   0  0  0  0  0  0  0  0  0  0  0  0
    6.3783   -0.5470    1.1575 H   0  0  0  0  0  0  0  0  0  0  0  0
    2.0410   -3.0930   -1.8842 H   0  0  0  0  0  0  0  0  0  0  0  0
    2.4065   -1.3796   -1.9737 H   0  0  0  0  0  0  0  0  0  0  0  0
    2.7551   -2.4450   -4.1420 H   0  0  0  0  0  0  0  0  0  0  0  0
    4.1618   -1.5958   -3.5559 H   0  0  0  0  0  0  0  0  0  0  0  0
    3.6629   -4.5652   -3.5397 H   0  0  0  0  0  0  0  0  0  0  0  0
    5.4414   -4.7368   -4.5623 H   0  0  0  0  0  0  0  0  0  0  0  0
    5.7347   -4.8178   -2.2492 H   0  0  0  0  0  0  0  0  0  0  0  0
    6.1438   -3.1650   -2.3505 H   0  0  0  0  0  0  0  0  0  0  0  0
    3.9535   -4.6351   -0.7709 H   0  0  0  0  0  0  0  0  0  0  0  0
    6.1775   -3.1522    0.0842 H   0  0  0  0  0  0  0  0  0  0  0  0
    2.2210   -1.5885    0.4749 H   0  0  0  0  0  0  0  0  0  0  0  0
  2  1  1  1
  1 29  1  0
  1 30  1  0
  1 31  1  0
  2  7  1  0
  2 11  1  0
  2  3  1  0
  3  4  1  0
  3 32  1  0
  3 33  1  0
  4  5  2  0
  4 34  1  0
  5 28  1  0
  5  6  1  0
  6  7  1  0
  6 12  1  0
  6 35  1  6
  7  8  1  0
  7 36  1  1
  8  9  1  0
  8 37  1  0
  8 38  1  0
  9 10  2  0
  9 11  1  0
 12 13  1  0
 12 14  1  0
 12 15  1  0
 13 39  1  0
 13 40  1  0
 13 41  1  0
 14 42  1  0
 14 43  1  0
 14 44  1  0
 15 28  1  0
 15 16  1  0
 15 45  1  1
 16 17  1  0
 16 18  1  0
 16 46  1  6
 17 47  1  0
 18 19  2  0
 18 20  1  0
 20 26  1  0
 20 21  1  6
 20 28  1  0
 21 22  1  0
 21 48  1  0
 21 49  1  0
 22 23  1  0
 22 50  1  0
 22 51  1  0
 23 24  1  0
 23 25  1  0
 23 52  1  1
 24 53  1  0
 25 26  1  0
 25 54  1  0
 25 55  1  0
 26 27  1  0
 26 56  1  6
 27 57  1  0
 28 58  1  6
M  END
>  <i_m_ct_stereo_status>  (261) 
1

>  <s_m_source_file>  (261) 
/var/tmp/pbs.5076255.sched01/tmpm261n1hm/82shs6bvht.sdf

>  <i_m_source_file_index>  (261) 
32

>  <i_lp_mmshare_version>  (261) 
48012

>  <i_f3d_flags>  (261) 
0

>  <s_epik_input>  (261) 
W0NIMl0xQyg9TylPW0NAQF0oW0NIM10pKFtDSDJdW0NIXT0yKVtDQEhdMVtDQEBIXShDKFtDSDNdKShbQ0gzXSlbQ0BASF0zW0NAQEhdKFtPSF0pQzQ9TylDMltDQEBIXTNbQ0BAXTQ1W0NIMl1bQ0gyXVtDQEBIXShbT0hdKVtDSDJdW0NASF01W09IXQ==

>  <s_epik_cmdline>  (261) 
J2VwaWtfcHl0aG9uJywgJy1waHQnLCAnMi4wJywgJy1waCcsICc3LjAnLCAnLXRuJywgJzgnLCAnLW1hJywgJzIwMCcsICctaW1hZScsICc8aW5maWxlLm1hZT4nLCAnLW9tYWUnLCAnPG91dGZpbGUubWFlPic=

>  <r_lp_tautomer_probability>  (261) 
1

>  <r_epik_Ionization_Penalty>  (261) 
6.87337e-07

>  <r_epik_Ionization_Penalty_Charging>  (261) 
0

>  <r_epik_Ionization_Penalty_Neutral>  (261) 
6.87337e-07

>  <r_epik_State_Penalty>  (261) 
-0

>  <r_epik_Charging_Adjusted_Penalty>  (261) 
0

>  <i_epik_Tot_Q>  (261) 
0

>  <i_epik_Tot_abs_Q>  (261) 
0

>  <s_epik_Chemistry_Notes>  (261) 
This compound has an ester and may undergo hydrolysis at high or low pH.

>  <s_lp_Force_Field>  (261) 
OPLS3e

>  <r_lp_Energy>  (261) 
30.3604

>  <b_lp_Chiralities_Consistent>  (261) 
1

>  <s_lp_Variant>  (261) 
79:0-1

>  <s_i_glide_gridfile>  (261) 
pfpi4k_grid

>  <i_i_glide_lignum>  (261) 
32

>  <i_i_glide_rotatable_bonds>  (261) 
3

>  <r_i_docking_score>  (261) 
-2.63598

>  <r_i_glide_ligand_efficiency>  (261) 
-0.0941421

>  <r_i_glide_ligand_efficiency_sa>  (261) 
-0.285871

>  <r_i_glide_ligand_efficiency_ln>  (261) 
-0.608461

>  <r_i_glide_gscore>  (261) 
-2.63598

>  <r_i_glide_lipo>  (261) 
-0.391497

>  <r_i_glide_hbond>  (261) 
-0.0439271

>  <r_i_glide_metal>  (261) 
-0

>  <r_i_glide_rewards>  (261) 
-0.746795

>  <r_i_glide_evdw>  (261) 
-4.69795

>  <r_i_glide_ecoul>  (261) 
-7.84609

>  <r_i_glide_erotb>  (261) 
0

>  <r_i_glide_esite>  (261) 
-0.0419482

>  <r_i_glide_emodel>  (261) 
-10.745

>  <r_i_glide_energy>  (261) 
-12.544

>  <r_i_glide_einternal>  (261) 
1.77331

>  <r_i_glide_intrahb_reward>  (261) 
-0

>  <i_i_glide_confnum>  (261) 
4

>  <i_i_glide_posenum>  (261) 
12

>  <r_i_glide_eff_state_penalty>  (261) 
0

>  <ligand_id>  (261) 
79

>  <original_smiles>  (261) 
CC12CC=C3C(C1CC(=O)O2)C(C)(C)C1C(O)C(=O)C2(CCC(O)CC2O)C31

>  <smiles>  (261) 
[H]OC1([H])C(=O)C2(C([H])([H])C([H])([H])C([H])(O[H])C([H])([H])C2([H])O[H])C2([H])C3=C([H])C([H])([H])C4(C([H])([H])[H])OC(=O)C([H])([H])C4([H])C3([H])C(C([H])([H])[H])(C([H])([H])[H])C12[H]

$$$$
80:0:0
     RDKit          3D

 40 43  0  0  1  0  0  0  0  0999 V2000
    2.2512    0.1365    1.4700 N   0  0  0  0  0  0  0  0  0  0  0  0
    3.2959   -0.3871    2.1303 C   0  0  0  0  0  0  0  0  0  0  0  0
    3.7908    0.1935    3.0940 O   0  0  0  0  0  0  0  0  0  0  0  0
    3.8735   -1.7399    1.6442 C   0  0  1  0  0  0  0  0  0  0  0  0
    4.4392   -2.5855    2.8221 C   0  0  0  0  0  0  0  0  0  0  0  0
    5.0277   -3.9172    2.2981 C   0  0  1  0  0  0  0  0  0  0  0  0
    3.9344   -4.7297    1.5923 C   0  0  0  0  0  0  0  0  0  0  0  0
    3.3870   -3.9211    0.3952 C   0  0  1  0  0  0  0  0  0  0  0  0
    2.7930   -2.6022    0.9308 C   0  0  0  0  0  0  0  0  0  0  0  0
    4.4908   -3.5949   -0.6607 C   0  0  1  0  0  0  0  0  0  0  0  0
    5.0153   -4.8212   -1.1116 O   0  0  0  0  0  0  0  0  0  0  0  0
    3.9456   -2.8135   -1.8809 C   0  0  0  0  0  0  0  0  0  0  0  0
    2.7030   -3.1533   -2.4497 C   0  0  0  0  0  0  0  0  0  0  0  0
    2.2350   -2.4193   -3.5486 C   0  0  0  0  0  0  0  0  0  0  0  0
    3.0053   -1.3586   -4.0314 C   0  0  0  0  0  0  0  0  0  0  0  0
    4.2172   -1.0433   -3.5342 N   0  0  0  0  0  0  0  0  0  0  0  0
    4.6710   -1.7738   -2.4900 C   0  0  0  0  0  0  0  0  0  0  0  0
    5.6086   -2.8164    0.1073 C   0  0  2  0  0  0  0  0  0  0  0  0
    6.1588   -3.6331    1.2962 C   0  0  0  0  0  0  0  0  0  0  0  0
    5.0515   -1.4657    0.6700 C   0  0  0  0  0  0  0  0  0  0  0  0
    1.8614    1.0166    1.7763 H   0  0  0  0  0  0  0  0  0  0  0  0
    1.8474   -0.3324    0.6664 H   0  0  0  0  0  0  0  0  0  0  0  0
    5.2247   -2.0327    3.3463 H   0  0  0  0  0  0  0  0  0  0  0  0
    3.6473   -2.7864    3.5491 H   0  0  0  0  0  0  0  0  0  0  0  0
    5.4135   -4.4905    3.1402 H   0  0  0  0  0  0  0  0  0  0  0  0
    4.3280   -5.6881    1.2529 H   0  0  0  0  0  0  0  0  0  0  0  0
    3.1257   -4.9590    2.2884 H   0  0  0  0  0  0  0  0  0  0  0  0
    2.5811   -4.5238   -0.0264 H   0  0  0  0  0  0  0  0  0  0  0  0
    1.9458   -2.7979    1.5924 H   0  0  0  0  0  0  0  0  0  0  0  0
    2.3958   -2.0521    0.0847 H   0  0  0  0  0  0  0  0  0  0  0  0
    4.3385   -5.2841   -1.6013 H   0  0  0  0  0  0  0  0  0  0  0  0
    2.0873   -3.9476   -2.0545 H   0  0  0  0  0  0  0  0  0  0  0  0
    1.2699   -2.6570   -3.9831 H   0  0  0  0  0  0  0  0  0  0  0  0
    2.6527   -0.7257   -4.8343 H   0  0  0  0  0  0  0  0  0  0  0  0
    5.6435   -1.4471   -2.1592 H   0  0  0  0  0  0  0  0  0  0  0  0
    6.4698   -2.6393   -0.5389 H   0  0  0  0  0  0  0  0  0  0  0  0
    6.9593   -3.0697    1.7694 H   0  0  0  0  0  0  0  0  0  0  0  0
    6.6135   -4.5627    0.9547 H   0  0  0  0  0  0  0  0  0  0  0  0
    4.6863   -0.7894   -0.1060 H   0  0  0  0  0  0  0  0  0  0  0  0
    5.8553   -0.9115    1.1682 H   0  0  0  0  0  0  0  0  0  0  0  0
  1  2  1  0
  1 21  1  0
  1 22  1  0
  2  3  2  0
  4  2  1  1
  4  9  1  0
  4 20  1  0
  4  5  1  0
  5  6  1  0
  5 23  1  0
  5 24  1  0
  6 19  1  0
  6  7  1  0
  6 25  1  1
  7  8  1  0
  7 26  1  0
  7 27  1  0
  8  9  1  0
  8 10  1  0
  8 28  1  6
  9 29  1  0
  9 30  1  0
 10 11  1  6
 10 12  1  0
 10 18  1  0
 11 31  1  0
 12 17  1  0
 12 13  2  0
 13 14  1  0
 13 32  1  0
 14 15  2  0
 14 33  1  0
 15 16  1  0
 15 34  1  0
 16 17  2  0
 17 35  1  0
 18 19  1  0
 18 20  1  0
 18 36  1  6
 19 37  1  0
 19 38  1  0
 20 39  1  0
 20 40  1  0
M  END
>  <i_m_ct_stereo_status>  (262) 
1

>  <s_m_source_file>  (262) 
/var/tmp/pbs.5076255.sched01/tmpm261n1hm/82shs6bvht.sdf

>  <i_m_source_file_index>  (262) 
33

>  <i_lp_mmshare_version>  (262) 
48012

>  <i_f3d_flags>  (262) 
0

>  <s_epik_input>  (262) 
W05IMl1DKD1PKVtDQEBdMTJbQ0gyXVtDQEhdM1tDSDJdW0NAQEhdKFtDSDJdMSlbQ0BdKFtPSF0pKFtDQEhdKFtDSDJdMylbQ0gyXTIpYzRbY0hdW2NIXVtjSF1uW2NIXTQ=

>  <s_epik_cmdline>  (262) 
J2VwaWtfcHl0aG9uJywgJy1waHQnLCAnMi4wJywgJy1waCcsICc3LjAnLCAnLXRuJywgJzgnLCAnLW1hJywgJzIwMCcsICctaW1hZScsICc8aW5maWxlLm1hZT4nLCAnLW9tYWUnLCAnPG91dGZpbGUubWFlPic=

>  <r_epik_Ionization_Penalty>  (262) 
0.00437721

>  <r_epik_Ionization_Penalty_Charging>  (262) 
0

>  <r_epik_Ionization_Penalty_Neutral>  (262) 
0.00437721

>  <r_epik_State_Penalty>  (262) 
0.00315327

>  <r_epik_Charging_Adjusted_Penalty>  (262) 
0.00315327

>  <i_epik_Tot_Q>  (262) 
0

>  <i_epik_Tot_abs_Q>  (262) 
0

>  <s_lp_Force_Field>  (262) 
OPLS3e

>  <r_lp_Energy>  (262) 
24.5311

>  <b_lp_Chiralities_Consistent>  (262) 
1

>  <s_lp_Variant>  (262) 
80:0-1

>  <s_i_glide_gridfile>  (262) 
pfpi4k_grid

>  <i_i_glide_lignum>  (262) 
33

>  <i_i_glide_rotatable_bonds>  (262) 
3

>  <r_i_docking_score>  (262) 
-4.80356

>  <r_i_glide_ligand_efficiency>  (262) 
-0.240178

>  <r_i_glide_ligand_efficiency_sa>  (262) 
-0.651943

>  <r_i_glide_ligand_efficiency_ln>  (262) 
-1.20217

>  <r_i_glide_gscore>  (262) 
-4.80356

>  <r_i_glide_lipo>  (262) 
-0.611919

>  <r_i_glide_hbond>  (262) 
-0.456

>  <r_i_glide_metal>  (262) 
-0

>  <r_i_glide_rewards>  (262) 
-1.55221

>  <r_i_glide_evdw>  (262) 
-23.1581

>  <r_i_glide_ecoul>  (262) 
-7.98485

>  <r_i_glide_erotb>  (262) 
0.241607

>  <r_i_glide_esite>  (262) 
-0.0694046

>  <r_i_glide_emodel>  (262) 
-40.5531

>  <r_i_glide_energy>  (262) 
-31.1429

>  <r_i_glide_einternal>  (262) 
1.85525

>  <r_i_glide_intrahb_reward>  (262) 
-0

>  <i_i_glide_confnum>  (262) 
2

>  <i_i_glide_posenum>  (262) 
1

>  <r_i_glide_eff_state_penalty>  (262) 
0

>  <ligand_id>  (262) 
80

>  <original_smiles>  (262) 
NC(=O)C12CC3CC(C1)C(O)(c1cccnc1)C(C3)C2

>  <smiles>  (262) 
[H]OC1(c2c([H])nc([H])c([H])c2[H])C2([H])C([H])([H])C3([H])C([H])([H])C1([H])C([H])([H])C(C(=O)N([H])[H])(C3([H])[H])C2([H])[H]

$$$$
80:0:1
     RDKit          3D

 40 43  0  0  1  0  0  0  0  0999 V2000
    2.0585   -1.7841    1.7516 N   0  0  0  0  0  0  0  0  0  0  0  0
    2.7049   -2.9506    1.7152 C   0  0  0  0  0  0  0  0  0  0  0  0
    2.2175   -3.9730    2.1971 O   0  0  0  0  0  0  0  0  0  0  0  0
    4.0882   -3.0004    1.0358 C   0  0  1  0  0  0  0  0  0  0  0  0
    5.1451   -3.5553    2.0286 C   0  0  0  0  0  0  0  0  0  0  0  0
    6.5327   -3.6186    1.3573 C   0  0  1  0  0  0  0  0  0  0  0  0
    6.4746   -4.5534    0.1524 C   0  0  0  0  0  0  0  0  0  0  0  0
    5.4389   -4.0161   -0.8637 C   0  0  1  0  0  0  0  0  0  0  0  0
    4.0424   -3.9523   -0.1935 C   0  0  0  0  0  0  0  0  0  0  0  0
    5.8538   -2.5979   -1.3753 C   0  0  1  0  0  0  0  0  0  0  0  0
    7.1524   -2.6345   -1.9224 O   0  0  0  0  0  0  0  0  0  0  0  0
    4.8963   -2.0577   -2.4446 C   0  0  0  0  0  0  0  0  0  0  0  0
    4.5793   -0.6879   -2.5320 C   0  0  0  0  0  0  0  0  0  0  0  0
    3.6768   -0.2350   -3.4955 C   0  0  0  0  0  0  0  0  0  0  0  0
    3.0869   -1.1720   -4.3345 C   0  0  0  0  0  0  0  0  0  0  0  0
    3.4110   -2.4805   -4.3177 N   0  0  0  0  0  0  0  0  0  0  0  0
    4.2830   -2.9146   -3.3916 C   0  0  0  0  0  0  0  0  0  0  0  0
    5.9341   -1.6754   -0.1196 C   0  0  2  0  0  0  0  0  0  0  0  0
    6.9593   -2.2175    0.8845 C   0  0  0  0  0  0  0  0  0  0  0  0
    4.5558   -1.5888    0.5712 C   0  0  0  0  0  0  0  0  0  0  0  0
    1.1369   -1.7034    2.1494 H   0  0  0  0  0  0  0  0  0  0  0  0
    2.4516   -0.9975    1.2578 H   0  0  0  0  0  0  0  0  0  0  0  0
    5.1912   -2.9201    2.9148 H   0  0  0  0  0  0  0  0  0  0  0  0
    4.8617   -4.5550    2.3683 H   0  0  0  0  0  0  0  0  0  0  0  0
    7.2548   -4.0165    2.0699 H   0  0  0  0  0  0  0  0  0  0  0  0
    7.4662   -4.6154   -0.2941 H   0  0  0  0  0  0  0  0  0  0  0  0
    6.2116   -5.5621    0.4638 H   0  0  0  0  0  0  0  0  0  0  0  0
    5.3972   -4.7446   -1.6755 H   0  0  0  0  0  0  0  0  0  0  0  0
    3.7360   -4.9631    0.0875 H   0  0  0  0  0  0  0  0  0  0  0  0
    3.2850   -3.6055   -0.9033 H   0  0  0  0  0  0  0  0  0  0  0  0
    7.1715   -3.2382   -2.6507 H   0  0  0  0  0  0  0  0  0  0  0  0
    4.9866    0.0513   -1.8707 H   0  0  0  0  0  0  0  0  0  0  0  0
    3.4133    0.8091   -3.5624 H   0  0  0  0  0  0  0  0  0  0  0  0
    2.3976   -0.8289   -5.0985 H   0  0  0  0  0  0  0  0  0  0  0  0
    4.4640   -3.9820   -3.4198 H   0  0  0  0  0  0  0  0  0  0  0  0
    6.2763   -0.6689   -0.3640 H   0  0  0  0  0  0  0  0  0  0  0  0
    6.9950   -1.5303    1.7264 H   0  0  0  0  0  0  0  0  0  0  0  0
    7.9658   -2.2260    0.4681 H   0  0  0  0  0  0  0  0  0  0  0  0
    3.8144   -1.1622   -0.1073 H   0  0  0  0  0  0  0  0  0  0  0  0
    4.6307   -0.8978    1.4143 H   0  0  0  0  0  0  0  0  0  0  0  0
  1  2  1  0
  1 21  1  0
  1 22  1  0
  2  3  2  0
  4  2  1  1
  4  9  1  0
  4 20  1  0
  4  5  1  0
  5  6  1  0
  5 23  1  0
  5 24  1  0
  6 19  1  0
  6  7  1  0
  6 25  1  1
  7  8  1  0
  7 26  1  0
  7 27  1  0
  8  9  1  0
  8 10  1  0
  8 28  1  6
  9 29  1  0
  9 30  1  0
 10 11  1  6
 10 12  1  0
 10 18  1  0
 11 31  1  0
 12 17  1  0
 12 13  2  0
 13 14  1  0
 13 32  1  0
 14 15  2  0
 14 33  1  0
 15 16  1  0
 15 34  1  0
 16 17  2  0
 17 35  1  0
 18 19  1  0
 18 20  1  0
 18 36  1  6
 19 37  1  0
 19 38  1  0
 20 39  1  0
 20 40  1  0
M  END
>  <i_m_ct_stereo_status>  (263) 
1

>  <s_m_source_file>  (263) 
/var/tmp/pbs.5076255.sched01/tmpm261n1hm/82shs6bvht.sdf

>  <i_m_source_file_index>  (263) 
33

>  <i_lp_mmshare_version>  (263) 
48012

>  <i_f3d_flags>  (263) 
0

>  <s_epik_input>  (263) 
W05IMl1DKD1PKVtDQEBdMTJbQ0gyXVtDQEhdM1tDSDJdW0NAQEhdKFtDSDJdMSlbQ0BdKFtPSF0pKFtDQEhdKFtDSDJdMylbQ0gyXTIpYzRbY0hdW2NIXVtjSF1uW2NIXTQ=

>  <s_epik_cmdline>  (263) 
J2VwaWtfcHl0aG9uJywgJy1waHQnLCAnMi4wJywgJy1waCcsICc3LjAnLCAnLXRuJywgJzgnLCAnLW1hJywgJzIwMCcsICctaW1hZScsICc8aW5maWxlLm1hZT4nLCAnLW9tYWUnLCAnPG91dGZpbGUubWFlPic=

>  <r_epik_Ionization_Penalty>  (263) 
0.00437721

>  <r_epik_Ionization_Penalty_Charging>  (263) 
0

>  <r_epik_Ionization_Penalty_Neutral>  (263) 
0.00437721

>  <r_epik_State_Penalty>  (263) 
0.00315327

>  <r_epik_Charging_Adjusted_Penalty>  (263) 
0.00315327

>  <i_epik_Tot_Q>  (263) 
0

>  <i_epik_Tot_abs_Q>  (263) 
0

>  <s_lp_Force_Field>  (263) 
OPLS3e

>  <r_lp_Energy>  (263) 
24.5311

>  <b_lp_Chiralities_Consistent>  (263) 
1

>  <s_lp_Variant>  (263) 
80:0-1

>  <s_i_glide_gridfile>  (263) 
pfpi4k_grid

>  <i_i_glide_lignum>  (263) 
33

>  <i_i_glide_rotatable_bonds>  (263) 
3

>  <r_i_docking_score>  (263) 
-4.74302

>  <r_i_glide_ligand_efficiency>  (263) 
-0.237151

>  <r_i_glide_ligand_efficiency_sa>  (263) 
-0.643727

>  <r_i_glide_ligand_efficiency_ln>  (263) 
-1.18702

>  <r_i_glide_gscore>  (263) 
-4.74302

>  <r_i_glide_lipo>  (263) 
-0.688444

>  <r_i_glide_hbond>  (263) 
-0.508879

>  <r_i_glide_metal>  (263) 
-0

>  <r_i_glide_rewards>  (263) 
-1.55221

>  <r_i_glide_evdw>  (263) 
-22.7197

>  <r_i_glide_ecoul>  (263) 
-6.86623

>  <r_i_glide_erotb>  (263) 
0.241607

>  <r_i_glide_esite>  (263) 
-0.069176

>  <r_i_glide_emodel>  (263) 
-39.395

>  <r_i_glide_energy>  (263) 
-29.5859

>  <r_i_glide_einternal>  (263) 
0.71248

>  <r_i_glide_intrahb_reward>  (263) 
-0

>  <i_i_glide_confnum>  (263) 
3

>  <i_i_glide_posenum>  (263) 
12

>  <r_i_glide_eff_state_penalty>  (263) 
0

>  <ligand_id>  (263) 
80

>  <original_smiles>  (263) 
NC(=O)C12CC3CC(C1)C(O)(c1cccnc1)C(C3)C2

>  <smiles>  (263) 
[H]OC1(c2c([H])nc([H])c([H])c2[H])C2([H])C([H])([H])C3([H])C([H])([H])C1([H])C([H])([H])C(C(=O)N([H])[H])(C3([H])[H])C2([H])[H]

$$$$
80:0:2
     RDKit          3D

 40 43  0  0  1  0  0  0  0  0999 V2000
    1.9095   -0.0692    1.6812 N   0  0  0  0  0  0  0  0  0  0  0  0
    2.9240   -0.6054    2.3766 C   0  0  0  0  0  0  0  0  0  0  0  0
    3.2946   -0.0931    3.4315 O   0  0  0  0  0  0  0  0  0  0  0  0
    3.6159   -1.8656    1.8163 C   0  0  1  0  0  0  0  0  0  0  0  0
    4.1592   -2.7790    2.9526 C   0  0  0  0  0  0  0  0  0  0  0  0
    4.8555   -4.0235    2.3532 C   0  0  1  0  0  0  0  0  0  0  0  0
    3.8567   -4.8306    1.5085 C   0  0  0  0  0  0  0  0  0  0  0  0
    3.3301   -3.9459    0.3519 C   0  0  1  0  0  0  0  0  0  0  0  0
    2.6369   -2.7115    0.9555 C   0  0  0  0  0  0  0  0  0  0  0  0
    4.4807   -3.4842   -0.5952 C   0  0  1  0  0  0  0  0  0  0  0  0
    5.0833   -4.6492   -1.1130 O   0  0  0  0  0  0  0  0  0  0  0  0
    3.9951   -2.6433   -1.7903 C   0  0  0  0  0  0  0  0  0  0  0  0
    4.6545   -1.4610   -2.2044 C   0  0  0  0  0  0  0  0  0  0  0  0
    4.1360   -0.7107   -3.2720 C   0  0  0  0  0  0  0  0  0  0  0  0
    3.0164   -1.2003   -3.9517 C   0  0  0  0  0  0  0  0  0  0  0  0
    2.4092   -2.3531   -3.6133 N   0  0  0  0  0  0  0  0  0  0  0  0
    2.8748   -3.0403   -2.5480 C   0  0  0  0  0  0  0  0  0  0  0  0
    5.4928   -2.6998    0.3061 C   0  0  2  0  0  0  0  0  0  0  0  0
    6.0222   -3.5859    1.4535 C   0  0  0  0  0  0  0  0  0  0  0  0
    4.8222   -1.4372    0.9447 C   0  0  0  0  0  0  0  0  0  0  0  0
    1.4472    0.7561    2.0332 H   0  0  0  0  0  0  0  0  0  0  0  0
    1.6049   -0.4646    0.7906 H   0  0  0  0  0  0  0  0  0  0  0  0
    4.8787   -2.2327    3.5691 H   0  0  0  0  0  0  0  0  0  0  0  0
    3.3450   -3.0902    3.6112 H   0  0  0  0  0  0  0  0  0  0  0  0
    5.2343   -4.6464    3.1606 H   0  0  0  0  0  0  0  0  0  0  0  0
    4.3319   -5.7287    1.1166 H   0  0  0  0  0  0  0  0  0  0  0  0
    3.0289   -5.1696    2.1320 H   0  0  0  0  0  0  0  0  0  0  0  0
    2.5848   -4.5362   -0.1890 H   0  0  0  0  0  0  0  0  0  0  0  0
    1.7944   -3.0164    1.5708 H   0  0  0  0  0  0  0  0  0  0  0  0
    2.2356   -2.1307    0.1290 H   0  0  0  0  0  0  0  0  0  0  0  0
    4.4394   -5.1355   -1.6168 H   0  0  0  0  0  0  0  0  0  0  0  0
    5.5318   -1.0811   -1.7137 H   0  0  0  0  0  0  0  0  0  0  0  0
    4.5755    0.2366   -3.5364 H   0  0  0  0  0  0  0  0  0  0  0  0
    2.5745   -0.6460   -4.7635 H   0  0  0  0  0  0  0  0  0  0  0  0
    2.2917   -3.9133   -2.2870 H   0  0  0  0  0  0  0  0  0  0  0  0
    6.3734   -2.4119   -0.2715 H   0  0  0  0  0  0  0  0  0  0  0  0
    6.7478   -3.0190    2.0358 H   0  0  0  0  0  0  0  0  0  0  0  0
    6.5616   -4.4499    1.0630 H   0  0  0  0  0  0  0  0  0  0  0  0
    4.4540   -0.7191    0.2074 H   0  0  0  0  0  0  0  0  0  0  0  0
    5.5594   -0.8862    1.5458 H   0  0  0  0  0  0  0  0  0  0  0  0
  1  2  1  0
  1 21  1  0
  1 22  1  0
  2  3  2  0
  4  2  1  1
  4  9  1  0
  4 20  1  0
  4  5  1  0
  5  6  1  0
  5 23  1  0
  5 24  1  0
  6 19  1  0
  6  7  1  0
  6 25  1  1
  7  8  1  0
  7 26  1  0
  7 27  1  0
  8  9  1  0
  8 10  1  0
  8 28  1  6
  9 29  1  0
  9 30  1  0
 10 11  1  6
 10 12  1  0
 10 18  1  0
 11 31  1  0
 12 17  1  0
 12 13  2  0
 13 14  1  0
 13 32  1  0
 14 15  2  0
 14 33  1  0
 15 16  1  0
 15 34  1  0
 16 17  2  0
 17 35  1  0
 18 19  1  0
 18 20  1  0
 18 36  1  6
 19 37  1  0
 19 38  1  0
 20 39  1  0
 20 40  1  0
M  END
>  <i_m_ct_stereo_status>  (264) 
1

>  <s_m_source_file>  (264) 
/var/tmp/pbs.5076255.sched01/tmpm261n1hm/82shs6bvht.sdf

>  <i_m_source_file_index>  (264) 
33

>  <i_lp_mmshare_version>  (264) 
48012

>  <i_f3d_flags>  (264) 
0

>  <s_epik_input>  (264) 
W05IMl1DKD1PKVtDQEBdMTJbQ0gyXVtDQEhdM1tDSDJdW0NAQEhdKFtDSDJdMSlbQ0BdKFtPSF0pKFtDQEhdKFtDSDJdMylbQ0gyXTIpYzRbY0hdW2NIXVtjSF1uW2NIXTQ=

>  <s_epik_cmdline>  (264) 
J2VwaWtfcHl0aG9uJywgJy1waHQnLCAnMi4wJywgJy1waCcsICc3LjAnLCAnLXRuJywgJzgnLCAnLW1hJywgJzIwMCcsICctaW1hZScsICc8aW5maWxlLm1hZT4nLCAnLW9tYWUnLCAnPG91dGZpbGUubWFlPic=

>  <r_epik_Ionization_Penalty>  (264) 
0.00437721

>  <r_epik_Ionization_Penalty_Charging>  (264) 
0

>  <r_epik_Ionization_Penalty_Neutral>  (264) 
0.00437721

>  <r_epik_State_Penalty>  (264) 
0.00315327

>  <r_epik_Charging_Adjusted_Penalty>  (264) 
0.00315327

>  <i_epik_Tot_Q>  (264) 
0

>  <i_epik_Tot_abs_Q>  (264) 
0

>  <s_lp_Force_Field>  (264) 
OPLS3e

>  <r_lp_Energy>  (264) 
24.5311

>  <b_lp_Chiralities_Consistent>  (264) 
1

>  <s_lp_Variant>  (264) 
80:0-1

>  <s_i_glide_gridfile>  (264) 
pfpi4k_grid

>  <i_i_glide_lignum>  (264) 
33

>  <i_i_glide_rotatable_bonds>  (264) 
3

>  <r_i_docking_score>  (264) 
-4.50246

>  <r_i_glide_ligand_efficiency>  (264) 
-0.225123

>  <r_i_glide_ligand_efficiency_sa>  (264) 
-0.611077

>  <r_i_glide_ligand_efficiency_ln>  (264) 
-1.12682

>  <r_i_glide_gscore>  (264) 
-4.50246

>  <r_i_glide_lipo>  (264) 
-0.546735

>  <r_i_glide_hbond>  (264) 
-0.456

>  <r_i_glide_metal>  (264) 
-0

>  <r_i_glide_rewards>  (264) 
-1.55221

>  <r_i_glide_evdw>  (264) 
-23.7748

>  <r_i_glide_ecoul>  (264) 
-6.08277

>  <r_i_glide_erotb>  (264) 
0.241607

>  <r_i_glide_esite>  (264) 
-0.0879574

>  <r_i_glide_emodel>  (264) 
-38.4781

>  <r_i_glide_energy>  (264) 
-29.8576

>  <r_i_glide_einternal>  (264) 
1.80672

>  <r_i_glide_intrahb_reward>  (264) 
-0

>  <i_i_glide_confnum>  (264) 
1

>  <i_i_glide_posenum>  (264) 
38

>  <r_i_glide_eff_state_penalty>  (264) 
0

>  <ligand_id>  (264) 
80

>  <original_smiles>  (264) 
NC(=O)C12CC3CC(C1)C(O)(c1cccnc1)C(C3)C2

>  <smiles>  (264) 
[H]OC1(c2c([H])nc([H])c([H])c2[H])C2([H])C([H])([H])C3([H])C([H])([H])C1([H])C([H])([H])C(C(=O)N([H])[H])(C3([H])[H])C2([H])[H]

$$$$
82:0:0
     RDKit          3D

 80 83  0  0  1  0  0  0  0  0999 V2000
    3.4803   -1.6507   -2.6124 C   0  0  0  0  0  0  0  0  0  0  0  0
    4.2232   -2.2851   -1.5846 O   0  0  0  0  0  0  0  0  0  0  0  0
    4.3151   -1.7305   -0.3706 C   0  0  0  0  0  0  0  0  0  0  0  0
    3.7778   -0.6706   -0.0464 O   0  0  0  0  0  0  0  0  0  0  0  0
    5.1675   -2.5575    0.6395 C   0  0  1  0  0  0  0  0  0  0  0  0
    6.4602   -3.0483   -0.0709 C   0  0  0  0  0  0  0  0  0  0  0  0
    5.5801   -1.8116    1.9595 C   0  0  1  0  0  0  0  0  0  0  0  0
    5.4422   -0.4103    2.0638 O   0  0  0  0  0  0  0  0  0  0  0  0
    4.9750   -2.5748    3.1523 C   0  0  1  0  0  0  0  0  0  0  0  0
    3.6773   -1.9598    3.7488 C   0  0  1  0  0  0  0  0  0  0  0  0
    2.7352   -1.5214    2.7714 O   0  0  0  0  0  0  0  0  0  0  0  0
    2.0245   -0.3572    2.8759 C   0  0  0  0  0  0  0  0  0  0  0  0
    2.3653    0.5542    4.0567 C   0  0  0  0  0  0  0  0  0  0  0  0
    1.1609   -0.0395    2.0837 O   0  0  0  0  0  0  0  0  0  0  0  0
    2.9352   -2.9146    4.6916 C   0  0  0  0  0  0  0  0  0  0  0  0
    2.7379   -4.3034    4.0721 C   0  0  0  0  0  0  0  0  0  0  0  0
    4.0665   -5.0094    3.6416 C   0  0  2  0  0  0  0  0  0  0  0  0
    4.9656   -5.0417    4.9067 C   0  0  0  0  0  0  0  0  0  0  0  0
    4.8292   -4.0212    2.6449 C   0  0  1  0  0  0  0  0  0  0  0  0
    4.3336   -3.7597    1.1908 C   0  0  2  0  0  0  0  0  0  0  0  0
    4.2227   -5.0048    0.2793 C   0  0  0  0  0  0  0  0  0  0  0  0
    3.0147   -5.7944    0.7021 C   0  0  0  0  0  0  0  0  0  0  0  0
    2.7664   -6.3298    1.9286 C   0  0  0  0  0  0  0  0  0  0  0  0
    1.2919   -6.5173    2.2570 C   0  0  0  0  0  0  0  0  0  0  0  0
    0.7741   -7.9240    2.0809 C   0  0  0  0  0  0  0  0  0  0  0  0
    1.0434   -8.7999    3.2985 C   0  0  1  0  0  0  0  0  0  0  0  0
    0.1938  -10.0861    3.1232 C   0  0  0  0  0  0  0  0  0  0  0  0
    2.5689   -9.0084    3.6140 C   0  0  0  0  0  0  0  0  0  0  0  0
    2.5825  -10.1090    4.7323 C   0  0  0  0  0  0  0  0  0  0  0  0
    3.2894   -9.6646    2.4137 C   0  0  0  0  0  0  0  0  0  0  0  0
    3.3151   -7.6555    4.1138 C   0  0  1  0  0  0  0  0  0  0  0  0
    4.4241   -8.1055    5.1249 C   0  0  0  0  0  0  0  0  0  0  0  0
    3.8125   -6.5105    3.0538 C   0  0  2  0  0  0  0  0  0  0  0  0
    5.1555   -7.0550    2.4501 C   0  0  0  0  0  0  0  0  0  0  0  0
    3.5511   -2.2302   -3.5339 H   0  0  0  0  0  0  0  0  0  0  0  0
    3.8590   -0.6513   -2.8096 H   0  0  0  0  0  0  0  0  0  0  0  0
    2.4348   -1.5816   -2.3295 H   0  0  0  0  0  0  0  0  0  0  0  0
    7.0149   -3.7511    0.5581 H   0  0  0  0  0  0  0  0  0  0  0  0
    7.1242   -2.2131   -0.2981 H   0  0  0  0  0  0  0  0  0  0  0  0
    6.2662   -3.5734   -1.0086 H   0  0  0  0  0  0  0  0  0  0  0  0
    6.6587   -1.9271    2.0550 H   0  0  0  0  0  0  0  0  0  0  0  0
    4.5421   -0.1907    1.8084 H   0  0  0  0  0  0  0  0  0  0  0  0
    5.7192   -2.5215    3.9437 H   0  0  0  0  0  0  0  0  0  0  0  0
    4.0422   -1.1415    4.3607 H   0  0  0  0  0  0  0  0  0  0  0  0
    3.4054    0.8704    4.0147 H   0  0  0  0  0  0  0  0  0  0  0  0
    2.1782    0.0484    5.0007 H   0  0  0  0  0  0  0  0  0  0  0  0
    1.7555    1.4598    4.0422 H   0  0  0  0  0  0  0  0  0  0  0  0
    3.4450   -2.9775    5.6512 H   0  0  0  0  0  0  0  0  0  0  0  0
    1.9493   -2.5007    4.9189 H   0  0  0  0  0  0  0  0  0  0  0  0
    2.1860   -4.9294    4.7683 H   0  0  0  0  0  0  0  0  0  0  0  0
    2.1032   -4.1579    3.2043 H   0  0  0  0  0  0  0  0  0  0  0  0
    5.9126   -5.5597    4.7248 H   0  0  0  0  0  0  0  0  0  0  0  0
    4.4368   -5.4839    5.7531 H   0  0  0  0  0  0  0  0  0  0  0  0
    5.2672   -4.0653    5.2812 H   0  0  0  0  0  0  0  0  0  0  0  0
    5.8686   -4.3568    2.5640 H   0  0  0  0  0  0  0  0  0  0  0  0
    3.3091   -3.3922    1.2665 H   0  0  0  0  0  0  0  0  0  0  0  0
    4.0181   -4.6936   -0.7475 H   0  0  0  0  0  0  0  0  0  0  0  0
    5.1348   -5.5970    0.2053 H   0  0  0  0  0  0  0  0  0  0  0  0
    2.1961   -5.6875    0.0031 H   0  0  0  0  0  0  0  0  0  0  0  0
    1.0470   -6.1632    3.2572 H   0  0  0  0  0  0  0  0  0  0  0  0
    0.7012   -5.8826    1.5956 H   0  0  0  0  0  0  0  0  0  0  0  0
   -0.3070   -7.8512    1.9504 H   0  0  0  0  0  0  0  0  0  0  0  0
    1.1475   -8.3697    1.1573 H   0  0  0  0  0  0  0  0  0  0  0  0
    0.6019   -8.2936    4.1615 H   0  0  0  0  0  0  0  0  0  0  0  0
    0.6092  -10.7649    2.3781 H   0  0  0  0  0  0  0  0  0  0  0  0
   -0.8212   -9.8516    2.8019 H   0  0  0  0  0  0  0  0  0  0  0  0
    0.0631  -10.6367    4.0559 H   0  0  0  0  0  0  0  0  0  0  0  0
    3.5751  -10.4481    5.0199 H   0  0  0  0  0  0  0  0  0  0  0  0
    2.1246  -11.0441    4.4136 H   0  0  0  0  0  0  0  0  0  0  0  0
    2.0597   -9.7797    5.6344 H   0  0  0  0  0  0  0  0  0  0  0  0
    4.3404   -9.8343    2.6305 H   0  0  0  0  0  0  0  0  0  0  0  0
    3.2266   -9.0717    1.5069 H   0  0  0  0  0  0  0  0  0  0  0  0
    2.8696  -10.6380    2.1704 H   0  0  0  0  0  0  0  0  0  0  0  0
    2.5818   -7.1517    4.7471 H   0  0  0  0  0  0  0  0  0  0  0  0
    5.0198   -8.9280    4.7265 H   0  0  0  0  0  0  0  0  0  0  0  0
    3.9892   -8.4326    6.0704 H   0  0  0  0  0  0  0  0  0  0  0  0
    5.1738   -7.3898    5.4126 H   0  0  0  0  0  0  0  0  0  0  0  0
    5.8110   -7.5166    3.1767 H   0  0  0  0  0  0  0  0  0  0  0  0
    5.7976   -6.3143    2.0047 H   0  0  0  0  0  0  0  0  0  0  0  0
    4.9816   -7.7858    1.6679 H   0  0  0  0  0  0  0  0  0  0  0  0
  1  2  1  0
  1 35  1  0
  1 36  1  0
  1 37  1  0
  2  3  1  0
  3  4  2  0
  3  5  1  0
  5 20  1  0
  5  6  1  6
  5  7  1  0
  6 38  1  0
  6 39  1  0
  6 40  1  0
  7  8  1  0
  7  9  1  0
  7 41  1  1
  8 42  1  0
  9 19  1  0
  9 10  1  0
  9 43  1  1
 10 11  1  0
 10 15  1  0
 10 44  1  1
 11 12  1  0
 12 13  1  0
 12 14  2  0
 13 45  1  0
 13 46  1  0
 13 47  1  0
 15 16  1  0
 15 48  1  0
 15 49  1  0
 16 17  1  0
 16 50  1  0
 16 51  1  0
 17 33  1  0
 17 18  1  1
 17 19  1  0
 18 52  1  0
 18 53  1  0
 18 54  1  0
 19 20  1  0
 19 55  1  6
 20 21  1  0
 20 56  1  1
 21 22  1  0
 21 57  1  0
 21 58  1  0
 22 23  2  0
 22 59  1  0
 23 33  1  0
 23 24  1  0
 24 25  1  0
 24 60  1  0
 24 61  1  0
 25 26  1  0
 25 62  1  0
 25 63  1  0
 26 27  1  0
 26 28  1  0
 26 64  1  1
 27 65  1  0
 27 66  1  0
 27 67  1  0
 28 29  1  0
 28 30  1  0
 28 31  1  0
 29 68  1  0
 29 69  1  0
 29 70  1  0
 30 71  1  0
 30 72  1  0
 30 73  1  0
 31 32  1  0
 31 33  1  0
 31 74  1  1
 32 75  1  0
 32 76  1  0
 32 77  1  0
 33 34  1  6
 34 78  1  0
 34 79  1  0
 34 80  1  0
M  END
>  <i_m_ct_stereo_status>  (265) 
1

>  <s_m_source_file>  (265) 
/var/tmp/pbs.5076255.sched01/tmpm261n1hm/82shs6bvht.sdf

>  <i_m_source_file_index>  (265) 
35

>  <i_lp_mmshare_version>  (265) 
48012

>  <i_f3d_flags>  (265) 
0

>  <s_epik_input>  (265) 
W0NIM11DKD1PKU9bQ0BASF0oW0NIMl1bQ0gyXTEpW0NAQEhdKFtDQEhdMltDQEBdMTNbQ0gzXSlbQ0BIXShbT0hdKVtDQF0oW0NIM10pKEMoPU8pT1tDSDNdKVtDQEhdMltDSDJdW0NIXT1DNFtDQF0zKFtDSDNdKVtDQEhdKFtDSDNdKUMoW0NIM10pKFtDSDNdKVtDQEhdKFtDSDNdKVtDSDJdW0NIMl00

>  <s_epik_cmdline>  (265) 
J2VwaWtfcHl0aG9uJywgJy1waHQnLCAnMi4wJywgJy1waCcsICc3LjAnLCAnLXRuJywgJzgnLCAnLW1hJywgJzIwMCcsICctaW1hZScsICc8aW5maWxlLm1hZT4nLCAnLW9tYWUnLCAnPG91dGZpbGUubWFlPic=

>  <r_lp_tautomer_probability>  (265) 
1

>  <r_epik_Ionization_Penalty>  (265) 
7.54682e-08

>  <r_epik_Ionization_Penalty_Charging>  (265) 
0

>  <r_epik_Ionization_Penalty_Neutral>  (265) 
7.54682e-08

>  <r_epik_State_Penalty>  (265) 
-0

>  <r_epik_Charging_Adjusted_Penalty>  (265) 
0

>  <i_epik_Tot_Q>  (265) 
0

>  <i_epik_Tot_abs_Q>  (265) 
0

>  <s_epik_Chemistry_Notes>  (265) 
This compound has an ester and may undergo hydrolysis at high or low pH.

>  <s_lp_Force_Field>  (265) 
OPLS3e

>  <r_lp_Energy>  (265) 
105.898

>  <b_lp_Chiralities_Consistent>  (265) 
1

>  <s_lp_Variant>  (265) 
82:0-1

>  <s_i_glide_gridfile>  (265) 
pfpi4k_grid

>  <i_i_glide_lignum>  (265) 
35

>  <i_i_glide_rotatable_bonds>  (265) 
5

>  <r_i_docking_score>  (265) 
-2.38882

>  <r_i_glide_ligand_efficiency>  (265) 
-0.0702595

>  <r_i_glide_ligand_efficiency_sa>  (265) 
-0.227614

>  <r_i_glide_ligand_efficiency_ln>  (265) 
-0.527758

>  <r_i_glide_gscore>  (265) 
-2.38882

>  <r_i_glide_lipo>  (265) 
-0.320723

>  <r_i_glide_hbond>  (265) 
0

>  <r_i_glide_metal>  (265) 
-0

>  <r_i_glide_rewards>  (265) 
-0.672687

>  <r_i_glide_evdw>  (265) 
-34.7594

>  <r_i_glide_ecoul>  (265) 
1.37742

>  <r_i_glide_erotb>  (265) 
0.179631

>  <r_i_glide_esite>  (265) 
-0.0436889

>  <r_i_glide_emodel>  (265) 
-39.6682

>  <r_i_glide_energy>  (265) 
-33.382

>  <r_i_glide_einternal>  (265) 
7.10332

>  <r_i_glide_intrahb_reward>  (265) 
-0.5

>  <i_i_glide_confnum>  (265) 
1

>  <i_i_glide_posenum>  (265) 
17

>  <r_i_glide_eff_state_penalty>  (265) 
0

>  <ligand_id>  (265) 
82

>  <original_smiles>  (265) 
COC(=O)C1(C)C(O)C2C(OC(C)=O)CCC3(C)C2C1CC=C1CCC(C)C(C)(C)C(C)C13C

>  <smiles>  (265) 
[H]OC1([H])C2([H])C([H])(OC(=O)C([H])([H])[H])C([H])([H])C([H])([H])C3(C([H])([H])[H])C2([H])C([H])(C([H])([H])C([H])=C2C([H])([H])C([H])([H])C([H])(C([H])([H])[H])C(C([H])([H])[H])(C([H])([H])[H])C([H])(C([H])([H])[H])C23C([H])([H])[H])C1(C(=O)OC([H])([H])[H])C([H])([H])[H]

$$$$
82:0:1
     RDKit          3D

 80 83  0  0  1  0  0  0  0  0999 V2000
    2.9513   -7.5662    1.5636 C   0  0  0  0  0  0  0  0  0  0  0  0
    3.4262   -6.5838    2.4634 O   0  0  0  0  0  0  0  0  0  0  0  0
    2.8301   -5.3768    2.4993 C   0  0  0  0  0  0  0  0  0  0  0  0
    1.8273   -5.0766    1.8429 O   0  0  0  0  0  0  0  0  0  0  0  0
    3.5194   -4.3928    3.4848 C   0  0  1  0  0  0  0  0  0  0  0  0
    3.4932   -5.0414    4.8939 C   0  0  0  0  0  0  0  0  0  0  0  0
    5.0026   -4.0374    3.1138 C   0  0  1  0  0  0  0  0  0  0  0  0
    5.6509   -4.7792    2.0989 O   0  0  0  0  0  0  0  0  0  0  0  0
    5.0812   -2.5103    2.8856 C   0  0  1  0  0  0  0  0  0  0  0  0
    5.0463   -2.0224    1.4044 C   0  0  1  0  0  0  0  0  0  0  0  0
    4.0575   -2.7050    0.6503 O   0  0  0  0  0  0  0  0  0  0  0  0
    4.1456   -2.8003   -0.6858 C   0  0  0  0  0  0  0  0  0  0  0  0
    2.9092   -3.4527   -1.2710 C   0  0  0  0  0  0  0  0  0  0  0  0
    5.0804   -2.4056   -1.3884 O   0  0  0  0  0  0  0  0  0  0  0  0
    4.7922   -0.5082    1.2963 C   0  0  0  0  0  0  0  0  0  0  0  0
    3.5790   -0.0655    2.1316 C   0  0  0  0  0  0  0  0  0  0  0  0
    3.6795   -0.3862    3.6562 C   0  0  2  0  0  0  0  0  0  0  0  0
    4.9954    0.2597    4.1587 C   0  0  0  0  0  0  0  0  0  0  0  0
    3.9411   -1.9539    3.7820 C   0  0  1  0  0  0  0  0  0  0  0  0
    2.8209   -2.9896    3.5041 C   0  0  2  0  0  0  0  0  0  0  0  0
    1.5306   -2.8798    4.3498 C   0  0  0  0  0  0  0  0  0  0  0  0
    0.7398   -1.6975    3.8505 C   0  0  0  0  0  0  0  0  0  0  0  0
    1.1443   -0.4110    3.7768 C   0  0  0  0  0  0  0  0  0  0  0  0
    0.4498    0.4323    2.7113 C   0  0  0  0  0  0  0  0  0  0  0  0
   -0.6699    1.3138    3.2185 C   0  0  0  0  0  0  0  0  0  0  0  0
   -0.1468    2.6439    3.7541 C   0  0  1  0  0  0  0  0  0  0  0  0
   -1.3782    3.5750    3.9247 C   0  0  0  0  0  0  0  0  0  0  0  0
    0.8133    2.5032    4.9958 C   0  0  0  0  0  0  0  0  0  0  0  0
    1.0116    3.9750    5.4977 C   0  0  0  0  0  0  0  0  0  0  0  0
    0.0884    1.7905    6.1604 C   0  0  0  0  0  0  0  0  0  0  0  0
    2.2412    1.8061    4.6411 C   0  0  1  0  0  0  0  0  0  0  0  0
    3.3002    2.4544    5.6000 C   0  0  0  0  0  0  0  0  0  0  0  0
    2.3901    0.1797    4.4908 C   0  0  2  0  0  0  0  0  0  0  0  0
    2.4599   -0.3654    5.9597 C   0  0  0  0  0  0  0  0  0  0  0  0
    3.5523   -8.4717    1.6413 H   0  0  0  0  0  0  0  0  0  0  0  0
    3.0307   -7.1926    0.5419 H   0  0  0  0  0  0  0  0  0  0  0  0
    1.9104   -7.8253    1.7626 H   0  0  0  0  0  0  0  0  0  0  0  0
    3.8407   -4.3487    5.6616 H   0  0  0  0  0  0  0  0  0  0  0  0
    4.1358   -5.9227    4.9340 H   0  0  0  0  0  0  0  0  0  0  0  0
    2.4879   -5.3667    5.1716 H   0  0  0  0  0  0  0  0  0  0  0  0
    5.6065   -4.2444    3.9970 H   0  0  0  0  0  0  0  0  0  0  0  0
    5.1548   -4.6887    1.2969 H   0  0  0  0  0  0  0  0  0  0  0  0
    6.0467   -2.1942    3.2744 H   0  0  0  0  0  0  0  0  0  0  0  0
    6.0153   -2.2485    0.9593 H   0  0  0  0  0  0  0  0  0  0  0  0
    2.0259   -2.9357   -0.9037 H   0  0  0  0  0  0  0  0  0  0  0  0
    2.8478   -4.4930   -0.9498 H   0  0  0  0  0  0  0  0  0  0  0  0
    2.9146   -3.4154   -2.3593 H   0  0  0  0  0  0  0  0  0  0  0  0
    5.6876    0.0431    1.5716 H   0  0  0  0  0  0  0  0  0  0  0  0
    4.6127   -0.2337    0.2571 H   0  0  0  0  0  0  0  0  0  0  0  0
    3.4169    0.9992    1.9702 H   0  0  0  0  0  0  0  0  0  0  0  0
    2.7201   -0.5739    1.6932 H   0  0  0  0  0  0  0  0  0  0  0  0
    5.1340    0.1252    5.2313 H   0  0  0  0  0  0  0  0  0  0  0  0
    5.0140    1.3152    3.8950 H   0  0  0  0  0  0  0  0  0  0  0  0
    5.8981   -0.1421    3.7076 H   0  0  0  0  0  0  0  0  0  0  0  0
    4.2951   -2.1411    4.7951 H   0  0  0  0  0  0  0  0  0  0  0  0
    2.4883   -2.7861    2.4871 H   0  0  0  0  0  0  0  0  0  0  0  0
    0.9056   -3.7545    4.1649 H   0  0  0  0  0  0  0  0  0  0  0  0
    1.6869   -2.8783    5.4255 H   0  0  0  0  0  0  0  0  0  0  0  0
   -0.1177   -1.9973    3.2738 H   0  0  0  0  0  0  0  0  0  0  0  0
    1.1531    1.0298    2.1347 H   0  0  0  0  0  0  0  0  0  0  0  0
    0.0200   -0.2390    1.9676 H   0  0  0  0  0  0  0  0  0  0  0  0
   -1.3008    1.5292    2.3546 H   0  0  0  0  0  0  0  0  0  0  0  0
   -1.3206    0.7976    3.9245 H   0  0  0  0  0  0  0  0  0  0  0  0
    0.4334    3.1011    2.9495 H   0  0  0  0  0  0  0  0  0  0  0  0
   -1.9837    3.3104    4.7909 H   0  0  0  0  0  0  0  0  0  0  0  0
   -2.0304    3.5262    3.0526 H   0  0  0  0  0  0  0  0  0  0  0  0
   -1.0953    4.6238    4.0014 H   0  0  0  0  0  0  0  0  0  0  0  0
    1.5849    4.0616    6.4180 H   0  0  0  0  0  0  0  0  0  0  0  0
    0.0773    4.4548    5.7814 H   0  0  0  0  0  0  0  0  0  0  0  0
    1.4876    4.5971    4.7373 H   0  0  0  0  0  0  0  0  0  0  0  0
    0.7340    1.7081    7.0326 H   0  0  0  0  0  0  0  0  0  0  0  0
   -0.2463    0.7910    5.8957 H   0  0  0  0  0  0  0  0  0  0  0  0
   -0.7956    2.3379    6.4832 H   0  0  0  0  0  0  0  0  0  0  0  0
    2.5038    2.2034    3.6604 H   0  0  0  0  0  0  0  0  0  0  0  0
    2.9543    2.4655    6.6340 H   0  0  0  0  0  0  0  0  0  0  0  0
    3.5243    3.4802    5.3047 H   0  0  0  0  0  0  0  0  0  0  0  0
    4.2636    1.9857    5.6804 H   0  0  0  0  0  0  0  0  0  0  0  0
    3.0729    0.2279    6.6297 H   0  0  0  0  0  0  0  0  0  0  0  0
    2.8936   -1.3471    6.0683 H   0  0  0  0  0  0  0  0  0  0  0  0
    1.4791   -0.4382    6.4184 H   0  0  0  0  0  0  0  0  0  0  0  0
  1  2  1  0
  1 35  1  0
  1 36  1  0
  1 37  1  0
  2  3  1  0
  3  4  2  0
  3  5  1  0
  5 20  1  0
  5  6  1  1
  5  7  1  0
  6 38  1  0
  6 39  1  0
  6 40  1  0
  7  8  1  0
  7  9  1  0
  7 41  1  1
  8 42  1  0
  9 19  1  0
  9 10  1  0
  9 43  1  1
 10 11  1  0
 10 15  1  0
 10 44  1  6
 11 12  1  0
 12 13  1  0
 12 14  2  0
 13 45  1  0
 13 46  1  0
 13 47  1  0
 15 16  1  0
 15 48  1  0
 15 49  1  0
 16 17  1  0
 16 50  1  0
 16 51  1  0
 17 33  1  0
 17 18  1  1
 17 19  1  0
 18 52  1  0
 18 53  1  0
 18 54  1  0
 19 20  1  0
 19 55  1  1
 20 21  1  0
 20 56  1  6
 21 22  1  0
 21 57  1  0
 21 58  1  0
 22 23  2  0
 22 59  1  0
 23 33  1  0
 23 24  1  0
 24 25  1  0
 24 60  1  0
 24 61  1  0
 25 26  1  0
 25 62  1  0
 25 63  1  0
 26 27  1  0
 26 28  1  0
 26 64  1  6
 27 65  1  0
 27 66  1  0
 27 67  1  0
 28 29  1  0
 28 30  1  0
 28 31  1  0
 29 68  1  0
 29 69  1  0
 29 70  1  0
 30 71  1  0
 30 72  1  0
 30 73  1  0
 31 32  1  0
 31 33  1  0
 31 74  1  6
 32 75  1  0
 32 76  1  0
 32 77  1  0
 33 34  1  1
 34 78  1  0
 34 79  1  0
 34 80  1  0
M  END
>  <i_m_ct_stereo_status>  (266) 
1

>  <s_m_source_file>  (266) 
/var/tmp/pbs.5076255.sched01/tmpm261n1hm/82shs6bvht.sdf

>  <i_m_source_file_index>  (266) 
35

>  <i_lp_mmshare_version>  (266) 
48012

>  <i_f3d_flags>  (266) 
0

>  <s_epik_input>  (266) 
W0NIM11DKD1PKU9bQ0BASF0oW0NIMl1bQ0gyXTEpW0NAQEhdKFtDQEhdMltDQEBdMTNbQ0gzXSlbQ0BIXShbT0hdKVtDQF0oW0NIM10pKEMoPU8pT1tDSDNdKVtDQEhdMltDSDJdW0NIXT1DNFtDQF0zKFtDSDNdKVtDQEhdKFtDSDNdKUMoW0NIM10pKFtDSDNdKVtDQEhdKFtDSDNdKVtDSDJdW0NIMl00

>  <s_epik_cmdline>  (266) 
J2VwaWtfcHl0aG9uJywgJy1waHQnLCAnMi4wJywgJy1waCcsICc3LjAnLCAnLXRuJywgJzgnLCAnLW1hJywgJzIwMCcsICctaW1hZScsICc8aW5maWxlLm1hZT4nLCAnLW9tYWUnLCAnPG91dGZpbGUubWFlPic=

>  <r_lp_tautomer_probability>  (266) 
1

>  <r_epik_Ionization_Penalty>  (266) 
7.54682e-08

>  <r_epik_Ionization_Penalty_Charging>  (266) 
0

>  <r_epik_Ionization_Penalty_Neutral>  (266) 
7.54682e-08

>  <r_epik_State_Penalty>  (266) 
-0

>  <r_epik_Charging_Adjusted_Penalty>  (266) 
0

>  <i_epik_Tot_Q>  (266) 
0

>  <i_epik_Tot_abs_Q>  (266) 
0

>  <s_epik_Chemistry_Notes>  (266) 
This compound has an ester and may undergo hydrolysis at high or low pH.

>  <s_lp_Force_Field>  (266) 
OPLS3e

>  <r_lp_Energy>  (266) 
105.898

>  <b_lp_Chiralities_Consistent>  (266) 
1

>  <s_lp_Variant>  (266) 
82:0-1

>  <s_i_glide_gridfile>  (266) 
pfpi4k_grid

>  <i_i_glide_lignum>  (266) 
35

>  <i_i_glide_rotatable_bonds>  (266) 
5

>  <r_i_docking_score>  (266) 
-2.34216

>  <r_i_glide_ligand_efficiency>  (266) 
-0.068887

>  <r_i_glide_ligand_efficiency_sa>  (266) 
-0.223167

>  <r_i_glide_ligand_efficiency_ln>  (266) 
-0.517449

>  <r_i_glide_gscore>  (266) 
-2.34216

>  <r_i_glide_lipo>  (266) 
-0.495517

>  <r_i_glide_hbond>  (266) 
-0.0286141

>  <r_i_glide_metal>  (266) 
-0

>  <r_i_glide_rewards>  (266) 
-0.172687

>  <r_i_glide_evdw>  (266) 
-29.3064

>  <r_i_glide_ecoul>  (266) 
-2.33003

>  <r_i_glide_erotb>  (266) 
0.179631

>  <r_i_glide_esite>  (266) 
-0.010148

>  <r_i_glide_emodel>  (266) 
-36.006

>  <r_i_glide_energy>  (266) 
-31.6364

>  <r_i_glide_einternal>  (266) 
0.866427

>  <r_i_glide_intrahb_reward>  (266) 
-0

>  <i_i_glide_confnum>  (266) 
3

>  <i_i_glide_posenum>  (266) 
14

>  <r_i_glide_eff_state_penalty>  (266) 
0

>  <ligand_id>  (266) 
82

>  <original_smiles>  (266) 
COC(=O)C1(C)C(O)C2C(OC(C)=O)CCC3(C)C2C1CC=C1CCC(C)C(C)(C)C(C)C13C

>  <smiles>  (266) 
[H]OC1([H])C2([H])C([H])(OC(=O)C([H])([H])[H])C([H])([H])C([H])([H])C3(C([H])([H])[H])C2([H])C([H])(C([H])([H])C([H])=C2C([H])([H])C([H])([H])C([H])(C([H])([H])[H])C(C([H])([H])[H])(C([H])([H])[H])C([H])(C([H])([H])[H])C23C([H])([H])[H])C1(C(=O)OC([H])([H])[H])C([H])([H])[H]

$$$$
82:0:2
     RDKit          3D

 80 83  0  0  1  0  0  0  0  0999 V2000
    3.5581   -1.3382   -2.7507 C   0  0  0  0  0  0  0  0  0  0  0  0
    4.3037   -2.1351   -1.8396 O   0  0  0  0  0  0  0  0  0  0  0  0
    4.4724   -1.6856   -0.5808 C   0  0  0  0  0  0  0  0  0  0  0  0
    3.9226   -0.6234   -0.1621 O   0  0  0  0  0  0  0  0  0  0  0  0
    5.3220   -2.6028    0.3513 C   0  0  1  0  0  0  0  0  0  0  0  0
    6.5163   -3.1595   -0.4686 C   0  0  0  0  0  0  0  0  0  0  0  0
    5.8849   -1.9245    1.6541 C   0  0  1  0  0  0  0  0  0  0  0  0
    5.8173   -0.5240    1.8325 O   0  0  0  0  0  0  0  0  0  0  0  0
    5.3084   -2.6560    2.8826 C   0  0  1  0  0  0  0  0  0  0  0  0
    4.1010   -1.9850    3.6182 C   0  0  1  0  0  0  0  0  0  0  0  0
    3.0971   -1.4667    2.7394 O   0  0  0  0  0  0  0  0  0  0  0  0
    2.6594   -0.1943    2.8743 C   0  0  0  0  0  0  0  0  0  0  0  0
    1.6634    0.2019    1.7850 C   0  0  0  0  0  0  0  0  0  0  0  0
    2.9981    0.5963    3.7593 O   0  0  0  0  0  0  0  0  0  0  0  0
    3.4263   -2.9428    4.6092 C   0  0  0  0  0  0  0  0  0  0  0  0
    3.0960   -4.3033    3.9705 C   0  0  0  0  0  0  0  0  0  0  0  0
    4.3331   -5.0695    3.3866 C   0  0  2  0  0  0  0  0  0  0  0  0
    5.3391   -5.2177    4.5508 C   0  0  0  0  0  0  0  0  0  0  0  0
    5.0382   -4.0791    2.3504 C   0  0  1  0  0  0  0  0  0  0  0  0
    4.4381   -3.7439    0.9546 C   0  0  2  0  0  0  0  0  0  0  0  0
    4.1561   -4.9404    0.0332 C   0  0  0  0  0  0  0  0  0  0  0  0
    2.9450   -5.6636    0.5453 C   0  0  0  0  0  0  0  0  0  0  0  0
    2.7774   -6.2400    1.7657 C   0  0  0  0  0  0  0  0  0  0  0  0
    1.3389   -6.3674    2.2372 C   0  0  0  0  0  0  0  0  0  0  0  0
    0.7163   -7.7285    2.0511 C   0  0  0  0  0  0  0  0  0  0  0  0
    1.0380   -8.6630    3.2097 C   0  0  1  0  0  0  0  0  0  0  0  0
    0.0894   -9.8838    3.0727 C   0  0  0  0  0  0  0  0  0  0  0  0
    2.5718   -8.9727    3.3675 C   0  0  0  0  0  0  0  0  0  0  0  0
    2.6222  -10.1202    4.4331 C   0  0  0  0  0  0  0  0  0  0  0  0
    3.1274   -9.6184    2.0773 C   0  0  0  0  0  0  0  0  0  0  0  0
    3.4522   -7.6908    3.8366 C   0  0  1  0  0  0  0  0  0  0  0  0
    4.6221   -8.2569    4.7099 C   0  0  0  0  0  0  0  0  0  0  0  0
    3.9132   -6.5270    2.7744 C   0  0  2  0  0  0  0  0  0  0  0  0
    5.1531   -7.1324    2.0191 C   0  0  0  0  0  0  0  0  0  0  0  0
    3.6256   -1.7526   -3.7523 H   0  0  0  0  0  0  0  0  0  0  0  0
    3.9195   -0.3054   -2.7783 H   0  0  0  0  0  0  0  0  0  0  0  0
    2.5135   -1.3159   -2.4402 H   0  0  0  0  0  0  0  0  0  0  0  0
    7.0771   -3.9101    0.0906 H   0  0  0  0  0  0  0  0  0  0  0  0
    7.1798   -2.3405   -0.7381 H   0  0  0  0  0  0  0  0  0  0  0  0
    6.2098   -3.6428   -1.3888 H   0  0  0  0  0  0  0  0  0  0  0  0
    6.9634   -2.1147    1.6630 H   0  0  0  0  0  0  0  0  0  0  0  0
    6.6636   -0.1402    1.6752 H   0  0  0  0  0  0  0  0  0  0  0  0
    6.1076   -2.6668    3.6231 H   0  0  0  0  0  0  0  0  0  0  0  0
    4.5219   -1.1687    4.2034 H   0  0  0  0  0  0  0  0  0  0  0  0
    0.8882   -0.5671    1.7175 H   0  0  0  0  0  0  0  0  0  0  0  0
    2.1770    0.2559    0.8011 H   0  0  0  0  0  0  0  0  0  0  0  0
    1.1774    1.1601    2.0198 H   0  0  0  0  0  0  0  0  0  0  0  0
    4.0351   -3.0673    5.5024 H   0  0  0  0  0  0  0  0  0  0  0  0
    2.5083   -2.4761    4.9570 H   0  0  0  0  0  0  0  0  0  0  0  0
    2.5707   -4.9203    4.7043 H   0  0  0  0  0  0  0  0  0  0  0  0
    2.3880   -4.0779    3.1773 H   0  0  0  0  0  0  0  0  0  0  0  0
    6.2199   -5.7860    4.2499 H   0  0  0  0  0  0  0  0  0  0  0  0
    4.8680   -5.6644    5.4246 H   0  0  0  0  0  0  0  0  0  0  0  0
    5.7349   -4.2789    4.9217 H   0  0  0  0  0  0  0  0  0  0  0  0
    6.0372   -4.4793    2.1736 H   0  0  0  0  0  0  0  0  0  0  0  0
    3.4583   -3.2974    1.1338 H   0  0  0  0  0  0  0  0  0  0  0  0
    3.8719   -4.5707   -0.9516 H   0  0  0  0  0  0  0  0  0  0  0  0
    5.0062   -5.5881   -0.1575 H   0  0  0  0  0  0  0  0  0  0  0  0
    2.0762   -5.4875   -0.0670 H   0  0  0  0  0  0  0  0  0  0  0  0
    1.2185   -6.0415    3.2696 H   0  0  0  0  0  0  0  0  0  0  0  0
    0.7332   -5.6701    1.6680 H   0  0  0  0  0  0  0  0  0  0  0  0
   -0.3611   -7.5802    2.0363 H   0  0  0  0  0  0  0  0  0  0  0  0
    0.9580   -8.1628    1.0787 H   0  0  0  0  0  0  0  0  0  0  0  0
    0.7163   -8.1616    4.1276 H   0  0  0  0  0  0  0  0  0  0  0  0
    0.3846  -10.5546    2.2655 H   0  0  0  0  0  0  0  0  0  0  0  0
   -0.9331   -9.5749    2.8635 H   0  0  0  0  0  0  0  0  0  0  0  0
    0.0165  -10.4617    3.9930 H   0  0  0  0  0  0  0  0  0  0  0  0
    3.6138  -10.5312    4.6030 H   0  0  0  0  0  0  0  0  0  0  0  0
    2.0758  -11.0080    4.1263 H   0  0  0  0  0  0  0  0  0  0  0  0
    2.2144   -9.7989    5.3927 H   0  0  0  0  0  0  0  0  0  0  0  0
    4.1818   -9.8672    2.1810 H   0  0  0  0  0  0  0  0  0  0  0  0
    3.0149   -8.9855    1.2002 H   0  0  0  0  0  0  0  0  0  0  0  0
    2.6207  -10.5545    1.8494 H   0  0  0  0  0  0  0  0  0  0  0  0
    2.8170   -7.1735    4.5546 H   0  0  0  0  0  0  0  0  0  0  0  0
    5.1193   -9.0970    4.2224 H   0  0  0  0  0  0  0  0  0  0  0  0
    4.2596   -8.5949    5.6811 H   0  0  0  0  0  0  0  0  0  0  0  0
    5.4361   -7.5999    4.9447 H   0  0  0  0  0  0  0  0  0  0  0  0
    5.8474   -7.6706    2.6542 H   0  0  0  0  0  0  0  0  0  0  0  0
    5.7989   -6.4141    1.5364 H   0  0  0  0  0  0  0  0  0  0  0  0
    4.8589   -7.8207    1.2320 H   0  0  0  0  0  0  0  0  0  0  0  0
  1  2  1  0
  1 35  1  0
  1 36  1  0
  1 37  1  0
  2  3  1  0
  3  4  2  0
  3  5  1  0
  5 20  1  0
  5  6  1  6
  5  7  1  0
  6 38  1  0
  6 39  1  0
  6 40  1  0
  7  8  1  0
  7  9  1  0
  7 41  1  6
  8 42  1  0
  9 19  1  0
  9 10  1  0
  9 43  1  1
 10 11  1  0
 10 15  1  0
 10 44  1  1
 11 12  1  0
 12 13  1  0
 12 14  2  0
 13 45  1  0
 13 46  1  0
 13 47  1  0
 15 16  1  0
 15 48  1  0
 15 49  1  0
 16 17  1  0
 16 50  1  0
 16 51  1  0
 17 33  1  0
 17 18  1  1
 17 19  1  0
 18 52  1  0
 18 53  1  0
 18 54  1  0
 19 20  1  0
 19 55  1  6
 20 21  1  0
 20 56  1  1
 21 22  1  0
 21 57  1  0
 21 58  1  0
 22 23  2  0
 22 59  1  0
 23 33  1  0
 23 24  1  0
 24 25  1  0
 24 60  1  0
 24 61  1  0
 25 26  1  0
 25 62  1  0
 25 63  1  0
 26 27  1  0
 26 28  1  0
 26 64  1  1
 27 65  1  0
 27 66  1  0
 27 67  1  0
 28 29  1  0
 28 30  1  0
 28 31  1  0
 29 68  1  0
 29 69  1  0
 29 70  1  0
 30 71  1  0
 30 72  1  0
 30 73  1  0
 31 32  1  0
 31 33  1  0
 31 74  1  1
 32 75  1  0
 32 76  1  0
 32 77  1  0
 33 34  1  6
 34 78  1  0
 34 79  1  0
 34 80  1  0
M  END
>  <i_m_ct_stereo_status>  (267) 
1

>  <s_m_source_file>  (267) 
/var/tmp/pbs.5076255.sched01/tmpm261n1hm/82shs6bvht.sdf

>  <i_m_source_file_index>  (267) 
35

>  <i_lp_mmshare_version>  (267) 
48012

>  <i_f3d_flags>  (267) 
0

>  <s_epik_input>  (267) 
W0NIM11DKD1PKU9bQ0BASF0oW0NIMl1bQ0gyXTEpW0NAQEhdKFtDQEhdMltDQEBdMTNbQ0gzXSlbQ0BIXShbT0hdKVtDQF0oW0NIM10pKEMoPU8pT1tDSDNdKVtDQEhdMltDSDJdW0NIXT1DNFtDQF0zKFtDSDNdKVtDQEhdKFtDSDNdKUMoW0NIM10pKFtDSDNdKVtDQEhdKFtDSDNdKVtDSDJdW0NIMl00

>  <s_epik_cmdline>  (267) 
J2VwaWtfcHl0aG9uJywgJy1waHQnLCAnMi4wJywgJy1waCcsICc3LjAnLCAnLXRuJywgJzgnLCAnLW1hJywgJzIwMCcsICctaW1hZScsICc8aW5maWxlLm1hZT4nLCAnLW9tYWUnLCAnPG91dGZpbGUubWFlPic=

>  <r_lp_tautomer_probability>  (267) 
1

>  <r_epik_Ionization_Penalty>  (267) 
7.54682e-08

>  <r_epik_Ionization_Penalty_Charging>  (267) 
0

>  <r_epik_Ionization_Penalty_Neutral>  (267) 
7.54682e-08

>  <r_epik_State_Penalty>  (267) 
-0

>  <r_epik_Charging_Adjusted_Penalty>  (267) 
0

>  <i_epik_Tot_Q>  (267) 
0

>  <i_epik_Tot_abs_Q>  (267) 
0

>  <s_epik_Chemistry_Notes>  (267) 
This compound has an ester and may undergo hydrolysis at high or low pH.

>  <s_lp_Force_Field>  (267) 
OPLS3e

>  <r_lp_Energy>  (267) 
105.898

>  <b_lp_Chiralities_Consistent>  (267) 
1

>  <s_lp_Variant>  (267) 
82:0-1

>  <s_i_glide_gridfile>  (267) 
pfpi4k_grid

>  <i_i_glide_lignum>  (267) 
35

>  <i_i_glide_rotatable_bonds>  (267) 
5

>  <r_i_docking_score>  (267) 
-2.29548

>  <r_i_glide_ligand_efficiency>  (267) 
-0.067514

>  <r_i_glide_ligand_efficiency_sa>  (267) 
-0.218719

>  <r_i_glide_ligand_efficiency_ln>  (267) 
-0.507135

>  <r_i_glide_gscore>  (267) 
-2.29548

>  <r_i_glide_lipo>  (267) 
-0.371453

>  <r_i_glide_hbond>  (267) 
0

>  <r_i_glide_metal>  (267) 
-0

>  <r_i_glide_rewards>  (267) 
-0.172687

>  <r_i_glide_evdw>  (267) 
-33.6089

>  <r_i_glide_ecoul>  (267) 
-1.41336

>  <r_i_glide_erotb>  (267) 
0.179631

>  <r_i_glide_esite>  (267) 
-0.0385216

>  <r_i_glide_emodel>  (267) 
-37.5663

>  <r_i_glide_energy>  (267) 
-35.0222

>  <r_i_glide_einternal>  (267) 
3.31645

>  <r_i_glide_intrahb_reward>  (267) 
-0

>  <i_i_glide_confnum>  (267) 
1

>  <i_i_glide_posenum>  (267) 
27

>  <r_i_glide_eff_state_penalty>  (267) 
0

>  <ligand_id>  (267) 
82

>  <original_smiles>  (267) 
COC(=O)C1(C)C(O)C2C(OC(C)=O)CCC3(C)C2C1CC=C1CCC(C)C(C)(C)C(C)C13C

>  <smiles>  (267) 
[H]OC1([H])C2([H])C([H])(OC(=O)C([H])([H])[H])C([H])([H])C([H])([H])C3(C([H])([H])[H])C2([H])C([H])(C([H])([H])C([H])=C2C([H])([H])C([H])([H])C([H])(C([H])([H])[H])C(C([H])([H])[H])(C([H])([H])[H])C([H])(C([H])([H])[H])C23C([H])([H])[H])C1(C(=O)OC([H])([H])[H])C([H])([H])[H]

$$$$
83:0:0
     RDKit          3D

 67 71  0  0  1  0  0  0  0  0999 V2000
    7.2004   -7.4078    3.4342 C   0  0  0  0  0  0  0  0  0  0  0  0
    6.2539   -7.5287    2.2192 C   0  0  2  0  0  0  0  0  0  0  0  0
    6.0279   -6.2026    1.4920 C   0  0  0  0  0  0  0  0  0  0  0  0
    4.5588   -6.3359    1.0700 C   0  0  1  0  0  0  0  0  0  0  0  0
    4.1520   -5.4981   -0.1340 C   0  0  0  0  0  0  0  0  0  0  0  0
    4.3775   -4.0086    0.0419 C   0  0  2  0  0  0  0  0  0  0  0  0
    3.3167   -3.2690    0.6624 O   0  0  0  0  0  0  0  0  0  0  0  0
    3.5865   -2.9807   -0.7223 C   0  0  0  0  0  0  0  0  0  0  0  0
    4.1840   -1.6230   -1.0188 C   0  0  0  0  0  0  0  0  0  0  0  0
    2.5028   -3.3862   -1.7039 C   0  0  0  0  0  0  0  0  0  0  0  0
    4.3927   -7.8310    0.8649 C   0  0  0  0  0  0  0  0  0  0  0  0
    4.7983   -8.1348    2.2936 C   0  0  1  0  0  0  0  0  0  0  0  0
    4.6684   -9.6041    2.6937 C   0  0  1  0  0  0  0  0  0  0  0  0
    5.2914   -9.8363    3.9422 O   0  0  0  0  0  0  0  0  0  0  0  0
    3.2019  -10.0568    2.7861 C   0  0  1  0  0  0  0  0  0  0  0  0
    3.3199  -11.4635    2.8775 O   0  0  0  0  0  0  0  0  0  0  0  0
    2.3981   -9.2603    3.8941 C   0  0  2  0  0  0  0  0  0  0  0  0
    0.9797   -9.8879    4.2734 C   0  0  0  0  0  0  0  0  0  0  0  0
    1.0786  -11.3907    4.6486 C   0  0  0  0  0  0  0  0  0  0  0  0
    0.3328   -9.2420    5.5352 C   0  0  0  0  0  0  0  0  0  0  0  0
    0.0465   -9.7409    3.0482 C   0  0  0  0  0  0  0  0  0  0  0  0
   -0.0915   -8.2934    2.5555 C   0  0  0  0  0  0  0  0  0  0  0  0
    1.2678   -7.6260    2.2582 C   0  0  1  0  0  0  0  0  0  0  0  0
    1.0007   -6.2786    1.8857 O   0  0  0  0  0  0  0  0  0  0  0  0
    2.3218   -7.7353    3.4373 C   0  0  1  0  0  0  0  0  0  0  0  0
    1.8207   -6.7708    4.5715 C   0  0  0  0  0  0  0  0  0  0  0  0
    3.8142   -7.2062    3.0834 C   0  0  1  0  0  0  0  0  0  0  0  0
    4.4551   -6.8371    4.2872 O   0  0  0  0  0  0  0  0  0  0  0  0
    3.7125   -6.1054    2.2066 O   0  0  0  0  0  0  0  0  0  0  0  0
    6.8882   -6.6524    4.1514 H   0  0  0  0  0  0  0  0  0  0  0  0
    8.1873   -7.1006    3.0836 H   0  0  0  0  0  0  0  0  0  0  0  0
    7.3362   -8.3556    3.9539 H   0  0  0  0  0  0  0  0  0  0  0  0
    6.8010   -8.1831    1.5328 H   0  0  0  0  0  0  0  0  0  0  0  0
    6.1757   -5.3286    2.1268 H   0  0  0  0  0  0  0  0  0  0  0  0
    6.6924   -6.1329    0.6258 H   0  0  0  0  0  0  0  0  0  0  0  0
    4.7055   -5.8212   -1.0153 H   0  0  0  0  0  0  0  0  0  0  0  0
    3.0979   -5.6979   -0.3163 H   0  0  0  0  0  0  0  0  0  0  0  0
    5.3833   -3.7157    0.3484 H   0  0  0  0  0  0  0  0  0  0  0  0
    4.6861   -1.6394   -1.9859 H   0  0  0  0  0  0  0  0  0  0  0  0
    4.9093   -1.3412   -0.2526 H   0  0  0  0  0  0  0  0  0  0  0  0
    3.3992   -0.8678   -1.0471 H   0  0  0  0  0  0  0  0  0  0  0  0
    2.9664   -3.7325   -2.6262 H   0  0  0  0  0  0  0  0  0  0  0  0
    1.8497   -2.5504   -1.9490 H   0  0  0  0  0  0  0  0  0  0  0  0
    1.8895   -4.1820   -1.2857 H   0  0  0  0  0  0  0  0  0  0  0  0
    3.4088   -8.1429    0.5698 H   0  0  0  0  0  0  0  0  0  0  0  0
    5.0601   -8.2501    0.1129 H   0  0  0  0  0  0  0  0  0  0  0  0
    5.1972  -10.2060    1.9486 H   0  0  0  0  0  0  0  0  0  0  0  0
    5.1794  -10.7583    4.1210 H   0  0  0  0  0  0  0  0  0  0  0  0
    2.7201   -9.9180    1.8231 H   0  0  0  0  0  0  0  0  0  0  0  0
    3.5513  -11.8002    2.0056 H   0  0  0  0  0  0  0  0  0  0  0  0
    2.9808   -9.2983    4.8189 H   0  0  0  0  0  0  0  0  0  0  0  0
    0.2111  -11.7399    5.2078 H   0  0  0  0  0  0  0  0  0  0  0  0
    1.9476  -11.5897    5.2792 H   0  0  0  0  0  0  0  0  0  0  0  0
    1.1213  -12.0368    3.7744 H   0  0  0  0  0  0  0  0  0  0  0  0
   -0.3424   -9.9184    6.0606 H   0  0  0  0  0  0  0  0  0  0  0  0
   -0.3062   -8.3953    5.3029 H   0  0  0  0  0  0  0  0  0  0  0  0
    1.0782   -8.9398    6.2718 H   0  0  0  0  0  0  0  0  0  0  0  0
    0.4304  -10.3461    2.2287 H   0  0  0  0  0  0  0  0  0  0  0  0
   -0.9342  -10.1491    3.2798 H   0  0  0  0  0  0  0  0  0  0  0  0
   -0.6934   -8.2992    1.6437 H   0  0  0  0  0  0  0  0  0  0  0  0
   -0.6688   -7.7049    3.2634 H   0  0  0  0  0  0  0  0  0  0  0  0
    1.6018   -8.1191    1.3595 H   0  0  0  0  0  0  0  0  0  0  0  0
    1.8394   -5.8431    1.8095 H   0  0  0  0  0  0  0  0  0  0  0  0
    2.1245   -5.7398    4.3771 H   0  0  0  0  0  0  0  0  0  0  0  0
    2.2378   -7.0442    5.5423 H   0  0  0  0  0  0  0  0  0  0  0  0
    0.7414   -6.7231    4.6683 H   0  0  0  0  0  0  0  0  0  0  0  0
    4.7481   -7.6367    4.7073 H   0  0  0  0  0  0  0  0  0  0  0  0
  1  2  1  0
  1 30  1  0
  1 31  1  0
  1 32  1  0
  2 12  1  0
  2  3  1  0
  2 33  1  6
  3  4  1  0
  3 34  1  0
  3 35  1  0
  4 29  1  0
  4  5  1  6
  4 11  1  0
  5  6  1  0
  5 36  1  0
  5 37  1  0
  6  8  1  0
  6  7  1  0
  6 38  1  1
  7  8  1  0
  8  9  1  0
  8 10  1  0
  9 39  1  0
  9 40  1  0
  9 41  1  0
 10 42  1  0
 10 43  1  0
 10 44  1  0
 12 11  1  6
 11 45  1  0
 11 46  1  0
 12 27  1  0
 12 13  1  0
 13 14  1  0
 13 15  1  0
 13 47  1  6
 14 48  1  0
 15 16  1  0
 15 17  1  0
 15 49  1  6
 16 50  1  0
 17 25  1  0
 17 18  1  0
 17 51  1  1
 18 19  1  0
 18 20  1  0
 18 21  1  0
 19 52  1  0
 19 53  1  0
 19 54  1  0
 20 55  1  0
 20 56  1  0
 20 57  1  0
 21 22  1  0
 21 58  1  0
 21 59  1  0
 22 23  1  0
 22 60  1  0
 22 61  1  0
 23 24  1  0
 23 25  1  0
 23 62  1  6
 24 63  1  0
 25 26  1  1
 25 27  1  0
 26 64  1  0
 26 65  1  0
 26 66  1  0
 27 28  1  1
 27 29  1  0
 28 67  1  0
M  END
>  <i_m_ct_stereo_status>  (268) 
1

>  <s_m_source_file>  (268) 
/var/tmp/pbs.5076255.sched01/tmpm261n1hm/82shs6bvht.sdf

>  <i_m_source_file_index>  (268) 
36

>  <i_lp_mmshare_version>  (268) 
48012

>  <i_f3d_flags>  (268) 
0

>  <s_epik_input>  (268) 
W0NIM11DMShbQ0gzXSlbQ0BASF0oTzEpW0NIMl1bQ0BAXShbQ0gyXTIpKFtDSDJdW0NASF0zW0NIM10pT1tDQEBdKFtDQEBdMjM0KShbT0hdKVtDQF01KFtDSDNdKVtDQEhdKFtDQEhdKFtPSF0pW0NAQEhdNFtPSF0pQyhbQ0gzXSkoW0NIM10pW0NIMl1bQ0gyXVtDQEhdNVtPSF0=

>  <s_epik_cmdline>  (268) 
J2VwaWtfcHl0aG9uJywgJy1waHQnLCAnMi4wJywgJy1waCcsICc3LjAnLCAnLXRuJywgJzgnLCAnLW1hJywgJzIwMCcsICctaW1hZScsICc8aW5maWxlLm1hZT4nLCAnLW9tYWUnLCAnPG91dGZpbGUubWFlPic=

>  <r_lp_tautomer_probability>  (268) 
1

>  <r_epik_Ionization_Penalty>  (268) 
8.68933e-07

>  <r_epik_Ionization_Penalty_Charging>  (268) 
0

>  <r_epik_Ionization_Penalty_Neutral>  (268) 
8.68933e-07

>  <r_epik_State_Penalty>  (268) 
-0

>  <r_epik_Charging_Adjusted_Penalty>  (268) 
0

>  <i_epik_Tot_Q>  (268) 
0

>  <i_epik_Tot_abs_Q>  (268) 
0

>  <s_lp_Force_Field>  (268) 
OPLS3e

>  <r_lp_Energy>  (268) 
82.1828

>  <b_lp_Chiralities_Consistent>  (268) 
1

>  <s_lp_Variant>  (268) 
83:0-1

>  <s_i_glide_gridfile>  (268) 
pfpi4k_grid

>  <i_i_glide_lignum>  (268) 
36

>  <i_i_glide_rotatable_bonds>  (268) 
6

>  <r_i_docking_score>  (268) 
-3.77973

>  <r_i_glide_ligand_efficiency>  (268) 
-0.130336

>  <r_i_glide_ligand_efficiency_sa>  (268) 
-0.400432

>  <r_i_glide_ligand_efficiency_ln>  (268) 
-0.865463

>  <r_i_glide_gscore>  (268) 
-3.77973

>  <r_i_glide_lipo>  (268) 
-0.43154

>  <r_i_glide_hbond>  (268) 
0

>  <r_i_glide_metal>  (268) 
-0

>  <r_i_glide_rewards>  (268) 
-1.60993

>  <r_i_glide_evdw>  (268) 
-23.8271

>  <r_i_glide_ecoul>  (268) 
-5.2046

>  <r_i_glide_erotb>  (268) 
0.233778

>  <r_i_glide_esite>  (268) 
0

>  <r_i_glide_emodel>  (268) 
-45.2524

>  <r_i_glide_energy>  (268) 
-29.0317

>  <r_i_glide_einternal>  (268) 
3.33714

>  <r_i_glide_intrahb_reward>  (268) 
-1

>  <i_i_glide_confnum>  (268) 
3

>  <i_i_glide_posenum>  (268) 
32

>  <r_i_glide_eff_state_penalty>  (268) 
0

>  <ligand_id>  (268) 
83

>  <original_smiles>  (268) 
CC1CC2(CC3OC3(C)C)CC13C(O)C(O)C1C(C)(C)CCC(O)C1(C)C3(O)O2

>  <smiles>  (268) 
[H]OC1([H])C([H])(O[H])C23C([H])([H])C(C([H])([H])C4([H])OC4(C([H])([H])[H])C([H])([H])[H])(OC2(O[H])C2(C([H])([H])[H])C([H])(O[H])C([H])([H])C([H])([H])C(C([H])([H])[H])(C([H])([H])[H])C12[H])C([H])([H])C3([H])C([H])([H])[H]

$$$$
83:0:1
     RDKit          3D

 67 71  0  0  1  0  0  0  0  0999 V2000
    7.1991   -7.3742    3.4564 C   0  0  0  0  0  0  0  0  0  0  0  0
    6.2535   -7.4940    2.2410 C   0  0  2  0  0  0  0  0  0  0  0  0
    6.0082   -6.1628    1.5219 C   0  0  0  0  0  0  0  0  0  0  0  0
    4.5403   -6.3067    1.1035 C   0  0  1  0  0  0  0  0  0  0  0  0
    4.1247   -5.4613   -0.0940 C   0  0  0  0  0  0  0  0  0  0  0  0
    4.2816   -3.9708    0.1221 C   0  0  2  0  0  0  0  0  0  0  0  0
    3.1599   -3.2833    0.6938 O   0  0  0  0  0  0  0  0  0  0  0  0
    3.4977   -2.9600   -0.6674 C   0  0  0  0  0  0  0  0  0  0  0  0
    4.0518   -1.5720   -0.9057 C   0  0  0  0  0  0  0  0  0  0  0  0
    2.4899   -3.3904   -1.7131 C   0  0  0  0  0  0  0  0  0  0  0  0
    4.3919   -7.8049    0.8903 C   0  0  0  0  0  0  0  0  0  0  0  0
    4.8048   -8.1143    2.3156 C   0  0  1  0  0  0  0  0  0  0  0  0
    4.6875   -9.5924    2.7050 C   0  0  1  0  0  0  0  0  0  0  0  0
    5.3348   -9.8580    3.9300 O   0  0  0  0  0  0  0  0  0  0  0  0
    3.2213  -10.0518    2.8013 C   0  0  1  0  0  0  0  0  0  0  0  0
    3.3385  -11.4597    2.8758 O   0  0  0  0  0  0  0  0  0  0  0  0
    2.4117   -9.2678    3.9155 C   0  0  2  0  0  0  0  0  0  0  0  0
    0.9952   -9.9060    4.2793 C   0  0  0  0  0  0  0  0  0  0  0  0
    1.0945  -11.4121    4.6465 C   0  0  0  0  0  0  0  0  0  0  0  0
    0.3407   -9.2741    5.5478 C   0  0  0  0  0  0  0  0  0  0  0  0
    0.0611   -9.7597    3.0569 C   0  0  0  0  0  0  0  0  0  0  0  0
   -0.0867   -8.3086    2.5784 C   0  0  0  0  0  0  0  0  0  0  0  0
    1.2657   -7.6264    2.2888 C   0  0  1  0  0  0  0  0  0  0  0  0
    0.9855   -6.2769    1.9344 O   0  0  0  0  0  0  0  0  0  0  0  0
    2.3196   -7.7391    3.4651 C   0  0  1  0  0  0  0  0  0  0  0  0
    1.8141   -6.7858    4.6061 C   0  0  0  0  0  0  0  0  0  0  0  0
    3.8079   -7.1938    3.1073 C   0  0  1  0  0  0  0  0  0  0  0  0
    4.4296   -6.7950    4.3147 O   0  0  0  0  0  0  0  0  0  0  0  0
    3.6912   -6.0921    2.2366 O   0  0  0  0  0  0  0  0  0  0  0  0
    6.8768   -6.6290    4.1825 H   0  0  0  0  0  0  0  0  0  0  0  0
    8.1829   -7.0550    3.1103 H   0  0  0  0  0  0  0  0  0  0  0  0
    7.3382   -8.3240    3.9686 H   0  0  0  0  0  0  0  0  0  0  0  0
    6.8035   -8.1393    1.5493 H   0  0  0  0  0  0  0  0  0  0  0  0
    6.1510   -5.2937    2.1645 H   0  0  0  0  0  0  0  0  0  0  0  0
    6.6729   -6.0801    0.6569 H   0  0  0  0  0  0  0  0  0  0  0  0
    4.7131   -5.7420   -0.9699 H   0  0  0  0  0  0  0  0  0  0  0  0
    3.0849   -5.6952   -0.3100 H   0  0  0  0  0  0  0  0  0  0  0  0
    5.2538   -3.6412    0.4931 H   0  0  0  0  0  0  0  0  0  0  0  0
    4.6080   -1.5483   -1.8433 H   0  0  0  0  0  0  0  0  0  0  0  0
    4.7189   -1.2747   -0.0947 H   0  0  0  0  0  0  0  0  0  0  0  0
    3.2376   -0.8488   -0.9685 H   0  0  0  0  0  0  0  0  0  0  0  0
    3.0106   -3.6856   -2.6226 H   0  0  0  0  0  0  0  0  0  0  0  0
    1.8178   -2.5791   -1.9655 H   0  0  0  0  0  0  0  0  0  0  0  0
    1.8835   -4.2204   -1.3500 H   0  0  0  0  0  0  0  0  0  0  0  0
    3.4100   -8.1234    0.5935 H   0  0  0  0  0  0  0  0  0  0  0  0
    5.0601   -8.2095    0.1321 H   0  0  0  0  0  0  0  0  0  0  0  0
    5.2043  -10.1773    1.9411 H   0  0  0  0  0  0  0  0  0  0  0  0
    5.1807  -10.7750    4.1182 H   0  0  0  0  0  0  0  0  0  0  0  0
    2.7355   -9.9066    1.8370 H   0  0  0  0  0  0  0  0  0  0  0  0
    3.5720  -11.7881    2.0091 H   0  0  0  0  0  0  0  0  0  0  0  0
    2.9974   -9.3069    4.8342 H   0  0  0  0  0  0  0  0  0  0  0  0
    0.2172  -11.7703    5.1918 H   0  0  0  0  0  0  0  0  0  0  0  0
    1.9548  -11.6139    5.2866 H   0  0  0  0  0  0  0  0  0  0  0  0
    1.1454  -12.0529    3.7700 H   0  0  0  0  0  0  0  0  0  0  0  0
   -0.3287   -9.9595    6.0691 H   0  0  0  0  0  0  0  0  0  0  0  0
   -0.3066   -8.4305    5.3252 H   0  0  0  0  0  0  0  0  0  0  0  0
    1.0826   -8.9729    6.2874 H   0  0  0  0  0  0  0  0  0  0  0  0
    0.4497  -10.3543    2.2333 H   0  0  0  0  0  0  0  0  0  0  0  0
   -0.9189  -10.1778    3.2828 H   0  0  0  0  0  0  0  0  0  0  0  0
   -0.6869   -8.3129    1.6663 H   0  0  0  0  0  0  0  0  0  0  0  0
   -0.6738   -7.7302    3.2900 H   0  0  0  0  0  0  0  0  0  0  0  0
    1.6034   -8.1074    1.3865 H   0  0  0  0  0  0  0  0  0  0  0  0
    1.8229   -5.8391    1.8386 H   0  0  0  0  0  0  0  0  0  0  0  0
    2.0952   -5.7455    4.4182 H   0  0  0  0  0  0  0  0  0  0  0  0
    2.2293   -7.0638    5.5793 H   0  0  0  0  0  0  0  0  0  0  0  0
    0.7340   -6.7529    4.7010 H   0  0  0  0  0  0  0  0  0  0  0  0
    3.8185   -6.2364    4.7760 H   0  0  0  0  0  0  0  0  0  0  0  0
  1  2  1  0
  1 30  1  0
  1 31  1  0
  1 32  1  0
  2 12  1  0
  2  3  1  0
  2 33  1  6
  3  4  1  0
  3 34  1  0
  3 35  1  0
  4 29  1  0
  4  5  1  6
  4 11  1  0
  5  6  1  0
  5 36  1  0
  5 37  1  0
  6  8  1  0
  6  7  1  0
  6 38  1  1
  7  8  1  0
  8  9  1  0
  8 10  1  0
  9 39  1  0
  9 40  1  0
  9 41  1  0
 10 42  1  0
 10 43  1  0
 10 44  1  0
 12 11  1  6
 11 45  1  0
 11 46  1  0
 12 27  1  0
 12 13  1  0
 13 14  1  0
 13 15  1  0
 13 47  1  6
 14 48  1  0
 15 16  1  0
 15 17  1  0
 15 49  1  6
 16 50  1  0
 17 25  1  0
 17 18  1  0
 17 51  1  1
 18 19  1  0
 18 20  1  0
 18 21  1  0
 19 52  1  0
 19 53  1  0
 19 54  1  0
 20 55  1  0
 20 56  1  0
 20 57  1  0
 21 22  1  0
 21 58  1  0
 21 59  1  0
 22 23  1  0
 22 60  1  0
 22 61  1  0
 23 24  1  0
 23 25  1  0
 23 62  1  6
 24 63  1  0
 25 26  1  1
 25 27  1  0
 26 64  1  0
 26 65  1  0
 26 66  1  0
 27 28  1  1
 27 29  1  0
 28 67  1  0
M  END
>  <i_m_ct_stereo_status>  (269) 
1

>  <s_m_source_file>  (269) 
/var/tmp/pbs.5076255.sched01/tmpm261n1hm/82shs6bvht.sdf

>  <i_m_source_file_index>  (269) 
36

>  <i_lp_mmshare_version>  (269) 
48012

>  <i_f3d_flags>  (269) 
0

>  <s_epik_input>  (269) 
W0NIM11DMShbQ0gzXSlbQ0BASF0oTzEpW0NIMl1bQ0BAXShbQ0gyXTIpKFtDSDJdW0NASF0zW0NIM10pT1tDQEBdKFtDQEBdMjM0KShbT0hdKVtDQF01KFtDSDNdKVtDQEhdKFtDQEhdKFtPSF0pW0NAQEhdNFtPSF0pQyhbQ0gzXSkoW0NIM10pW0NIMl1bQ0gyXVtDQEhdNVtPSF0=

>  <s_epik_cmdline>  (269) 
J2VwaWtfcHl0aG9uJywgJy1waHQnLCAnMi4wJywgJy1waCcsICc3LjAnLCAnLXRuJywgJzgnLCAnLW1hJywgJzIwMCcsICctaW1hZScsICc8aW5maWxlLm1hZT4nLCAnLW9tYWUnLCAnPG91dGZpbGUubWFlPic=

>  <r_lp_tautomer_probability>  (269) 
1

>  <r_epik_Ionization_Penalty>  (269) 
8.68933e-07

>  <r_epik_Ionization_Penalty_Charging>  (269) 
0

>  <r_epik_Ionization_Penalty_Neutral>  (269) 
8.68933e-07

>  <r_epik_State_Penalty>  (269) 
-0

>  <r_epik_Charging_Adjusted_Penalty>  (269) 
0

>  <i_epik_Tot_Q>  (269) 
0

>  <i_epik_Tot_abs_Q>  (269) 
0

>  <s_lp_Force_Field>  (269) 
OPLS3e

>  <r_lp_Energy>  (269) 
82.1828

>  <b_lp_Chiralities_Consistent>  (269) 
1

>  <s_lp_Variant>  (269) 
83:0-1

>  <s_i_glide_gridfile>  (269) 
pfpi4k_grid

>  <i_i_glide_lignum>  (269) 
36

>  <i_i_glide_rotatable_bonds>  (269) 
6

>  <r_i_docking_score>  (269) 
-3.25589

>  <r_i_glide_ligand_efficiency>  (269) 
-0.112272

>  <r_i_glide_ligand_efficiency_sa>  (269) 
-0.344935

>  <r_i_glide_ligand_efficiency_ln>  (269) 
-0.745516

>  <r_i_glide_gscore>  (269) 
-3.25589

>  <r_i_glide_lipo>  (269) 
-0.425266

>  <r_i_glide_hbond>  (269) 
0

>  <r_i_glide_metal>  (269) 
-0

>  <r_i_glide_rewards>  (269) 
-1.10993

>  <r_i_glide_evdw>  (269) 
-23.747

>  <r_i_glide_ecoul>  (269) 
-5.11417

>  <r_i_glide_erotb>  (269) 
0.233778

>  <r_i_glide_esite>  (269) 
0

>  <r_i_glide_emodel>  (269) 
-39.692

>  <r_i_glide_energy>  (269) 
-28.8612

>  <r_i_glide_einternal>  (269) 
1.75099

>  <r_i_glide_intrahb_reward>  (269) 
-0.5

>  <i_i_glide_confnum>  (269) 
6

>  <i_i_glide_posenum>  (269) 
11

>  <r_i_glide_eff_state_penalty>  (269) 
0

>  <ligand_id>  (269) 
83

>  <original_smiles>  (269) 
CC1CC2(CC3OC3(C)C)CC13C(O)C(O)C1C(C)(C)CCC(O)C1(C)C3(O)O2

>  <smiles>  (269) 
[H]OC1([H])C([H])(O[H])C23C([H])([H])C(C([H])([H])C4([H])OC4(C([H])([H])[H])C([H])([H])[H])(OC2(O[H])C2(C([H])([H])[H])C([H])(O[H])C([H])([H])C([H])([H])C(C([H])([H])[H])(C([H])([H])[H])C12[H])C([H])([H])C3([H])C([H])([H])[H]

$$$$
83:0:2
     RDKit          3D

 67 71  0  0  1  0  0  0  0  0999 V2000
    7.2082   -7.3880    3.4582 C   0  0  0  0  0  0  0  0  0  0  0  0
    6.2576   -7.5088    2.2424 C   0  0  2  0  0  0  0  0  0  0  0  0
    6.0276   -6.1850    1.5133 C   0  0  0  0  0  0  0  0  0  0  0  0
    4.5614   -6.3240    1.0832 C   0  0  1  0  0  0  0  0  0  0  0  0
    4.1583   -5.4784   -0.1157 C   0  0  0  0  0  0  0  0  0  0  0  0
    4.3455   -3.9864    0.0894 C   0  0  2  0  0  0  0  0  0  0  0  0
    3.2496   -3.2758    0.6822 O   0  0  0  0  0  0  0  0  0  0  0  0
    3.5567   -2.9678   -0.6885 C   0  0  0  0  0  0  0  0  0  0  0  0
    4.1340   -1.5929   -0.9547 C   0  0  0  0  0  0  0  0  0  0  0  0
    2.5152   -3.3842   -1.7065 C   0  0  0  0  0  0  0  0  0  0  0  0
    4.4016   -7.8188    0.8775 C   0  0  0  0  0  0  0  0  0  0  0  0
    4.8081   -8.1262    2.3088 C   0  0  1  0  0  0  0  0  0  0  0  0
    4.6877   -9.6063    2.7070 C   0  0  1  0  0  0  0  0  0  0  0  0
    5.3515   -9.8483    3.9343 O   0  0  0  0  0  0  0  0  0  0  0  0
    3.2187  -10.0568    2.8001 C   0  0  1  0  0  0  0  0  0  0  0  0
    3.3053  -11.4572    2.8803 O   0  0  0  0  0  0  0  0  0  0  0  0
    2.4087   -9.2604    3.9058 C   0  0  2  0  0  0  0  0  0  0  0  0
    0.9920   -9.8952    4.2768 C   0  0  0  0  0  0  0  0  0  0  0  0
    1.0866  -11.3994    4.6518 C   0  0  0  0  0  0  0  0  0  0  0  0
    0.3355   -9.2560    5.5386 C   0  0  0  0  0  0  0  0  0  0  0  0
    0.0586   -9.7469    3.0512 C   0  0  0  0  0  0  0  0  0  0  0  0
   -0.0857   -8.2994    2.5626 C   0  0  0  0  0  0  0  0  0  0  0  0
    1.2691   -7.6244    2.2710 C   0  0  1  0  0  0  0  0  0  0  0  0
    0.9966   -6.2791    1.9052 O   0  0  0  0  0  0  0  0  0  0  0  0
    2.3242   -7.7332    3.4511 C   0  0  1  0  0  0  0  0  0  0  0  0
    1.8271   -6.7750    4.5883 C   0  0  0  0  0  0  0  0  0  0  0  0
    3.8135   -7.2010    3.0901 C   0  0  1  0  0  0  0  0  0  0  0  0
    4.4531   -6.8247    4.2922 O   0  0  0  0  0  0  0  0  0  0  0  0
    3.7079   -6.1022    2.2170 O   0  0  0  0  0  0  0  0  0  0  0  0
    6.9154   -6.6328    4.1874 H   0  0  0  0  0  0  0  0  0  0  0  0
    8.1945   -7.0847    3.1038 H   0  0  0  0  0  0  0  0  0  0  0  0
    7.3491   -8.3371    3.9742 H   0  0  0  0  0  0  0  0  0  0  0  0
    6.8081   -8.1567    1.5570 H   0  0  0  0  0  0  0  0  0  0  0  0
    6.1732   -5.3081    2.1482 H   0  0  0  0  0  0  0  0  0  0  0  0
    6.6954   -6.1100    0.6525 H   0  0  0  0  0  0  0  0  0  0  0  0
    4.7311   -5.7752   -0.9937 H   0  0  0  0  0  0  0  0  0  0  0  0
    3.1109   -5.6979   -0.3105 H   0  0  0  0  0  0  0  0  0  0  0  0
    5.3329   -3.6756    0.4304 H   0  0  0  0  0  0  0  0  0  0  0  0
    4.6699   -1.5892   -1.9048 H   0  0  0  0  0  0  0  0  0  0  0  0
    4.8262   -1.3031   -0.1623 H   0  0  0  0  0  0  0  0  0  0  0  0
    3.3348   -0.8540   -1.0033 H   0  0  0  0  0  0  0  0  0  0  0  0
    3.0109   -3.7091   -2.6209 H   0  0  0  0  0  0  0  0  0  0  0  0
    1.8481   -2.5606   -1.9498 H   0  0  0  0  0  0  0  0  0  0  0  0
    1.9043   -4.1988   -1.3194 H   0  0  0  0  0  0  0  0  0  0  0  0
    3.4190   -8.1282    0.5774 H   0  0  0  0  0  0  0  0  0  0  0  0
    5.0653   -8.2349    0.1249 H   0  0  0  0  0  0  0  0  0  0  0  0
    5.2040  -10.1975    1.9473 H   0  0  0  0  0  0  0  0  0  0  0  0
    4.8433   -9.4567    4.6270 H   0  0  0  0  0  0  0  0  0  0  0  0
    2.7406   -9.8984    1.8379 H   0  0  0  0  0  0  0  0  0  0  0  0
    3.5802  -11.7864    2.0234 H   0  0  0  0  0  0  0  0  0  0  0  0
    2.9887   -9.3001    4.8304 H   0  0  0  0  0  0  0  0  0  0  0  0
    0.2158  -11.7535    5.2053 H   0  0  0  0  0  0  0  0  0  0  0  0
    1.9538  -11.6011    5.2831 H   0  0  0  0  0  0  0  0  0  0  0  0
    1.1273  -12.0436    3.7765 H   0  0  0  0  0  0  0  0  0  0  0  0
   -0.3369   -9.9369    6.0619 H   0  0  0  0  0  0  0  0  0  0  0  0
   -0.3071   -8.4107    5.3064 H   0  0  0  0  0  0  0  0  0  0  0  0
    1.0784   -8.9500    6.2771 H   0  0  0  0  0  0  0  0  0  0  0  0
    0.4474  -10.3479    2.2305 H   0  0  0  0  0  0  0  0  0  0  0  0
   -0.9203  -10.1624    3.2780 H   0  0  0  0  0  0  0  0  0  0  0  0
   -0.6799   -8.3047    1.6490 H   0  0  0  0  0  0  0  0  0  0  0  0
   -0.6666   -7.7176    3.2696 H   0  0  0  0  0  0  0  0  0  0  0  0
    1.6099   -8.1132    1.3731 H   0  0  0  0  0  0  0  0  0  0  0  0
    1.8370   -5.8400    1.8189 H   0  0  0  0  0  0  0  0  0  0  0  0
    2.1235   -5.7407    4.4009 H   0  0  0  0  0  0  0  0  0  0  0  0
    2.2430   -7.0525    5.5594 H   0  0  0  0  0  0  0  0  0  0  0  0
    0.7474   -6.7346    4.6853 H   0  0  0  0  0  0  0  0  0  0  0  0
    5.3509   -6.6179    4.0743 H   0  0  0  0  0  0  0  0  0  0  0  0
  1  2  1  0
  1 30  1  0
  1 31  1  0
  1 32  1  0
  2 12  1  0
  2  3  1  0
  2 33  1  6
  3  4  1  0
  3 34  1  0
  3 35  1  0
  4 29  1  0
  4  5  1  6
  4 11  1  0
  5  6  1  0
  5 36  1  0
  5 37  1  0
  6  8  1  0
  6  7  1  0
  6 38  1  1
  7  8  1  0
  8  9  1  0
  8 10  1  0
  9 39  1  0
  9 40  1  0
  9 41  1  0
 10 42  1  0
 10 43  1  0
 10 44  1  0
 12 11  1  6
 11 45  1  0
 11 46  1  0
 12 27  1  0
 12 13  1  0
 13 14  1  0
 13 15  1  0
 13 47  1  6
 14 48  1  0
 15 16  1  0
 15 17  1  0
 15 49  1  6
 16 50  1  0
 17 25  1  0
 17 18  1  0
 17 51  1  1
 18 19  1  0
 18 20  1  0
 18 21  1  0
 19 52  1  0
 19 53  1  0
 19 54  1  0
 20 55  1  0
 20 56  1  0
 20 57  1  0
 21 22  1  0
 21 58  1  0
 21 59  1  0
 22 23  1  0
 22 60  1  0
 22 61  1  0
 23 24  1  0
 23 25  1  0
 23 62  1  6
 24 63  1  0
 25 26  1  1
 25 27  1  0
 26 64  1  0
 26 65  1  0
 26 66  1  0
 27 28  1  1
 27 29  1  0
 28 67  1  0
M  END
>  <i_m_ct_stereo_status>  (270) 
1

>  <s_m_source_file>  (270) 
/var/tmp/pbs.5076255.sched01/tmpm261n1hm/82shs6bvht.sdf

>  <i_m_source_file_index>  (270) 
36

>  <i_lp_mmshare_version>  (270) 
48012

>  <i_f3d_flags>  (270) 
0

>  <s_epik_input>  (270) 
W0NIM11DMShbQ0gzXSlbQ0BASF0oTzEpW0NIMl1bQ0BAXShbQ0gyXTIpKFtDSDJdW0NASF0zW0NIM10pT1tDQEBdKFtDQEBdMjM0KShbT0hdKVtDQF01KFtDSDNdKVtDQEhdKFtDQEhdKFtPSF0pW0NAQEhdNFtPSF0pQyhbQ0gzXSkoW0NIM10pW0NIMl1bQ0gyXVtDQEhdNVtPSF0=

>  <s_epik_cmdline>  (270) 
J2VwaWtfcHl0aG9uJywgJy1waHQnLCAnMi4wJywgJy1waCcsICc3LjAnLCAnLXRuJywgJzgnLCAnLW1hJywgJzIwMCcsICctaW1hZScsICc8aW5maWxlLm1hZT4nLCAnLW9tYWUnLCAnPG91dGZpbGUubWFlPic=

>  <r_lp_tautomer_probability>  (270) 
1

>  <r_epik_Ionization_Penalty>  (270) 
8.68933e-07

>  <r_epik_Ionization_Penalty_Charging>  (270) 
0

>  <r_epik_Ionization_Penalty_Neutral>  (270) 
8.68933e-07

>  <r_epik_State_Penalty>  (270) 
-0

>  <r_epik_Charging_Adjusted_Penalty>  (270) 
0

>  <i_epik_Tot_Q>  (270) 
0

>  <i_epik_Tot_abs_Q>  (270) 
0

>  <s_lp_Force_Field>  (270) 
OPLS3e

>  <r_lp_Energy>  (270) 
82.1828

>  <b_lp_Chiralities_Consistent>  (270) 
1

>  <s_lp_Variant>  (270) 
83:0-1

>  <s_i_glide_gridfile>  (270) 
pfpi4k_grid

>  <i_i_glide_lignum>  (270) 
36

>  <i_i_glide_rotatable_bonds>  (270) 
6

>  <r_i_docking_score>  (270) 
-3.21254

>  <r_i_glide_ligand_efficiency>  (270) 
-0.110777

>  <r_i_glide_ligand_efficiency_sa>  (270) 
-0.340343

>  <r_i_glide_ligand_efficiency_ln>  (270) 
-0.735591

>  <r_i_glide_gscore>  (270) 
-3.21254

>  <r_i_glide_lipo>  (270) 
-0.428297

>  <r_i_glide_hbond>  (270) 
0

>  <r_i_glide_metal>  (270) 
-0

>  <r_i_glide_rewards>  (270) 
-1.10993

>  <r_i_glide_evdw>  (270) 
-23.8554

>  <r_i_glide_ecoul>  (270) 
-4.76884

>  <r_i_glide_erotb>  (270) 
0.233778

>  <r_i_glide_esite>  (270) 
0

>  <r_i_glide_emodel>  (270) 
-39.4506

>  <r_i_glide_energy>  (270) 
-28.6243

>  <r_i_glide_einternal>  (270) 
1.59162

>  <r_i_glide_intrahb_reward>  (270) 
-0.5

>  <i_i_glide_confnum>  (270) 
3

>  <i_i_glide_posenum>  (270) 
16

>  <r_i_glide_eff_state_penalty>  (270) 
0

>  <ligand_id>  (270) 
83

>  <original_smiles>  (270) 
CC1CC2(CC3OC3(C)C)CC13C(O)C(O)C1C(C)(C)CCC(O)C1(C)C3(O)O2

>  <smiles>  (270) 
[H]OC1([H])C([H])(O[H])C23C([H])([H])C(C([H])([H])C4([H])OC4(C([H])([H])[H])C([H])([H])[H])(OC2(O[H])C2(C([H])([H])[H])C([H])(O[H])C([H])([H])C([H])([H])C(C([H])([H])[H])(C([H])([H])[H])C12[H])C([H])([H])C3([H])C([H])([H])[H]

$$$$
84:0:0
     RDKit          3D

 30 32  0  0  1  0  0  0  0  0999 V2000
  -12.1437   -7.4969   -9.4574 C   0  0  0  0  0  0  0  0  0  0  0  0
  -10.9783   -6.5888   -9.8792 C   0  0  0  0  0  0  0  0  0  0  0  0
   -9.9465   -6.3526   -8.8067 C   0  0  0  0  0  0  0  0  0  0  0  0
   -9.9376   -5.2447   -8.0594 N   0  0  0  0  0  0  0  0  0  0  0  0
   -8.8421   -5.4371   -7.2300 C   0  0  0  0  0  0  0  0  0  0  0  0
   -8.2694   -4.6531   -6.2014 C   0  0  0  0  0  0  0  0  0  0  0  0
   -7.1295   -5.1568   -5.5377 C   0  0  0  0  0  0  0  0  0  0  0  0
   -6.3436   -4.2405   -4.3217 Cl  0  0  0  0  0  0  0  0  0  0  0  0
   -6.6030   -6.4139   -5.9017 C   0  0  0  0  0  0  0  0  0  0  0  0
   -5.1889   -7.0285   -5.1166 Cl  0  0  0  0  0  0  0  0  0  0  0  0
   -7.1197   -7.1752   -6.8797 N   0  0  0  0  0  0  0  0  0  0  0  0
   -8.2145   -6.6760   -7.5156 C   0  0  0  0  0  0  0  0  0  0  0  0
   -8.9553   -7.2526   -8.5492 N   0  0  0  0  0  0  0  0  0  0  0  0
   -8.7441   -8.5534   -9.2069 C   0  0  0  0  0  0  0  0  0  0  0  0
   -7.4869   -9.2914   -8.7669 C   0  0  0  0  0  0  0  0  0  0  0  0
   -7.3593  -10.7971   -8.7795 C   0  0  0  0  0  0  0  0  0  0  0  0
   -7.4941  -10.0664   -7.4641 C   0  0  0  0  0  0  0  0  0  0  0  0
  -12.8643   -7.5903  -10.2733 H   0  0  0  0  0  0  0  0  0  0  0  0
  -12.6807   -7.0916   -8.5967 H   0  0  0  0  0  0  0  0  0  0  0  0
  -11.8109   -8.5035   -9.1986 H   0  0  0  0  0  0  0  0  0  0  0  0
  -10.4954   -6.9728  -10.7786 H   0  0  0  0  0  0  0  0  0  0  0  0
  -11.3893   -5.6194  -10.1433 H   0  0  0  0  0  0  0  0  0  0  0  0
   -8.6845   -3.6869   -5.9421 H   0  0  0  0  0  0  0  0  0  0  0  0
   -9.6074   -9.1882   -9.0056 H   0  0  0  0  0  0  0  0  0  0  0  0
   -8.6921   -8.4015  -10.2876 H   0  0  0  0  0  0  0  0  0  0  0  0
   -6.5716   -8.7541   -9.0034 H   0  0  0  0  0  0  0  0  0  0  0  0
   -8.2017  -11.3784   -9.1394 H   0  0  0  0  0  0  0  0  0  0  0  0
   -6.3763  -11.1991   -9.0138 H   0  0  0  0  0  0  0  0  0  0  0  0
   -6.6074   -9.9556   -6.8373 H   0  0  0  0  0  0  0  0  0  0  0  0
   -8.4425  -10.0964   -6.9267 H   0  0  0  0  0  0  0  0  0  0  0  0
  1  2  1  0
  1 18  1  0
  1 19  1  0
  1 20  1  0
  2  3  1  0
  2 21  1  0
  2 22  1  0
  3 13  1  0
  3  4  2  0
  4  5  1  0
  5 12  2  0
  5  6  1  0
  6  7  2  0
  6 23  1  0
  7  8  1  0
  7  9  1  0
  9 10  1  0
  9 11  2  0
 11 12  1  0
 12 13  1  0
 13 14  1  0
 14 15  1  0
 14 24  1  0
 14 25  1  0
 15 17  1  0
 15 16  1  0
 15 26  1  0
 16 17  1  0
 16 27  1  0
 16 28  1  0
 17 29  1  0
 17 30  1  0
M  END
>  <i_m_ct_stereo_status>  (271) 
1

>  <s_m_source_file>  (271) 
/var/tmp/pbs.5076255.sched01/tmpm261n1hm/82shs6bvht.sdf

>  <i_m_source_file_index>  (271) 
37

>  <i_lp_mmshare_version>  (271) 
48012

>  <i_f3d_flags>  (271) 
0

>  <s_epik_input>  (271) 
W0NIMl0xW0NIMl1bQ0hdMVtDSDJdbihjKG4yKVtDSDJdW0NIM10pYyhjMjMpbmMoQ2wpYyhDbClbY0hdMw==

>  <s_epik_cmdline>  (271) 
J2VwaWtfcHl0aG9uJywgJy1waHQnLCAnMi4wJywgJy1waCcsICc3LjAnLCAnLXRuJywgJzgnLCAnLW1hJywgJzIwMCcsICctaW1hZScsICc8aW5maWxlLm1hZT4nLCAnLW9tYWUnLCAnPG91dGZpbGUubWFlPic=

>  <r_lp_tautomer_probability>  (271) 
1

>  <r_epik_Ionization_Penalty>  (271) 
7.01418e-05

>  <r_epik_Ionization_Penalty_Charging>  (271) 
7.01418e-05

>  <r_epik_Ionization_Penalty_Neutral>  (271) 
2.27213e-11

>  <r_epik_State_Penalty>  (271) 
-0

>  <r_epik_Charging_Adjusted_Penalty>  (271) 
7.01418e-05

>  <i_epik_Tot_Q>  (271) 
0

>  <i_epik_Tot_abs_Q>  (271) 
0

>  <s_lp_Force_Field>  (271) 
OPLS3e

>  <r_lp_Energy>  (271) 
17.5851

>  <b_lp_Chiralities_Consistent>  (271) 
1

>  <s_lp_Variant>  (271) 
84:0-1

>  <s_i_glide_gridfile>  (271) 
pfpi4k_grid

>  <i_i_glide_lignum>  (271) 
37

>  <i_i_glide_rotatable_bonds>  (271) 
3

>  <r_i_docking_score>  (271) 
-5.27753

>  <r_i_glide_ligand_efficiency>  (271) 
-0.310443

>  <r_i_glide_ligand_efficiency_sa>  (271) 
-0.798236

>  <r_i_glide_ligand_efficiency_ln>  (271) 
-1.37679

>  <r_i_glide_gscore>  (271) 
-5.27753

>  <r_i_glide_lipo>  (271) 
-2.05038

>  <r_i_glide_hbond>  (271) 
0

>  <r_i_glide_metal>  (271) 
-0

>  <r_i_glide_rewards>  (271) 
-2.23772

>  <r_i_glide_evdw>  (271) 
-27.6072

>  <r_i_glide_ecoul>  (271) 
-0.660463

>  <r_i_glide_erotb>  (271) 
0.489997

>  <r_i_glide_esite>  (271) 
0

>  <r_i_glide_emodel>  (271) 
-34.136

>  <r_i_glide_energy>  (271) 
-28.2676

>  <r_i_glide_einternal>  (271) 
5.70299

>  <r_i_glide_intrahb_reward>  (271) 
-0

>  <i_i_glide_confnum>  (271) 
4

>  <i_i_glide_posenum>  (271) 
35

>  <r_i_glide_eff_state_penalty>  (271) 
0

>  <ligand_id>  (271) 
84

>  <original_smiles>  (271) 
CCc1nc2cc(Cl)c(Cl)nc2n1CC1CC1

>  <smiles>  (271) 
[H]c1c(Cl)c(Cl)nc2c1nc(C([H])([H])C([H])([H])[H])n2C([H])([H])C1([H])C([H])([H])C1([H])[H]

$$$$
84:0:1
     RDKit          3D

 30 32  0  0  1  0  0  0  0  0999 V2000
  -12.2304   -7.4408   -9.2254 C   0  0  0  0  0  0  0  0  0  0  0  0
  -11.0686   -6.5406   -9.6828 C   0  0  0  0  0  0  0  0  0  0  0  0
   -9.9868   -6.3403   -8.6586 C   0  0  0  0  0  0  0  0  0  0  0  0
   -9.8989   -5.2176   -7.9342 N   0  0  0  0  0  0  0  0  0  0  0  0
   -8.7849   -5.4548   -7.1546 C   0  0  0  0  0  0  0  0  0  0  0  0
   -8.1404   -4.6859   -6.1585 C   0  0  0  0  0  0  0  0  0  0  0  0
   -7.0035   -5.2214   -5.5188 C   0  0  0  0  0  0  0  0  0  0  0  0
   -6.1914   -4.2726   -4.3259 Cl  0  0  0  0  0  0  0  0  0  0  0  0
   -6.5351   -6.5066   -5.8854 C   0  0  0  0  0  0  0  0  0  0  0  0
   -5.1102   -7.1324   -5.1306 Cl  0  0  0  0  0  0  0  0  0  0  0  0
   -7.1163   -7.2749   -6.8367 N   0  0  0  0  0  0  0  0  0  0  0  0
   -8.2180   -6.7282   -7.4359 C   0  0  0  0  0  0  0  0  0  0  0  0
   -9.0318   -7.2769   -8.4201 N   0  0  0  0  0  0  0  0  0  0  0  0
   -8.8638   -8.5883   -9.0377 C   0  0  0  0  0  0  0  0  0  0  0  0
   -9.4609   -9.7030   -8.1932 C   0  0  0  0  0  0  0  0  0  0  0  0
   -8.6513  -10.3885   -7.1221 C   0  0  0  0  0  0  0  0  0  0  0  0
   -9.0075  -11.1295   -8.3907 C   0  0  0  0  0  0  0  0  0  0  0  0
  -12.9885   -7.5029  -10.0097 H   0  0  0  0  0  0  0  0  0  0  0  0
  -12.7124   -7.0571   -8.3233 H   0  0  0  0  0  0  0  0  0  0  0  0
  -11.9167   -8.4630   -9.0245 H   0  0  0  0  0  0  0  0  0  0  0  0
  -10.6280   -6.9190  -10.6040 H   0  0  0  0  0  0  0  0  0  0  0  0
  -11.4692   -5.5569   -9.9264 H   0  0  0  0  0  0  0  0  0  0  0  0
   -8.5117   -3.7083   -5.8985 H   0  0  0  0  0  0  0  0  0  0  0  0
   -9.3102   -8.6093  -10.0324 H   0  0  0  0  0  0  0  0  0  0  0  0
   -7.7956   -8.7591   -9.1747 H   0  0  0  0  0  0  0  0  0  0  0  0
  -10.5111   -9.5800   -7.9443 H   0  0  0  0  0  0  0  0  0  0  0  0
   -7.6273  -10.0479   -6.9863 H   0  0  0  0  0  0  0  0  0  0  0  0
   -9.1889  -10.6573   -6.2151 H   0  0  0  0  0  0  0  0  0  0  0  0
   -9.7726  -11.9006   -8.3219 H   0  0  0  0  0  0  0  0  0  0  0  0
   -8.2227  -11.3070   -9.1236 H   0  0  0  0  0  0  0  0  0  0  0  0
  1  2  1  0
  1 18  1  0
  1 19  1  0
  1 20  1  0
  2  3  1  0
  2 21  1  0
  2 22  1  0
  3 13  1  0
  3  4  2  0
  4  5  1  0
  5 12  2  0
  5  6  1  0
  6  7  2  0
  6 23  1  0
  7  8  1  0
  7  9  1  0
  9 10  1  0
  9 11  2  0
 11 12  1  0
 12 13  1  0
 13 14  1  0
 14 15  1  0
 14 24  1  0
 14 25  1  0
 15 17  1  0
 15 16  1  0
 15 26  1  0
 16 17  1  0
 16 27  1  0
 16 28  1  0
 17 29  1  0
 17 30  1  0
M  END
>  <i_m_ct_stereo_status>  (272) 
1

>  <s_m_source_file>  (272) 
/var/tmp/pbs.5076255.sched01/tmpm261n1hm/82shs6bvht.sdf

>  <i_m_source_file_index>  (272) 
37

>  <i_lp_mmshare_version>  (272) 
48012

>  <i_f3d_flags>  (272) 
0

>  <s_epik_input>  (272) 
W0NIMl0xW0NIMl1bQ0hdMVtDSDJdbihjKG4yKVtDSDJdW0NIM10pYyhjMjMpbmMoQ2wpYyhDbClbY0hdMw==

>  <s_epik_cmdline>  (272) 
J2VwaWtfcHl0aG9uJywgJy1waHQnLCAnMi4wJywgJy1waCcsICc3LjAnLCAnLXRuJywgJzgnLCAnLW1hJywgJzIwMCcsICctaW1hZScsICc8aW5maWxlLm1hZT4nLCAnLW9tYWUnLCAnPG91dGZpbGUubWFlPic=

>  <r_lp_tautomer_probability>  (272) 
1

>  <r_epik_Ionization_Penalty>  (272) 
7.01418e-05

>  <r_epik_Ionization_Penalty_Charging>  (272) 
7.01418e-05

>  <r_epik_Ionization_Penalty_Neutral>  (272) 
2.27213e-11

>  <r_epik_State_Penalty>  (272) 
-0

>  <r_epik_Charging_Adjusted_Penalty>  (272) 
7.01418e-05

>  <i_epik_Tot_Q>  (272) 
0

>  <i_epik_Tot_abs_Q>  (272) 
0

>  <s_lp_Force_Field>  (272) 
OPLS3e

>  <r_lp_Energy>  (272) 
17.5851

>  <b_lp_Chiralities_Consistent>  (272) 
1

>  <s_lp_Variant>  (272) 
84:0-1

>  <s_i_glide_gridfile>  (272) 
pfpi4k_grid

>  <i_i_glide_lignum>  (272) 
37

>  <i_i_glide_rotatable_bonds>  (272) 
3

>  <r_i_docking_score>  (272) 
-5.20611

>  <r_i_glide_ligand_efficiency>  (272) 
-0.306242

>  <r_i_glide_ligand_efficiency_sa>  (272) 
-0.787434

>  <r_i_glide_ligand_efficiency_ln>  (272) 
-1.35816

>  <r_i_glide_gscore>  (272) 
-5.20611

>  <r_i_glide_lipo>  (272) 
-1.95781

>  <r_i_glide_hbond>  (272) 
0

>  <r_i_glide_metal>  (272) 
-0

>  <r_i_glide_rewards>  (272) 
-2.26102

>  <r_i_glide_evdw>  (272) 
-27.6224

>  <r_i_glide_ecoul>  (272) 
-0.641025

>  <r_i_glide_erotb>  (272) 
0.489997

>  <r_i_glide_esite>  (272) 
0

>  <r_i_glide_emodel>  (272) 
-37.0084

>  <r_i_glide_energy>  (272) 
-28.2634

>  <r_i_glide_einternal>  (272) 
0.413876

>  <r_i_glide_intrahb_reward>  (272) 
-0

>  <i_i_glide_confnum>  (272) 
3

>  <i_i_glide_posenum>  (272) 
30

>  <r_i_glide_eff_state_penalty>  (272) 
0

>  <ligand_id>  (272) 
84

>  <original_smiles>  (272) 
CCc1nc2cc(Cl)c(Cl)nc2n1CC1CC1

>  <smiles>  (272) 
[H]c1c(Cl)c(Cl)nc2c1nc(C([H])([H])C([H])([H])[H])n2C([H])([H])C1([H])C([H])([H])C1([H])[H]

$$$$
84:0:2
     RDKit          3D

 30 32  0  0  1  0  0  0  0  0999 V2000
  -12.0051   -7.5820   -9.8416 C   0  0  0  0  0  0  0  0  0  0  0  0
  -10.7277   -6.8120  -10.2293 C   0  0  0  0  0  0  0  0  0  0  0  0
   -9.7486   -6.5851   -9.1124 C   0  0  0  0  0  0  0  0  0  0  0  0
   -9.8268   -5.5105   -8.3052 N   0  0  0  0  0  0  0  0  0  0  0  0
   -8.7459   -5.6770   -7.4562 C   0  0  0  0  0  0  0  0  0  0  0  0
   -8.2934   -4.9303   -6.3559 C   0  0  0  0  0  0  0  0  0  0  0  0
   -7.1727   -5.3972   -5.6380 C   0  0  0  0  0  0  0  0  0  0  0  0
   -6.5915   -4.5004   -4.3043 Cl  0  0  0  0  0  0  0  0  0  0  0  0
   -6.5431   -6.5990   -6.0359 C   0  0  0  0  0  0  0  0  0  0  0  0
   -5.2132   -7.2143   -5.1365 Cl  0  0  0  0  0  0  0  0  0  0  0  0
   -6.8967   -7.2946   -7.1429 N   0  0  0  0  0  0  0  0  0  0  0  0
   -8.0315   -6.8479   -7.7910 C   0  0  0  0  0  0  0  0  0  0  0  0
   -8.7256   -7.4407   -8.8321 N   0  0  0  0  0  0  0  0  0  0  0  0
   -8.4300   -8.7410   -9.4476 C   0  0  0  0  0  0  0  0  0  0  0  0
   -8.7907   -9.9268   -8.5502 C   0  0  0  0  0  0  0  0  0  0  0  0
  -10.0078   -9.8703   -7.6313 C   0  0  0  0  0  0  0  0  0  0  0  0
   -8.6486   -9.9464   -7.0485 C   0  0  0  0  0  0  0  0  0  0  0  0
  -12.6572   -7.6982  -10.7114 H   0  0  0  0  0  0  0  0  0  0  0  0
  -12.5784   -7.0571   -9.0744 H   0  0  0  0  0  0  0  0  0  0  0  0
  -11.7850   -8.5843   -9.4746 H   0  0  0  0  0  0  0  0  0  0  0  0
  -10.2401   -7.3202  -11.0641 H   0  0  0  0  0  0  0  0  0  0  0  0
  -11.0182   -5.8393  -10.6280 H   0  0  0  0  0  0  0  0  0  0  0  0
   -8.7814   -4.0096   -6.0699 H   0  0  0  0  0  0  0  0  0  0  0  0
   -8.9529   -8.8397  -10.3900 H   0  0  0  0  0  0  0  0  0  0  0  0
   -7.3654   -8.7798   -9.6853 H   0  0  0  0  0  0  0  0  0  0  0  0
   -8.6340  -10.8863   -9.0534 H   0  0  0  0  0  0  0  0  0  0  0  0
  -10.5368   -8.9220   -7.5842 H   0  0  0  0  0  0  0  0  0  0  0  0
  -10.6437  -10.7444   -7.4967 H   0  0  0  0  0  0  0  0  0  0  0  0
   -8.3194  -10.8562   -6.6009 H   0  0  0  0  0  0  0  0  0  0  0  0
   -8.3655   -9.0489   -6.4979 H   0  0  0  0  0  0  0  0  0  0  0  0
  1  2  1  0
  1 18  1  0
  1 19  1  0
  1 20  1  0
  2  3  1  0
  2 21  1  0
  2 22  1  0
  3 13  1  0
  3  4  2  0
  4  5  1  0
  5 12  2  0
  5  6  1  0
  6  7  2  0
  6 23  1  0
  7  8  1  0
  7  9  1  0
  9 10  1  0
  9 11  2  0
 11 12  1  0
 12 13  1  0
 13 14  1  0
 14 15  1  0
 14 24  1  0
 14 25  1  0
 15 17  1  0
 15 16  1  0
 15 26  1  0
 16 17  1  0
 16 27  1  0
 16 28  1  0
 17 29  1  0
 17 30  1  0
M  END
>  <i_m_ct_stereo_status>  (273) 
1

>  <s_m_source_file>  (273) 
/var/tmp/pbs.5076255.sched01/tmpm261n1hm/82shs6bvht.sdf

>  <i_m_source_file_index>  (273) 
37

>  <i_lp_mmshare_version>  (273) 
48012

>  <i_f3d_flags>  (273) 
0

>  <s_epik_input>  (273) 
W0NIMl0xW0NIMl1bQ0hdMVtDSDJdbihjKG4yKVtDSDJdW0NIM10pYyhjMjMpbmMoQ2wpYyhDbClbY0hdMw==

>  <s_epik_cmdline>  (273) 
J2VwaWtfcHl0aG9uJywgJy1waHQnLCAnMi4wJywgJy1waCcsICc3LjAnLCAnLXRuJywgJzgnLCAnLW1hJywgJzIwMCcsICctaW1hZScsICc8aW5maWxlLm1hZT4nLCAnLW9tYWUnLCAnPG91dGZpbGUubWFlPic=

>  <r_lp_tautomer_probability>  (273) 
1

>  <r_epik_Ionization_Penalty>  (273) 
7.01418e-05

>  <r_epik_Ionization_Penalty_Charging>  (273) 
7.01418e-05

>  <r_epik_Ionization_Penalty_Neutral>  (273) 
2.27213e-11

>  <r_epik_State_Penalty>  (273) 
-0

>  <r_epik_Charging_Adjusted_Penalty>  (273) 
7.01418e-05

>  <i_epik_Tot_Q>  (273) 
0

>  <i_epik_Tot_abs_Q>  (273) 
0

>  <s_lp_Force_Field>  (273) 
OPLS3e

>  <r_lp_Energy>  (273) 
17.5851

>  <b_lp_Chiralities_Consistent>  (273) 
1

>  <s_lp_Variant>  (273) 
84:0-1

>  <s_i_glide_gridfile>  (273) 
pfpi4k_grid

>  <i_i_glide_lignum>  (273) 
37

>  <i_i_glide_rotatable_bonds>  (273) 
3

>  <r_i_docking_score>  (273) 
-5.18974

>  <r_i_glide_ligand_efficiency>  (273) 
-0.305279

>  <r_i_glide_ligand_efficiency_sa>  (273) 
-0.784958

>  <r_i_glide_ligand_efficiency_ln>  (273) 
-1.35389

>  <r_i_glide_gscore>  (273) 
-5.18974

>  <r_i_glide_lipo>  (273) 
-1.96326

>  <r_i_glide_hbond>  (273) 
0

>  <r_i_glide_metal>  (273) 
-0

>  <r_i_glide_rewards>  (273) 
-2.30726

>  <r_i_glide_evdw>  (273) 
-26.6462

>  <r_i_glide_ecoul>  (273) 
-0.512763

>  <r_i_glide_erotb>  (273) 
0.489997

>  <r_i_glide_esite>  (273) 
0

>  <r_i_glide_emodel>  (273) 
-34.142

>  <r_i_glide_energy>  (273) 
-27.159

>  <r_i_glide_einternal>  (273) 
2.57029

>  <r_i_glide_intrahb_reward>  (273) 
-0

>  <i_i_glide_confnum>  (273) 
3

>  <i_i_glide_posenum>  (273) 
1

>  <r_i_glide_eff_state_penalty>  (273) 
0

>  <ligand_id>  (273) 
84

>  <original_smiles>  (273) 
CCc1nc2cc(Cl)c(Cl)nc2n1CC1CC1

>  <smiles>  (273) 
[H]c1c(Cl)c(Cl)nc2c1nc(C([H])([H])C([H])([H])[H])n2C([H])([H])C1([H])C([H])([H])C1([H])[H]

$$$$
85:0:0
     RDKit          3D

 17 17  0  0  1  0  0  0  0  0999 V2000
   -4.8707   -9.2035   -5.0595 C   0  0  0  0  0  0  0  0  0  0  0  0
   -5.2159   -8.8889   -6.1873 C   0  0  0  0  0  0  0  0  0  0  0  0
   -5.6682   -8.4668   -7.5259 C   0  0  0  0  0  0  0  0  0  0  0  0
   -6.8915   -7.6802   -7.5115 N   0  0  0  0  0  0  0  0  0  0  0  0
   -8.0196   -7.8449   -8.2834 C   0  0  0  0  0  0  0  0  0  0  0  0
   -8.8997   -6.8611   -7.9383 C   0  0  0  0  0  0  0  0  0  0  0  0
   -8.2019   -6.1094   -6.9502 C   0  0  0  0  0  0  0  0  0  0  0  0
   -8.6791   -4.9162   -6.1794 C   0  0  0  0  0  0  0  0  0  0  0  0
   -6.9964   -6.5967   -6.7086 N   0  0  0  0  0  0  0  0  0  0  0  0
   -4.5943   -9.4539   -4.0577 H   0  0  0  0  0  0  0  0  0  0  0  0
   -4.8771   -7.8810   -7.9954 H   0  0  0  0  0  0  0  0  0  0  0  0
   -5.8219   -9.3651   -8.1266 H   0  0  0  0  0  0  0  0  0  0  0  0
   -8.1101   -8.6459   -8.9991 H   0  0  0  0  0  0  0  0  0  0  0  0
   -9.8953   -6.7111   -8.3294 H   0  0  0  0  0  0  0  0  0  0  0  0
   -9.6985   -4.6478   -6.4617 H   0  0  0  0  0  0  0  0  0  0  0  0
   -8.0383   -4.0509   -6.3555 H   0  0  0  0  0  0  0  0  0  0  0  0
   -8.6756   -5.1217   -5.1079 H   0  0  0  0  0  0  0  0  0  0  0  0
  1  2  3  0
  1 10  1  0
  2  3  1  0
  3  4  1  0
  3 11  1  0
  3 12  1  0
  4  9  1  0
  4  5  1  0
  5  6  2  0
  5 13  1  0
  6  7  1  0
  6 14  1  0
  7  8  1  0
  7  9  2  0
  8 15  1  0
  8 16  1  0
  8 17  1  0
M  END
>  <i_m_ct_stereo_status>  (274) 
1

>  <s_m_source_file>  (274) 
/var/tmp/pbs.5076255.sched01/tmpm261n1hm/82shs6bvht.sdf

>  <i_m_source_file_index>  (274) 
38

>  <i_lp_mmshare_version>  (274) 
48012

>  <i_f3d_flags>  (274) 
0

>  <s_epik_input>  (274) 
W0NIXSNDW0NIMl1uMVtjSF1bY0hdYyhuMSlbQ0gzXQ==

>  <s_epik_cmdline>  (274) 
J2VwaWtfcHl0aG9uJywgJy1waHQnLCAnMi4wJywgJy1waCcsICc3LjAnLCAnLXRuJywgJzgnLCAnLW1hJywgJzIwMCcsICctaW1hZScsICc8aW5maWxlLm1hZT4nLCAnLW9tYWUnLCAnPG91dGZpbGUubWFlPic=

>  <r_lp_tautomer_probability>  (274) 
1

>  <r_epik_Ionization_Penalty>  (274) 
4.33939e-05

>  <r_epik_Ionization_Penalty_Charging>  (274) 
0

>  <r_epik_Ionization_Penalty_Neutral>  (274) 
4.33939e-05

>  <r_epik_State_Penalty>  (274) 
-0

>  <r_epik_Charging_Adjusted_Penalty>  (274) 
0

>  <i_epik_Tot_Q>  (274) 
0

>  <i_epik_Tot_abs_Q>  (274) 
0

>  <s_lp_Force_Field>  (274) 
OPLS3e

>  <r_lp_Energy>  (274) 
2.40072

>  <b_lp_Chiralities_Consistent>  (274) 
1

>  <s_lp_Variant>  (274) 
85:0-1

>  <s_i_glide_gridfile>  (274) 
pfpi4k_grid

>  <i_i_glide_lignum>  (274) 
38

>  <i_i_glide_rotatable_bonds>  (274) 
2

>  <r_i_docking_score>  (274) 
-3.08617

>  <r_i_glide_ligand_efficiency>  (274) 
-0.342908

>  <r_i_glide_ligand_efficiency_sa>  (274) 
-0.713277

>  <r_i_glide_ligand_efficiency_ln>  (274) 
-0.965265

>  <r_i_glide_gscore>  (274) 
-3.08617

>  <r_i_glide_lipo>  (274) 
-1.2499

>  <r_i_glide_hbond>  (274) 
0

>  <r_i_glide_metal>  (274) 
-0

>  <r_i_glide_rewards>  (274) 
-2.82438

>  <r_i_glide_evdw>  (274) 
-13.3867

>  <r_i_glide_ecoul>  (274) 
-1.29989

>  <r_i_glide_erotb>  (274) 
1.85244

>  <r_i_glide_esite>  (274) 
0

>  <r_i_glide_emodel>  (274) 
-17.0445

>  <r_i_glide_energy>  (274) 
-14.6866

>  <r_i_glide_einternal>  (274) 
1.08466

>  <r_i_glide_intrahb_reward>  (274) 
-0

>  <i_i_glide_confnum>  (274) 
1

>  <i_i_glide_posenum>  (274) 
7

>  <r_i_glide_eff_state_penalty>  (274) 
0

>  <ligand_id>  (274) 
85

>  <original_smiles>  (274) 
C#CCn1ccc(C)n1

>  <smiles>  (274) 
[H]C#CC([H])([H])n1nc(C([H])([H])[H])c([H])c1[H]

$$$$
85:0:1
     RDKit          3D

 17 17  0  0  1  0  0  0  0  0999 V2000
   -6.9134   -4.9246   -3.2144 C   0  0  0  0  0  0  0  0  0  0  0  0
   -6.3902   -5.2818   -4.2559 C   0  0  0  0  0  0  0  0  0  0  0  0
   -5.7434   -5.6884   -5.5052 C   0  0  0  0  0  0  0  0  0  0  0  0
   -5.8842   -7.0999   -5.7941 N   0  0  0  0  0  0  0  0  0  0  0  0
   -6.9561   -7.7541   -6.3634 C   0  0  0  0  0  0  0  0  0  0  0  0
   -6.6261   -9.0748   -6.4610 C   0  0  0  0  0  0  0  0  0  0  0  0
   -5.3126   -9.1374   -5.9166 C   0  0  0  0  0  0  0  0  0  0  0  0
   -4.4325  -10.3392   -5.7637 C   0  0  0  0  0  0  0  0  0  0  0  0
   -4.8738   -7.9528   -5.5153 N   0  0  0  0  0  0  0  0  0  0  0  0
   -7.3397   -4.6505   -2.2827 H   0  0  0  0  0  0  0  0  0  0  0  0
   -6.2021   -5.1070   -6.3059 H   0  0  0  0  0  0  0  0  0  0  0  0
   -4.6867   -5.4208   -5.4474 H   0  0  0  0  0  0  0  0  0  0  0  0
   -7.8543   -7.2334   -6.6502 H   0  0  0  0  0  0  0  0  0  0  0  0
   -7.2406   -9.8647   -6.8646 H   0  0  0  0  0  0  0  0  0  0  0  0
   -4.9271  -11.2354   -6.1408 H   0  0  0  0  0  0  0  0  0  0  0  0
   -4.1845  -10.5117   -4.7243 H   0  0  0  0  0  0  0  0  0  0  0  0
   -3.4970  -10.2268   -6.3109 H   0  0  0  0  0  0  0  0  0  0  0  0
  1  2  3  0
  1 10  1  0
  2  3  1  0
  3  4  1  0
  3 11  1  0
  3 12  1  0
  4  9  1  0
  4  5  1  0
  5  6  2  0
  5 13  1  0
  6  7  1  0
  6 14  1  0
  7  8  1  0
  7  9  2  0
  8 15  1  0
  8 16  1  0
  8 17  1  0
M  END
>  <i_m_ct_stereo_status>  (275) 
1

>  <s_m_source_file>  (275) 
/var/tmp/pbs.5076255.sched01/tmpm261n1hm/82shs6bvht.sdf

>  <i_m_source_file_index>  (275) 
38

>  <i_lp_mmshare_version>  (275) 
48012

>  <i_f3d_flags>  (275) 
0

>  <s_epik_input>  (275) 
W0NIXSNDW0NIMl1uMVtjSF1bY0hdYyhuMSlbQ0gzXQ==

>  <s_epik_cmdline>  (275) 
J2VwaWtfcHl0aG9uJywgJy1waHQnLCAnMi4wJywgJy1waCcsICc3LjAnLCAnLXRuJywgJzgnLCAnLW1hJywgJzIwMCcsICctaW1hZScsICc8aW5maWxlLm1hZT4nLCAnLW9tYWUnLCAnPG91dGZpbGUubWFlPic=

>  <r_lp_tautomer_probability>  (275) 
1

>  <r_epik_Ionization_Penalty>  (275) 
4.33939e-05

>  <r_epik_Ionization_Penalty_Charging>  (275) 
0

>  <r_epik_Ionization_Penalty_Neutral>  (275) 
4.33939e-05

>  <r_epik_State_Penalty>  (275) 
-0

>  <r_epik_Charging_Adjusted_Penalty>  (275) 
0

>  <i_epik_Tot_Q>  (275) 
0

>  <i_epik_Tot_abs_Q>  (275) 
0

>  <s_lp_Force_Field>  (275) 
OPLS3e

>  <r_lp_Energy>  (275) 
2.40072

>  <b_lp_Chiralities_Consistent>  (275) 
1

>  <s_lp_Variant>  (275) 
85:0-1

>  <s_i_glide_gridfile>  (275) 
pfpi4k_grid

>  <i_i_glide_lignum>  (275) 
38

>  <i_i_glide_rotatable_bonds>  (275) 
2

>  <r_i_docking_score>  (275) 
-2.87853

>  <r_i_glide_ligand_efficiency>  (275) 
-0.319836

>  <r_i_glide_ligand_efficiency_sa>  (275) 
-0.665286

>  <r_i_glide_ligand_efficiency_ln>  (275) 
-0.90032

>  <r_i_glide_gscore>  (275) 
-2.87853

>  <r_i_glide_lipo>  (275) 
-1.50782

>  <r_i_glide_hbond>  (275) 
0

>  <r_i_glide_metal>  (275) 
-0

>  <r_i_glide_rewards>  (275) 
-2.35242

>  <r_i_glide_evdw>  (275) 
-15.335

>  <r_i_glide_ecoul>  (275) 
-0.693102

>  <r_i_glide_erotb>  (275) 
1.85244

>  <r_i_glide_esite>  (275) 
0

>  <r_i_glide_emodel>  (275) 
-18.7935

>  <r_i_glide_energy>  (275) 
-16.0281

>  <r_i_glide_einternal>  (275) 
-0.0527036

>  <r_i_glide_intrahb_reward>  (275) 
-0

>  <i_i_glide_confnum>  (275) 
2

>  <i_i_glide_posenum>  (275) 
4

>  <r_i_glide_eff_state_penalty>  (275) 
0

>  <ligand_id>  (275) 
85

>  <original_smiles>  (275) 
C#CCn1ccc(C)n1

>  <smiles>  (275) 
[H]C#CC([H])([H])n1nc(C([H])([H])[H])c([H])c1[H]

$$$$
86:0:0
     RDKit          3D

 29 31  0  0  1  0  0  0  0  0999 V2000
   -0.1952    1.0730    1.9901 C   0  0  0  0  0  0  0  0  0  0  0  0
    0.1478    2.0074    3.1336 C   0  0  0  0  0  0  0  0  0  0  0  0
    1.3039    2.5531    3.1720 N   0  0  0  0  0  0  0  0  0  0  0  0
    1.6795    3.3668    4.1984 C   0  0  0  0  0  0  0  0  0  0  0  0
    2.7273    4.1838    4.2672 N   0  0  0  0  0  0  0  0  0  0  0  0
    2.5948    4.6576    5.5394 C   0  0  0  0  0  0  0  0  0  0  0  0
    1.5991    4.1379    6.2524 N   0  0  0  0  0  0  0  0  0  0  0  0
    0.9588    3.3735    5.3370 N   0  0  0  0  0  0  0  0  0  0  0  0
   -0.2338    2.5560    5.6095 C   0  0  1  0  0  0  0  0  0  0  0  0
   -1.1759    3.0654    6.7128 C   0  0  0  0  0  0  0  0  0  0  0  0
   -2.1727    2.2473    7.3466 C   0  0  0  0  0  0  0  0  0  0  0  0
   -2.8832    2.8986    8.3294 C   0  0  0  0  0  0  0  0  0  0  0  0
   -2.3499    4.5298    8.5271 S   0  0  0  0  0  0  0  0  0  0  0  0
   -1.1901    4.3342    7.2515 C   0  0  0  0  0  0  0  0  0  0  0  0
   -0.9228    2.2222    4.2345 C   0  0  1  0  0  0  0  0  0  0  0  0
   -1.9013    3.3250    3.7558 C   0  0  0  0  0  0  0  0  0  0  0  0
   -2.9868    2.9448    3.0844 N   0  0  0  0  0  0  0  0  0  0  0  0
   -1.7078    4.5187    4.0035 O   0  0  0  0  0  0  0  0  0  0  0  0
   -0.3874    0.0666    2.3529 H   0  0  0  0  0  0  0  0  0  0  0  0
    0.6460    1.0210    1.2976 H   0  0  0  0  0  0  0  0  0  0  0  0
   -1.0513    1.4321    1.4205 H   0  0  0  0  0  0  0  0  0  0  0  0
    3.2577    5.3989    5.9694 H   0  0  0  0  0  0  0  0  0  0  0  0
    0.1628    1.6041    5.9653 H   0  0  0  0  0  0  0  0  0  0  0  0
   -2.3241    1.2118    7.0745 H   0  0  0  0  0  0  0  0  0  0  0  0
   -3.6749    2.5396    8.9741 H   0  0  0  0  0  0  0  0  0  0  0  0
   -0.5673    5.1760    6.9945 H   0  0  0  0  0  0  0  0  0  0  0  0
   -1.5008    1.2985    4.3504 H   0  0  0  0  0  0  0  0  0  0  0  0
   -3.1609    1.9651    2.8796 H   0  0  0  0  0  0  0  0  0  0  0  0
   -3.6415    3.6487    2.7672 H   0  0  0  0  0  0  0  0  0  0  0  0
  1  2  1  0
  1 19  1  0
  1 20  1  0
  1 21  1  0
  2 15  1  0
  2  3  2  0
  3  4  1  0
  4  8  1  0
  4  5  2  0
  5  6  1  0
  6  7  2  0
  6 22  1  0
  7  8  1  0
  8  9  1  0
  9 10  1  0
  9 15  1  0
  9 23  1  1
 10 14  2  0
 10 11  1  0
 11 12  2  0
 11 24  1  0
 12 13  1  0
 12 25  1  0
 13 14  1  0
 14 26  1  0
 15 16  1  0
 15 27  1  1
 16 17  1  0
 16 18  2  0
 17 28  1  0
 17 29  1  0
M  END
>  <i_m_ct_stereo_status>  (276) 
1

>  <s_m_source_file>  (276) 
/var/tmp/pbs.5076255.sched01/tmpm261n1hm/82shs6bvht.sdf

>  <i_m_source_file_index>  (276) 
39

>  <i_lp_mmshare_version>  (276) 
48012

>  <i_f3d_flags>  (276) 
0

>  <s_epik_input>  (276) 
bjFbY0hdbm4oYzEyKVtDQEhdKFtDQEhdKEMoPU4yKVtDSDNdKUMoPU8pW05IMl0pYzNbY0hdW2NIXXNbY0hdMw==

>  <s_epik_cmdline>  (276) 
J2VwaWtfcHl0aG9uJywgJy1waHQnLCAnMi4wJywgJy1waCcsICc3LjAnLCAnLXRuJywgJzgnLCAnLW1hJywgJzIwMCcsICctaW1hZScsICc8aW5maWxlLm1hZT4nLCAnLW9tYWUnLCAnPG91dGZpbGUubWFlPic=

>  <r_lp_tautomer_probability>  (276) 
1

>  <r_epik_Ionization_Penalty>  (276) 
1.82302e-05

>  <r_epik_Ionization_Penalty_Charging>  (276) 
0

>  <r_epik_Ionization_Penalty_Neutral>  (276) 
1.82302e-05

>  <r_epik_State_Penalty>  (276) 
-0

>  <r_epik_Charging_Adjusted_Penalty>  (276) 
0

>  <i_epik_Tot_Q>  (276) 
0

>  <i_epik_Tot_abs_Q>  (276) 
0

>  <s_epik_Chemistry_Notes>  (276) 
This compound has an imine and may undergo hydrolysis.

>  <s_lp_Force_Field>  (276) 
OPLS3e

>  <r_lp_Energy>  (276) 
14.5684

>  <b_lp_Chiralities_Consistent>  (276) 
1

>  <s_lp_Variant>  (276) 
86:0-1

>  <s_i_glide_gridfile>  (276) 
pfpi4k_grid

>  <i_i_glide_lignum>  (276) 
39

>  <i_i_glide_rotatable_bonds>  (276) 
2

>  <r_i_docking_score>  (276) 
-3.94668

>  <r_i_glide_ligand_efficiency>  (276) 
-0.21926

>  <r_i_glide_ligand_efficiency_sa>  (276) 
-0.574624

>  <r_i_glide_ligand_efficiency_ln>  (276) 
-1.01447

>  <r_i_glide_gscore>  (276) 
-3.94668

>  <r_i_glide_lipo>  (276) 
-0.15723

>  <r_i_glide_hbond>  (276) 
-0.461438

>  <r_i_glide_metal>  (276) 
-0

>  <r_i_glide_rewards>  (276) 
-1.62747

>  <r_i_glide_evdw>  (276) 
-20.8537

>  <r_i_glide_ecoul>  (276) 
-4.98799

>  <r_i_glide_erotb>  (276) 
0.259506

>  <r_i_glide_esite>  (276) 
-0.169161

>  <r_i_glide_emodel>  (276) 
-32.0593

>  <r_i_glide_energy>  (276) 
-25.8417

>  <r_i_glide_einternal>  (276) 
1.44312

>  <r_i_glide_intrahb_reward>  (276) 
-0

>  <i_i_glide_confnum>  (276) 
4

>  <i_i_glide_posenum>  (276) 
9

>  <r_i_glide_eff_state_penalty>  (276) 
0

>  <ligand_id>  (276) 
86

>  <original_smiles>  (276) 
CC1=Nc2ncnn2C(c2ccsc2)C1C(N)=O

>  <smiles>  (276) 
[H]c1nc2n(n1)C([H])(c1c([H])sc([H])c1[H])C([H])(C(=O)N([H])[H])C(C([H])([H])[H])=N2

$$$$
86:0:1
     RDKit          3D

 29 31  0  0  1  0  0  0  0  0999 V2000
    0.0148    1.2713    1.7888 C   0  0  0  0  0  0  0  0  0  0  0  0
    0.3827    2.0334    3.0424 C   0  0  0  0  0  0  0  0  0  0  0  0
    1.5334    2.5841    3.1421 N   0  0  0  0  0  0  0  0  0  0  0  0
    1.9072    3.2563    4.2644 C   0  0  0  0  0  0  0  0  0  0  0  0
    2.9451    4.0648    4.4378 N   0  0  0  0  0  0  0  0  0  0  0  0
    2.8187    4.3804    5.7549 C   0  0  0  0  0  0  0  0  0  0  0  0
    1.8023    3.8117    6.3969 N   0  0  0  0  0  0  0  0  0  0  0  0
    1.1905    3.1241    5.4095 N   0  0  0  0  0  0  0  0  0  0  0  0
    0.0309    2.2532    5.5801 C   0  0  1  0  0  0  0  0  0  0  0  0
   -0.8544    2.5678    6.7945 C   0  0  0  0  0  0  0  0  0  0  0  0
   -1.0207    1.6786    7.9141 C   0  0  0  0  0  0  0  0  0  0  0  0
   -1.8681    2.1618    8.8847 C   0  0  0  0  0  0  0  0  0  0  0  0
   -2.5032    3.7225    8.4556 S   0  0  0  0  0  0  0  0  0  0  0  0
   -1.5706    3.7266    6.9787 C   0  0  0  0  0  0  0  0  0  0  0  0
   -0.6750    2.1040    4.1729 C   0  0  1  0  0  0  0  0  0  0  0  0
   -1.6466    3.2468    3.8190 C   0  0  0  0  0  0  0  0  0  0  0  0
   -2.7841    2.9277    3.1972 N   0  0  0  0  0  0  0  0  0  0  0  0
   -1.3894    4.4165    4.0994 O   0  0  0  0  0  0  0  0  0  0  0  0
   -0.1750    0.2191    2.0000 H   0  0  0  0  0  0  0  0  0  0  0  0
    0.8330    1.3257    1.0643 H   0  0  0  0  0  0  0  0  0  0  0  0
   -0.8621    1.7075    1.3096 H   0  0  0  0  0  0  0  0  0  0  0  0
    3.5026    5.0396    6.2591 H   0  0  0  0  0  0  0  0  0  0  0  0
    0.4694    1.2733    5.7697 H   0  0  0  0  0  0  0  0  0  0  0  0
   -0.5058    0.7299    7.9862 H   0  0  0  0  0  0  0  0  0  0  0  0
   -2.1589    1.7441    9.8448 H   0  0  0  0  0  0  0  0  0  0  0  0
   -1.5927    4.5724    6.3126 H   0  0  0  0  0  0  0  0  0  0  0  0
   -1.2383    1.1614    4.1801 H   0  0  0  0  0  0  0  0  0  0  0  0
   -2.9880    1.9715    2.9054 H   0  0  0  0  0  0  0  0  0  0  0  0
   -3.4630    3.6467    2.9876 H   0  0  0  0  0  0  0  0  0  0  0  0
  1  2  1  0
  1 19  1  0
  1 20  1  0
  1 21  1  0
  2 15  1  0
  2  3  2  0
  3  4  1  0
  4  8  1  0
  4  5  2  0
  5  6  1  0
  6  7  2  0
  6 22  1  0
  7  8  1  0
  8  9  1  0
  9 10  1  0
  9 15  1  0
  9 23  1  1
 10 14  2  0
 10 11  1  0
 11 12  2  0
 11 24  1  0
 12 13  1  0
 12 25  1  0
 13 14  1  0
 14 26  1  0
 15 16  1  0
 15 27  1  1
 16 17  1  0
 16 18  2  0
 17 28  1  0
 17 29  1  0
M  END
>  <i_m_ct_stereo_status>  (277) 
1

>  <s_m_source_file>  (277) 
/var/tmp/pbs.5076255.sched01/tmpm261n1hm/82shs6bvht.sdf

>  <i_m_source_file_index>  (277) 
39

>  <i_lp_mmshare_version>  (277) 
48012

>  <i_f3d_flags>  (277) 
0

>  <s_epik_input>  (277) 
bjFbY0hdbm4oYzEyKVtDQEhdKFtDQEhdKEMoPU4yKVtDSDNdKUMoPU8pW05IMl0pYzNbY0hdW2NIXXNbY0hdMw==

>  <s_epik_cmdline>  (277) 
J2VwaWtfcHl0aG9uJywgJy1waHQnLCAnMi4wJywgJy1waCcsICc3LjAnLCAnLXRuJywgJzgnLCAnLW1hJywgJzIwMCcsICctaW1hZScsICc8aW5maWxlLm1hZT4nLCAnLW9tYWUnLCAnPG91dGZpbGUubWFlPic=

>  <r_lp_tautomer_probability>  (277) 
1

>  <r_epik_Ionization_Penalty>  (277) 
1.82302e-05

>  <r_epik_Ionization_Penalty_Charging>  (277) 
0

>  <r_epik_Ionization_Penalty_Neutral>  (277) 
1.82302e-05

>  <r_epik_State_Penalty>  (277) 
-0

>  <r_epik_Charging_Adjusted_Penalty>  (277) 
0

>  <i_epik_Tot_Q>  (277) 
0

>  <i_epik_Tot_abs_Q>  (277) 
0

>  <s_epik_Chemistry_Notes>  (277) 
This compound has an imine and may undergo hydrolysis.

>  <s_lp_Force_Field>  (277) 
OPLS3e

>  <r_lp_Energy>  (277) 
14.5684

>  <b_lp_Chiralities_Consistent>  (277) 
1

>  <s_lp_Variant>  (277) 
86:0-1

>  <s_i_glide_gridfile>  (277) 
pfpi4k_grid

>  <i_i_glide_lignum>  (277) 
39

>  <i_i_glide_rotatable_bonds>  (277) 
2

>  <r_i_docking_score>  (277) 
-3.63229

>  <r_i_glide_ligand_efficiency>  (277) 
-0.201794

>  <r_i_glide_ligand_efficiency_sa>  (277) 
-0.52885

>  <r_i_glide_ligand_efficiency_ln>  (277) 
-0.933662

>  <r_i_glide_gscore>  (277) 
-3.63229

>  <r_i_glide_lipo>  (277) 
-0.0965769

>  <r_i_glide_hbond>  (277) 
-0.399753

>  <r_i_glide_metal>  (277) 
-0

>  <r_i_glide_rewards>  (277) 
-1.62747

>  <r_i_glide_evdw>  (277) 
-20.3006

>  <r_i_glide_ecoul>  (277) 
-3.88305

>  <r_i_glide_erotb>  (277) 
0.259506

>  <r_i_glide_esite>  (277) 
-0.170509

>  <r_i_glide_emodel>  (277) 
-29.9107

>  <r_i_glide_energy>  (277) 
-24.1836

>  <r_i_glide_einternal>  (277) 
0.727223

>  <r_i_glide_intrahb_reward>  (277) 
-0

>  <i_i_glide_confnum>  (277) 
4

>  <i_i_glide_posenum>  (277) 
3

>  <r_i_glide_eff_state_penalty>  (277) 
0

>  <ligand_id>  (277) 
86

>  <original_smiles>  (277) 
CC1=Nc2ncnn2C(c2ccsc2)C1C(N)=O

>  <smiles>  (277) 
[H]c1nc2n(n1)C([H])(c1c([H])sc([H])c1[H])C([H])(C(=O)N([H])[H])C(C([H])([H])[H])=N2

$$$$
86:0:2
     RDKit          3D

 29 31  0  0  1  0  0  0  0  0999 V2000
    3.2725   -0.1770    0.9808 C   0  0  0  0  0  0  0  0  0  0  0  0
    2.4079   -0.2049    2.2174 C   0  0  0  0  0  0  0  0  0  0  0  0
    2.5283   -1.1625    3.0559 N   0  0  0  0  0  0  0  0  0  0  0  0
    1.7518   -1.2479    4.1725 C   0  0  0  0  0  0  0  0  0  0  0  0
    1.8955   -2.0410    5.2291 N   0  0  0  0  0  0  0  0  0  0  0  0
    0.7974   -1.6958    5.9625 C   0  0  0  0  0  0  0  0  0  0  0  0
   -0.0183   -0.8064    5.4039 N   0  0  0  0  0  0  0  0  0  0  0  0
    0.6565   -0.4677    4.2765 N   0  0  0  0  0  0  0  0  0  0  0  0
    0.1795    0.4689    3.2597 C   0  0  1  0  0  0  0  0  0  0  0  0
   -0.7382    1.5728    3.7717 C   0  0  0  0  0  0  0  0  0  0  0  0
   -1.7719    2.1533    2.9668 C   0  0  0  0  0  0  0  0  0  0  0  0
   -2.5133    3.1009    3.6199 C   0  0  0  0  0  0  0  0  0  0  0  0
   -1.9716    3.3192    5.2537 S   0  0  0  0  0  0  0  0  0  0  0  0
   -0.7204    2.1304    5.0288 C   0  0  0  0  0  0  0  0  0  0  0  0
    1.3902    0.9486    2.3925 C   0  0  1  0  0  0  0  0  0  0  0  0
    2.1081    2.1526    3.0385 C   0  0  0  0  0  0  0  0  0  0  0  0
    1.8796    3.3652    2.5269 N   0  0  0  0  0  0  0  0  0  0  0  0
    2.8408    2.0082    4.0161 O   0  0  0  0  0  0  0  0  0  0  0  0
    2.6585   -0.2513    0.0809 H   0  0  0  0  0  0  0  0  0  0  0  0
    3.9338   -1.0434    0.9832 H   0  0  0  0  0  0  0  0  0  0  0  0
    3.8948    0.7182    0.9437 H   0  0  0  0  0  0  0  0  0  0  0  0
    0.5766   -2.1185    6.9342 H   0  0  0  0  0  0  0  0  0  0  0  0
   -0.4127   -0.1374    2.5807 H   0  0  0  0  0  0  0  0  0  0  0  0
   -1.9641    1.8314    1.9547 H   0  0  0  0  0  0  0  0  0  0  0  0
   -3.3661    3.6539    3.2410 H   0  0  0  0  0  0  0  0  0  0  0  0
   -0.0643    1.8787    5.8523 H   0  0  0  0  0  0  0  0  0  0  0  0
    1.0280    1.2654    1.4109 H   0  0  0  0  0  0  0  0  0  0  0  0
    1.1905    3.5462    1.7871 H   0  0  0  0  0  0  0  0  0  0  0  0
    2.3427    4.1503    2.9591 H   0  0  0  0  0  0  0  0  0  0  0  0
  1  2  1  0
  1 19  1  0
  1 20  1  0
  1 21  1  0
  2 15  1  0
  2  3  2  0
  3  4  1  0
  4  8  1  0
  4  5  2  0
  5  6  1  0
  6  7  2  0
  6 22  1  0
  7  8  1  0
  8  9  1  0
  9 10  1  0
  9 15  1  0
  9 23  1  6
 10 14  2  0
 10 11  1  0
 11 12  2  0
 11 24  1  0
 12 13  1  0
 12 25  1  0
 13 14  1  0
 14 26  1  0
 15 16  1  0
 15 27  1  6
 16 17  1  0
 16 18  2  0
 17 28  1  0
 17 29  1  0
M  END
>  <i_m_ct_stereo_status>  (278) 
1

>  <s_m_source_file>  (278) 
/var/tmp/pbs.5076255.sched01/tmpm261n1hm/82shs6bvht.sdf

>  <i_m_source_file_index>  (278) 
39

>  <i_lp_mmshare_version>  (278) 
48012

>  <i_f3d_flags>  (278) 
0

>  <s_epik_input>  (278) 
bjFbY0hdbm4oYzEyKVtDQEhdKFtDQEhdKEMoPU4yKVtDSDNdKUMoPU8pW05IMl0pYzNbY0hdW2NIXXNbY0hdMw==

>  <s_epik_cmdline>  (278) 
J2VwaWtfcHl0aG9uJywgJy1waHQnLCAnMi4wJywgJy1waCcsICc3LjAnLCAnLXRuJywgJzgnLCAnLW1hJywgJzIwMCcsICctaW1hZScsICc8aW5maWxlLm1hZT4nLCAnLW9tYWUnLCAnPG91dGZpbGUubWFlPic=

>  <r_lp_tautomer_probability>  (278) 
1

>  <r_epik_Ionization_Penalty>  (278) 
1.82302e-05

>  <r_epik_Ionization_Penalty_Charging>  (278) 
0

>  <r_epik_Ionization_Penalty_Neutral>  (278) 
1.82302e-05

>  <r_epik_State_Penalty>  (278) 
-0

>  <r_epik_Charging_Adjusted_Penalty>  (278) 
0

>  <i_epik_Tot_Q>  (278) 
0

>  <i_epik_Tot_abs_Q>  (278) 
0

>  <s_epik_Chemistry_Notes>  (278) 
This compound has an imine and may undergo hydrolysis.

>  <s_lp_Force_Field>  (278) 
OPLS3e

>  <r_lp_Energy>  (278) 
14.5684

>  <b_lp_Chiralities_Consistent>  (278) 
1

>  <s_lp_Variant>  (278) 
86:0-1

>  <s_i_glide_gridfile>  (278) 
pfpi4k_grid

>  <i_i_glide_lignum>  (278) 
39

>  <i_i_glide_rotatable_bonds>  (278) 
2

>  <r_i_docking_score>  (278) 
-3.43631

>  <r_i_glide_ligand_efficiency>  (278) 
-0.190906

>  <r_i_glide_ligand_efficiency_sa>  (278) 
-0.500316

>  <r_i_glide_ligand_efficiency_ln>  (278) 
-0.883286

>  <r_i_glide_gscore>  (278) 
-3.43631

>  <r_i_glide_lipo>  (278) 
0

>  <r_i_glide_hbond>  (278) 
-0.16

>  <r_i_glide_metal>  (278) 
-0

>  <r_i_glide_rewards>  (278) 
-1.62747

>  <r_i_glide_evdw>  (278) 
-19.4224

>  <r_i_glide_ecoul>  (278) 
-5.23311

>  <r_i_glide_erotb>  (278) 
0.259506

>  <r_i_glide_esite>  (278) 
-0.152256

>  <r_i_glide_emodel>  (278) 
-30.0177

>  <r_i_glide_energy>  (278) 
-24.6555

>  <r_i_glide_einternal>  (278) 
1.40569

>  <r_i_glide_intrahb_reward>  (278) 
-0

>  <i_i_glide_confnum>  (278) 
1

>  <i_i_glide_posenum>  (278) 
15

>  <r_i_glide_eff_state_penalty>  (278) 
0

>  <ligand_id>  (278) 
86

>  <original_smiles>  (278) 
CC1=Nc2ncnn2C(c2ccsc2)C1C(N)=O

>  <smiles>  (278) 
[H]c1nc2n(n1)C([H])(c1c([H])sc([H])c1[H])C([H])(C(=O)N([H])[H])C(C([H])([H])[H])=N2

$$$$
87:0:0
     RDKit          3D

 87 92  0  0  1  0  0  0  0  0999 V2000
   -1.3612   -4.9644    7.5983 C   0  0  0  0  0  0  0  0  0  0  0  0
   -0.3280   -5.4604    8.2836 C   0  0  0  0  0  0  0  0  0  0  0  0
    0.3031   -4.6471    9.4003 C   0  0  0  0  0  0  0  0  0  0  0  0
    0.2535   -6.8622    8.0100 C   0  0  2  0  0  0  0  0  0  0  0  0
    1.2652   -7.3930    9.0169 C   0  0  0  0  0  0  0  0  0  0  0  0
    1.9444   -8.5792    8.3226 C   0  0  1  0  0  0  0  0  0  0  0  0
    1.4875   -9.7791    8.9206 O   0  0  0  0  0  0  0  0  0  0  0  0
    1.6460   -8.4702    6.7835 C   0  0  1  0  0  0  0  0  0  0  0  0
    0.5607   -9.5142    6.3917 C   0  0  0  0  0  0  0  0  0  0  0  0
    0.9233   -7.0894    6.6389 C   0  0  2  0  0  0  0  0  0  0  0  0
    1.8143   -5.8924    6.2667 C   0  0  0  0  0  0  0  0  0  0  0  0
    2.7933   -6.2419    5.1497 C   0  0  0  0  0  0  0  0  0  0  0  0
    3.7879   -7.3544    5.5555 C   0  0  1  0  0  0  0  0  0  0  0  0
    4.5654   -6.8595    6.8100 C   0  0  0  0  0  0  0  0  0  0  0  0
    2.9830   -8.6570    5.9167 C   0  0  2  0  0  0  0  0  0  0  0  0
    2.9880   -9.6841    4.7365 C   0  0  0  0  0  0  0  0  0  0  0  0
    3.0443   -9.0217    3.3535 C   0  0  0  0  0  0  0  0  0  0  0  0
    4.4100   -8.3131    3.0759 C   0  0  2  0  0  0  0  0  0  0  0  0
    5.3820   -9.5193    2.7796 C   0  0  0  0  0  0  0  0  0  0  0  0
    4.8762   -7.6429    4.4358 C   0  0  1  0  0  0  0  0  0  0  0  0
    5.8929   -6.4910    4.2542 C   0  0  0  0  0  0  0  0  0  0  0  0
    6.6962   -6.6042    2.9679 C   0  0  0  0  0  0  0  0  0  0  0  0
    5.7856   -6.4645    1.7296 C   0  0  2  0  0  0  0  0  0  0  0  0
    5.5509   -5.0033    1.2980 C   0  0  0  0  0  0  0  0  0  0  0  0
    5.9642   -3.8958    1.9674 C   0  0  0  0  0  0  0  0  0  0  0  0
    5.7194   -2.4508    1.5788 C   0  0  0  0  0  0  0  0  0  0  0  0
    4.7008   -2.3508    0.4402 C   0  0  0  0  0  0  0  0  0  0  0  0
    3.9084   -1.4222    0.3693 O   0  0  0  0  0  0  0  0  0  0  0  0
    4.7947   -3.4550   -0.6281 C   0  0  1  0  0  0  0  0  0  0  0  0
    3.7829   -3.2602   -1.7640 C   0  0  0  0  0  0  0  0  0  0  0  0
    6.0729   -3.3639   -1.2348 O   0  0  0  0  0  0  0  0  0  0  0  0
    4.6987   -4.8540    0.0619 C   0  0  2  0  0  0  0  0  0  0  0  0
    3.2828   -5.2635    0.5132 C   0  0  0  0  0  0  0  0  0  0  0  0
    3.2230   -6.3085    1.6739 C   0  0  1  0  0  0  0  0  0  0  0  0
    1.9604   -6.9105    1.4680 O   0  0  0  0  0  0  0  0  0  0  0  0
    4.4375   -7.3183    1.7935 C   0  0  2  0  0  0  0  0  0  0  0  0
    4.3889   -8.1931    0.5119 C   0  0  0  0  0  0  0  0  0  0  0  0
   -1.7588   -3.9802    7.8252 H   0  0  0  0  0  0  0  0  0  0  0  0
   -1.8495   -5.5014    6.7922 H   0  0  0  0  0  0  0  0  0  0  0  0
    0.2026   -5.1711   10.3479 H   0  0  0  0  0  0  0  0  0  0  0  0
   -0.1705   -3.6730    9.5090 H   0  0  0  0  0  0  0  0  0  0  0  0
    1.3561   -4.4773    9.1931 H   0  0  0  0  0  0  0  0  0  0  0  0
   -0.5865   -7.5524    8.0790 H   0  0  0  0  0  0  0  0  0  0  0  0
    2.0346   -6.6559    9.2317 H   0  0  0  0  0  0  0  0  0  0  0  0
    0.8071   -7.6623    9.9689 H   0  0  0  0  0  0  0  0  0  0  0  0
    3.0041   -8.5281    8.5448 H   0  0  0  0  0  0  0  0  0  0  0  0
    1.6388  -10.5248    8.3395 H   0  0  0  0  0  0  0  0  0  0  0  0
    0.2277   -9.3876    5.3611 H   0  0  0  0  0  0  0  0  0  0  0  0
   -0.3334   -9.4468    7.0161 H   0  0  0  0  0  0  0  0  0  0  0  0
    0.9128  -10.5403    6.4771 H   0  0  0  0  0  0  0  0  0  0  0  0
    0.1538   -7.1416    5.8657 H   0  0  0  0  0  0  0  0  0  0  0  0
    1.1782   -5.0865    5.9096 H   0  0  0  0  0  0  0  0  0  0  0  0
    2.3333   -5.4822    7.1341 H   0  0  0  0  0  0  0  0  0  0  0  0
    2.1702   -6.5582    4.3168 H   0  0  0  0  0  0  0  0  0  0  0  0
    3.3043   -5.3356    4.8217 H   0  0  0  0  0  0  0  0  0  0  0  0
    5.3967   -7.5168    7.0637 H   0  0  0  0  0  0  0  0  0  0  0  0
    3.9469   -6.7841    7.7014 H   0  0  0  0  0  0  0  0  0  0  0  0
    4.9695   -5.8562    6.6559 H   0  0  0  0  0  0  0  0  0  0  0  0
    3.6361   -9.1914    6.6009 H   0  0  0  0  0  0  0  0  0  0  0  0
    3.8373  -10.3540    4.8544 H   0  0  0  0  0  0  0  0  0  0  0  0
    2.1486  -10.3728    4.7328 H   0  0  0  0  0  0  0  0  0  0  0  0
    2.8509   -9.7850    2.5962 H   0  0  0  0  0  0  0  0  0  0  0  0
    2.1783   -8.3833    3.3223 H   0  0  0  0  0  0  0  0  0  0  0  0
    6.3068   -9.2354    2.2899 H   0  0  0  0  0  0  0  0  0  0  0  0
    4.9326  -10.2547    2.1127 H   0  0  0  0  0  0  0  0  0  0  0  0
    5.6722  -10.0831    3.6641 H   0  0  0  0  0  0  0  0  0  0  0  0
    5.4818   -8.3994    4.9314 H   0  0  0  0  0  0  0  0  0  0  0  0
    5.4186   -5.5128    4.3168 H   0  0  0  0  0  0  0  0  0  0  0  0
    6.6091   -6.5247    5.0765 H   0  0  0  0  0  0  0  0  0  0  0  0
    7.5085   -5.8783    2.9508 H   0  0  0  0  0  0  0  0  0  0  0  0
    7.2500   -7.5407    2.9518 H   0  0  0  0  0  0  0  0  0  0  0  0
    6.3948   -6.8630    0.9151 H   0  0  0  0  0  0  0  0  0  0  0  0
    6.5022   -4.0351    2.8723 H   0  0  0  0  0  0  0  0  0  0  0  0
    5.3349   -1.8878    2.4359 H   0  0  0  0  0  0  0  0  0  0  0  0
    6.6519   -1.9755    1.2734 H   0  0  0  0  0  0  0  0  0  0  0  0
    2.7546   -3.2861   -1.4050 H   0  0  0  0  0  0  0  0  0  0  0  0
    3.8870   -4.0423   -2.5162 H   0  0  0  0  0  0  0  0  0  0  0  0
    3.9222   -2.3101   -2.2747 H   0  0  0  0  0  0  0  0  0  0  0  0
    6.1207   -4.0146   -1.9220 H   0  0  0  0  0  0  0  0  0  0  0  0
    5.0647   -5.5924   -0.6560 H   0  0  0  0  0  0  0  0  0  0  0  0
    2.7280   -4.3896    0.8497 H   0  0  0  0  0  0  0  0  0  0  0  0
    2.7332   -5.6306   -0.3427 H   0  0  0  0  0  0  0  0  0  0  0  0
    3.1967   -5.7345    2.5961 H   0  0  0  0  0  0  0  0  0  0  0  0
    1.8623   -7.6090    2.0996 H   0  0  0  0  0  0  0  0  0  0  0  0
    4.2331   -7.5912   -0.3833 H   0  0  0  0  0  0  0  0  0  0  0  0
    3.5827   -8.9240    0.5328 H   0  0  0  0  0  0  0  0  0  0  0  0
    5.3138   -8.7408    0.3292 H   0  0  0  0  0  0  0  0  0  0  0  0
  1  2  2  0
  1 38  1  0
  1 39  1  0
  2  3  1  0
  2  4  1  0
  3 40  1  0
  3 41  1  0
  3 42  1  0
  4 10  1  0
  4  5  1  0
  4 43  1  6
  5  6  1  0
  5 44  1  0
  5 45  1  0
  6  7  1  0
  6  8  1  0
  6 46  1  6
  7 47  1  0
  8 15  1  0
  8  9  1  6
  8 10  1  0
  9 48  1  0
  9 49  1  0
  9 50  1  0
 10 11  1  0
 10 51  1  6
 11 12  1  0
 11 52  1  0
 11 53  1  0
 12 13  1  0
 12 54  1  0
 12 55  1  0
 13 20  1  0
 13 14  1  1
 13 15  1  0
 14 56  1  0
 14 57  1  0
 14 58  1  0
 15 16  1  0
 15 59  1  1
 16 17  1  0
 16 60  1  0
 16 61  1  0
 17 18  1  0
 17 62  1  0
 17 63  1  0
 18 36  1  0
 18 19  1  6
 18 20  1  0
 19 64  1  0
 19 65  1  0
 19 66  1  0
 20 21  1  0
 20 67  1  1
 21 22  1  0
 21 68  1  0
 21 69  1  0
 22 23  1  0
 22 70  1  0
 22 71  1  0
 23 36  1  0
 23 24  1  0
 23 72  1  6
 24 32  1  0
 24 25  2  0
 25 26  1  0
 25 73  1  0
 26 27  1  0
 26 74  1  0
 26 75  1  0
 27 28  2  0
 27 29  1  0
 29 30  1  0
 29 31  1  6
 29 32  1  0
 30 76  1  0
 30 77  1  0
 30 78  1  0
 31 79  1  0
 32 33  1  0
 32 80  1  6
 33 34  1  0
 33 81  1  0
 33 82  1  0
 34 35  1  0
 34 36  1  0
 34 83  1  1
 35 84  1  0
 36 37  1  6
 37 85  1  0
 37 86  1  0
 37 87  1  0
M  END
>  <i_m_ct_stereo_status>  (279) 
1

>  <s_m_source_file>  (279) 
/var/tmp/pbs.5076255.sched01/tmpm261n1hm/82shs6bvht.sdf

>  <i_m_source_file_index>  (279) 
40

>  <i_lp_mmshare_version>  (279) 
48012

>  <i_f3d_flags>  (279) 
0

>  <s_epik_input>  (279) 
W09IXVtDQEBIXTFbQ0gyXVtDQEBIXShDKD1bQ0gyXSlbQ0gzXSlbQ0BIXShbQ0BdMTJbQ0gzXSlbQ0gyXVtDSDJdW0NAQF0zKFtDSDNdKVtDQEBIXTJbQ0gyXVtDSDJdW0NAXTQoW0NIM10pW0NASF0zW0NIMl1bQ0gyXVtDQEBIXTVDPTZbQ0BIXShbQ0BdKFtDSDNdKShbT0hdKUMoPU8pW0NIMl1bQ0hdNilbQ0gyXVtDQEBIXShbT0hdKVtDQF00NVtDSDNd

>  <s_epik_cmdline>  (279) 
J2VwaWtfcHl0aG9uJywgJy1waHQnLCAnMi4wJywgJy1waCcsICc3LjAnLCAnLXRuJywgJzgnLCAnLW1hJywgJzIwMCcsICctaW1hZScsICc8aW5maWxlLm1hZT4nLCAnLW9tYWUnLCAnPG91dGZpbGUubWFlPic=

>  <r_lp_tautomer_probability>  (279) 
1

>  <r_epik_Ionization_Penalty>  (279) 
2.70474e-06

>  <r_epik_Ionization_Penalty_Charging>  (279) 
0

>  <r_epik_Ionization_Penalty_Neutral>  (279) 
2.70474e-06

>  <r_epik_State_Penalty>  (279) 
-0

>  <r_epik_Charging_Adjusted_Penalty>  (279) 
0

>  <i_epik_Tot_Q>  (279) 
0

>  <i_epik_Tot_abs_Q>  (279) 
0

>  <s_lp_Force_Field>  (279) 
OPLS3e

>  <r_lp_Energy>  (279) 
113.807

>  <b_lp_Chiralities_Consistent>  (279) 
1

>  <s_lp_Variant>  (279) 
87:0-1

>  <s_i_glide_gridfile>  (279) 
pfpi4k_grid

>  <i_i_glide_lignum>  (279) 
40

>  <i_i_glide_rotatable_bonds>  (279) 
4

>  <r_i_docking_score>  (279) 
-2.60494

>  <r_i_glide_ligand_efficiency>  (279) 
-0.0704037

>  <r_i_glide_ligand_efficiency_sa>  (279) 
-0.234601

>  <r_i_glide_ligand_efficiency_ln>  (279) 
-0.56495

>  <r_i_glide_gscore>  (279) 
-2.60494

>  <r_i_glide_lipo>  (279) 
-0.47921

>  <r_i_glide_hbond>  (279) 
-0.16

>  <r_i_glide_metal>  (279) 
-0

>  <r_i_glide_rewards>  (279) 
-0.00313862

>  <r_i_glide_evdw>  (279) 
-28.5774

>  <r_i_glide_ecoul>  (279) 
-4.08176

>  <r_i_glide_erotb>  (279) 
0.0785413

>  <r_i_glide_esite>  (279) 
0

>  <r_i_glide_emodel>  (279) 
-34.7883

>  <r_i_glide_energy>  (279) 
-32.6591

>  <r_i_glide_einternal>  (279) 
5.32065

>  <r_i_glide_intrahb_reward>  (279) 
-0

>  <i_i_glide_confnum>  (279) 
3

>  <i_i_glide_posenum>  (279) 
24

>  <r_i_glide_eff_state_penalty>  (279) 
0

>  <ligand_id>  (279) 
87

>  <original_smiles>  (279) 
C=C(C)C1CC(O)C2(C)C1CCC1(C)C2CCC2(C)C1CCC1C3=CCC(=O)C(C)(O)C3CC(O)C12C

>  <smiles>  (279) 
[H]OC1([H])C([H])([H])C([H])(C(=C([H])[H])C([H])([H])[H])C2([H])C([H])([H])C([H])([H])C3(C([H])([H])[H])C([H])(C([H])([H])C([H])([H])C4(C([H])([H])[H])C3([H])C([H])([H])C([H])([H])C3([H])C5=C([H])C([H])([H])C(=O)C(O[H])(C([H])([H])[H])C5([H])C([H])([H])C([H])(O[H])C34C([H])([H])[H])C12C([H])([H])[H]

$$$$
87:0:1
     RDKit          3D

 87 92  0  0  1  0  0  0  0  0999 V2000
   -0.0260   -4.3616    9.3603 C   0  0  0  0  0  0  0  0  0  0  0  0
   -0.3368   -5.1349    8.3071 C   0  0  0  0  0  0  0  0  0  0  0  0
   -1.3613   -4.6695    7.2818 C   0  0  0  0  0  0  0  0  0  0  0  0
    0.2591   -6.5296    8.0609 C   0  0  2  0  0  0  0  0  0  0  0  0
    1.2950   -7.0326    9.0669 C   0  0  0  0  0  0  0  0  0  0  0  0
    1.9696   -8.2349    8.3833 C   0  0  1  0  0  0  0  0  0  0  0  0
    1.5301   -9.4327    8.9995 O   0  0  0  0  0  0  0  0  0  0  0  0
    1.6524   -8.1598    6.8426 C   0  0  1  0  0  0  0  0  0  0  0  0
    0.5563   -9.2151    6.4896 C   0  0  0  0  0  0  0  0  0  0  0  0
    0.9378   -6.7689    6.6940 C   0  0  2  0  0  0  0  0  0  0  0  0
    1.8436   -5.5877    6.2928 C   0  0  0  0  0  0  0  0  0  0  0  0
    2.7956   -5.9651    5.1632 C   0  0  0  0  0  0  0  0  0  0  0  0
    3.7896   -7.0732    5.5747 C   0  0  1  0  0  0  0  0  0  0  0  0
    4.5847   -6.5702    6.8151 C   0  0  0  0  0  0  0  0  0  0  0  0
    2.9820   -8.3701    5.9626 C   0  0  2  0  0  0  0  0  0  0  0  0
    2.9483   -9.4038    4.7874 C   0  0  0  0  0  0  0  0  0  0  0  0
    3.0067   -8.7635    3.3928 C   0  0  0  0  0  0  0  0  0  0  0  0
    4.3761   -8.0652    3.0926 C   0  0  2  0  0  0  0  0  0  0  0  0
    5.3325   -9.2843    2.8012 C   0  0  0  0  0  0  0  0  0  0  0  0
    4.8588   -7.3782    4.4419 C   0  0  1  0  0  0  0  0  0  0  0  0
    5.8959   -6.2487    4.2386 C   0  0  0  0  0  0  0  0  0  0  0  0
    6.6824   -6.3809    2.9435 C   0  0  0  0  0  0  0  0  0  0  0  0
    5.7545   -6.2431    1.7138 C   0  0  2  0  0  0  0  0  0  0  0  0
    5.5392   -4.7771    1.2693 C   0  0  0  0  0  0  0  0  0  0  0  0
    5.9841   -3.6767    1.9133 C   0  0  0  0  0  0  0  0  0  0  0  0
    5.7275   -2.2238    1.5136 C   0  0  0  0  0  0  0  0  0  0  0  0
    4.6966   -2.1269    0.3881 C   0  0  0  0  0  0  0  0  0  0  0  0
    3.8943   -1.1924    0.3299 O   0  0  0  0  0  0  0  0  0  0  0  0
    4.7622   -3.2471   -0.6612 C   0  0  1  0  0  0  0  0  0  0  0  0
    3.7323   -3.0587   -1.7921 C   0  0  0  0  0  0  0  0  0  0  0  0
    6.0364   -3.1821   -1.2847 O   0  0  0  0  0  0  0  0  0  0  0  0
    4.6580   -4.6403    0.0451 C   0  0  2  0  0  0  0  0  0  0  0  0
    3.2417   -5.0355    0.5112 C   0  0  0  0  0  0  0  0  0  0  0  0
    3.1878   -6.0708    1.6775 C   0  0  1  0  0  0  0  0  0  0  0  0
    1.9177   -6.6679    1.4960 O   0  0  0  0  0  0  0  0  0  0  0  0
    4.3993   -7.0883    1.7931 C   0  0  2  0  0  0  0  0  0  0  0  0
    4.3433   -7.9689    0.5102 C   0  0  0  0  0  0  0  0  0  0  0  0
   -0.4815   -3.3882    9.4916 H   0  0  0  0  0  0  0  0  0  0  0  0
    0.6812   -4.6647   10.1210 H   0  0  0  0  0  0  0  0  0  0  0  0
   -0.9312   -4.6057    6.2848 H   0  0  0  0  0  0  0  0  0  0  0  0
   -1.7626   -3.6878    7.5322 H   0  0  0  0  0  0  0  0  0  0  0  0
   -2.1932   -5.3713    7.2431 H   0  0  0  0  0  0  0  0  0  0  0  0
   -0.5852   -7.2127    8.1438 H   0  0  0  0  0  0  0  0  0  0  0  0
    2.0472   -6.2666    9.2552 H   0  0  0  0  0  0  0  0  0  0  0  0
    0.8562   -7.2844   10.0327 H   0  0  0  0  0  0  0  0  0  0  0  0
    3.0340   -8.1873    8.5909 H   0  0  0  0  0  0  0  0  0  0  0  0
    1.8069  -10.1749    8.4721 H   0  0  0  0  0  0  0  0  0  0  0  0
    0.2226   -9.1108    5.4554 H   0  0  0  0  0  0  0  0  0  0  0  0
   -0.3368   -9.1145    7.1090 H   0  0  0  0  0  0  0  0  0  0  0  0
    0.9038  -10.2405    6.6274 H   0  0  0  0  0  0  0  0  0  0  0  0
    0.1677   -6.8342    5.9231 H   0  0  0  0  0  0  0  0  0  0  0  0
    1.2320   -4.7648    5.9289 H   0  0  0  0  0  0  0  0  0  0  0  0
    2.3791   -5.1771    7.1496 H   0  0  0  0  0  0  0  0  0  0  0  0
    2.1613   -6.2809    4.3419 H   0  0  0  0  0  0  0  0  0  0  0  0
    3.3123   -5.0678    4.8221 H   0  0  0  0  0  0  0  0  0  0  0  0
    5.4130   -7.2341    7.0646 H   0  0  0  0  0  0  0  0  0  0  0  0
    3.9780   -6.4820    7.7116 H   0  0  0  0  0  0  0  0  0  0  0  0
    4.9935   -5.5736    6.6435 H   0  0  0  0  0  0  0  0  0  0  0  0
    3.6395   -8.9053    6.6439 H   0  0  0  0  0  0  0  0  0  0  0  0
    3.7962  -10.0776    4.8984 H   0  0  0  0  0  0  0  0  0  0  0  0
    2.1116  -10.0927    4.8072 H   0  0  0  0  0  0  0  0  0  0  0  0
    2.7916   -9.5262    2.6430 H   0  0  0  0  0  0  0  0  0  0  0  0
    2.1468   -8.1134    3.3640 H   0  0  0  0  0  0  0  0  0  0  0  0
    6.2542   -9.0152    2.2971 H   0  0  0  0  0  0  0  0  0  0  0  0
    4.8693  -10.0255    2.1469 H   0  0  0  0  0  0  0  0  0  0  0  0
    5.6285   -9.8399    3.6889 H   0  0  0  0  0  0  0  0  0  0  0  0
    5.4589   -8.1422    4.9370 H   0  0  0  0  0  0  0  0  0  0  0  0
    5.4304   -5.2659    4.2892 H   0  0  0  0  0  0  0  0  0  0  0  0
    6.6129   -6.2767    5.0590 H   0  0  0  0  0  0  0  0  0  0  0  0
    7.5018   -5.6661    2.9143 H   0  0  0  0  0  0  0  0  0  0  0  0
    7.2137   -7.3252    2.9379 H   0  0  0  0  0  0  0  0  0  0  0  0
    6.3543   -6.6479    0.8979 H   0  0  0  0  0  0  0  0  0  0  0  0
    6.5626   -3.7998    2.7994 H   0  0  0  0  0  0  0  0  0  0  0  0
    5.3572   -1.6673    2.3741 H   0  0  0  0  0  0  0  0  0  0  0  0
    6.6545   -1.7461    1.1973 H   0  0  0  0  0  0  0  0  0  0  0  0
    2.7093   -3.0663   -1.4161 H   0  0  0  0  0  0  0  0  0  0  0  0
    3.8109   -3.8522   -2.5346 H   0  0  0  0  0  0  0  0  0  0  0  0
    3.8771   -2.1126   -2.3125 H   0  0  0  0  0  0  0  0  0  0  0  0
    6.0839   -3.8607   -1.9401 H   0  0  0  0  0  0  0  0  0  0  0  0
    5.0119   -5.3850   -0.6685 H   0  0  0  0  0  0  0  0  0  0  0  0
    2.6948   -4.1506    0.8442 H   0  0  0  0  0  0  0  0  0  0  0  0
    2.6886   -5.4023   -0.3522 H   0  0  0  0  0  0  0  0  0  0  0  0
    3.1702   -5.4878    2.5945 H   0  0  0  0  0  0  0  0  0  0  0  0
    1.8308   -7.3671    2.1250 H   0  0  0  0  0  0  0  0  0  0  0  0
    4.2225   -7.3742   -0.3910 H   0  0  0  0  0  0  0  0  0  0  0  0
    3.5143   -8.6738    0.5389 H   0  0  0  0  0  0  0  0  0  0  0  0
    5.2484   -8.5545    0.3490 H   0  0  0  0  0  0  0  0  0  0  0  0
  1  2  2  0
  1 38  1  0
  1 39  1  0
  2  3  1  0
  2  4  1  0
  3 40  1  0
  3 41  1  0
  3 42  1  0
  4 10  1  0
  4  5  1  0
  4 43  1  6
  5  6  1  0
  5 44  1  0
  5 45  1  0
  6  7  1  0
  6  8  1  0
  6 46  1  6
  7 47  1  0
  8 15  1  0
  8  9  1  6
  8 10  1  0
  9 48  1  0
  9 49  1  0
  9 50  1  0
 10 11  1  0
 10 51  1  6
 11 12  1  0
 11 52  1  0
 11 53  1  0
 12 13  1  0
 12 54  1  0
 12 55  1  0
 13 20  1  0
 13 14  1  1
 13 15  1  0
 14 56  1  0
 14 57  1  0
 14 58  1  0
 15 16  1  0
 15 59  1  1
 16 17  1  0
 16 60  1  0
 16 61  1  0
 17 18  1  0
 17 62  1  0
 17 63  1  0
 18 36  1  0
 18 19  1  6
 18 20  1  0
 19 64  1  0
 19 65  1  0
 19 66  1  0
 20 21  1  0
 20 67  1  1
 21 22  1  0
 21 68  1  0
 21 69  1  0
 22 23  1  0
 22 70  1  0
 22 71  1  0
 23 36  1  0
 23 24  1  0
 23 72  1  6
 24 32  1  0
 24 25  2  0
 25 26  1  0
 25 73  1  0
 26 27  1  0
 26 74  1  0
 26 75  1  0
 27 28  2  0
 27 29  1  0
 29 30  1  0
 29 31  1  6
 29 32  1  0
 30 76  1  0
 30 77  1  0
 30 78  1  0
 31 79  1  0
 32 33  1  0
 32 80  1  6
 33 34  1  0
 33 81  1  0
 33 82  1  0
 34 35  1  0
 34 36  1  0
 34 83  1  1
 35 84  1  0
 36 37  1  6
 37 85  1  0
 37 86  1  0
 37 87  1  0
M  END
>  <i_m_ct_stereo_status>  (280) 
1

>  <s_m_source_file>  (280) 
/var/tmp/pbs.5076255.sched01/tmpm261n1hm/82shs6bvht.sdf

>  <i_m_source_file_index>  (280) 
40

>  <i_lp_mmshare_version>  (280) 
48012

>  <i_f3d_flags>  (280) 
0

>  <s_epik_input>  (280) 
W09IXVtDQEBIXTFbQ0gyXVtDQEBIXShDKD1bQ0gyXSlbQ0gzXSlbQ0BIXShbQ0BdMTJbQ0gzXSlbQ0gyXVtDSDJdW0NAQF0zKFtDSDNdKVtDQEBIXTJbQ0gyXVtDSDJdW0NAXTQoW0NIM10pW0NASF0zW0NIMl1bQ0gyXVtDQEBIXTVDPTZbQ0BIXShbQ0BdKFtDSDNdKShbT0hdKUMoPU8pW0NIMl1bQ0hdNilbQ0gyXVtDQEBIXShbT0hdKVtDQF00NVtDSDNd

>  <s_epik_cmdline>  (280) 
J2VwaWtfcHl0aG9uJywgJy1waHQnLCAnMi4wJywgJy1waCcsICc3LjAnLCAnLXRuJywgJzgnLCAnLW1hJywgJzIwMCcsICctaW1hZScsICc8aW5maWxlLm1hZT4nLCAnLW9tYWUnLCAnPG91dGZpbGUubWFlPic=

>  <r_lp_tautomer_probability>  (280) 
1

>  <r_epik_Ionization_Penalty>  (280) 
2.70474e-06

>  <r_epik_Ionization_Penalty_Charging>  (280) 
0

>  <r_epik_Ionization_Penalty_Neutral>  (280) 
2.70474e-06

>  <r_epik_State_Penalty>  (280) 
-0

>  <r_epik_Charging_Adjusted_Penalty>  (280) 
0

>  <i_epik_Tot_Q>  (280) 
0

>  <i_epik_Tot_abs_Q>  (280) 
0

>  <s_lp_Force_Field>  (280) 
OPLS3e

>  <r_lp_Energy>  (280) 
113.807

>  <b_lp_Chiralities_Consistent>  (280) 
1

>  <s_lp_Variant>  (280) 
87:0-1

>  <s_i_glide_gridfile>  (280) 
pfpi4k_grid

>  <i_i_glide_lignum>  (280) 
40

>  <i_i_glide_rotatable_bonds>  (280) 
4

>  <r_i_docking_score>  (280) 
-2.37788

>  <r_i_glide_ligand_efficiency>  (280) 
-0.0642669

>  <r_i_glide_ligand_efficiency_sa>  (280) 
-0.214152

>  <r_i_glide_ligand_efficiency_ln>  (280) 
-0.515705

>  <r_i_glide_gscore>  (280) 
-2.37788

>  <r_i_glide_lipo>  (280) 
-0.497466

>  <r_i_glide_hbond>  (280) 
-0.0325094

>  <r_i_glide_metal>  (280) 
-0

>  <r_i_glide_rewards>  (280) 
-0.00199476

>  <r_i_glide_evdw>  (280) 
-29.3463

>  <r_i_glide_ecoul>  (280) 
-3.04753

>  <r_i_glide_erotb>  (280) 
0.0785413

>  <r_i_glide_esite>  (280) 
0

>  <r_i_glide_emodel>  (280) 
-36.2757

>  <r_i_glide_energy>  (280) 
-32.3939

>  <r_i_glide_einternal>  (280) 
1.08613

>  <r_i_glide_intrahb_reward>  (280) 
-0

>  <i_i_glide_confnum>  (280) 
3

>  <i_i_glide_posenum>  (280) 
13

>  <r_i_glide_eff_state_penalty>  (280) 
0

>  <ligand_id>  (280) 
87

>  <original_smiles>  (280) 
C=C(C)C1CC(O)C2(C)C1CCC1(C)C2CCC2(C)C1CCC1C3=CCC(=O)C(C)(O)C3CC(O)C12C

>  <smiles>  (280) 
[H]OC1([H])C([H])([H])C([H])(C(=C([H])[H])C([H])([H])[H])C2([H])C([H])([H])C([H])([H])C3(C([H])([H])[H])C([H])(C([H])([H])C([H])([H])C4(C([H])([H])[H])C3([H])C([H])([H])C([H])([H])C3([H])C5=C([H])C([H])([H])C(=O)C(O[H])(C([H])([H])[H])C5([H])C([H])([H])C([H])(O[H])C34C([H])([H])[H])C12C([H])([H])[H]

$$$$
87:0:2
     RDKit          3D

 87 92  0  0  1  0  0  0  0  0999 V2000
   -0.2522   -2.5256    6.9599 C   0  0  0  0  0  0  0  0  0  0  0  0
    0.2059   -3.2347    8.0041 C   0  0  0  0  0  0  0  0  0  0  0  0
    0.2704   -2.6020    9.3859 C   0  0  0  0  0  0  0  0  0  0  0  0
    0.6580   -4.7029    7.9021 C   0  0  2  0  0  0  0  0  0  0  0  0
    1.7122   -5.1446    8.9223 C   0  0  0  0  0  0  0  0  0  0  0  0
    2.2769   -6.4727    8.3989 C   0  0  1  0  0  0  0  0  0  0  0  0
    1.8083   -7.5393    9.2053 O   0  0  0  0  0  0  0  0  0  0  0  0
    1.8885   -6.5961    6.8789 C   0  0  1  0  0  0  0  0  0  0  0  0
    0.7053   -7.6039    6.7313 C   0  0  0  0  0  0  0  0  0  0  0  0
    1.2652   -5.1875    6.5535 C   0  0  2  0  0  0  0  0  0  0  0  0
    2.2496   -4.1595    5.9516 C   0  0  0  0  0  0  0  0  0  0  0  0
    3.1127   -4.7686    4.8598 C   0  0  0  0  0  0  0  0  0  0  0  0
    4.0401   -5.8779    5.3935 C   0  0  1  0  0  0  0  0  0  0  0  0
    4.9284   -5.2643    6.5162 C   0  0  0  0  0  0  0  0  0  0  0  0
    3.1581   -7.0361    5.9955 C   0  0  2  0  0  0  0  0  0  0  0  0
    2.9872   -8.2153    4.9804 C   0  0  0  0  0  0  0  0  0  0  0  0
    3.0265   -7.7860    3.5055 C   0  0  0  0  0  0  0  0  0  0  0  0
    4.4265   -7.2490    3.0576 C   0  0  2  0  0  0  0  0  0  0  0  0
    5.2772   -8.5677    2.9096 C   0  0  0  0  0  0  0  0  0  0  0  0
    5.0251   -6.4257    4.2770 C   0  0  1  0  0  0  0  0  0  0  0  0
    6.1324   -5.4278    3.8749 C   0  0  0  0  0  0  0  0  0  0  0  0
    6.8417   -5.7968    2.5826 C   0  0  0  0  0  0  0  0  0  0  0  0
    5.8660   -5.7490    1.3864 C   0  0  2  0  0  0  0  0  0  0  0  0
    5.7438   -4.3407    0.7564 C   0  0  0  0  0  0  0  0  0  0  0  0
    6.3122   -3.2002    1.2152 C   0  0  0  0  0  0  0  0  0  0  0  0
    6.1228   -1.8084    0.6084 C   0  0  0  0  0  0  0  0  0  0  0  0
    5.0404   -1.8000   -0.4750 C   0  0  0  0  0  0  0  0  0  0  0  0
    4.3061   -0.8237   -0.6426 O   0  0  0  0  0  0  0  0  0  0  0  0
    4.9755   -3.0531   -1.3541 C   0  0  1  0  0  0  0  0  0  0  0  0
    3.9080   -2.9574   -2.4635 C   0  0  0  0  0  0  0  0  0  0  0  0
    6.2153   -3.1598   -2.0333 O   0  0  0  0  0  0  0  0  0  0  0  0
    4.8130   -4.3146   -0.4450 C   0  0  2  0  0  0  0  0  0  0  0  0
    3.3896   -4.5321    0.1084 C   0  0  0  0  0  0  0  0  0  0  0  0
    3.3073   -5.3849    1.4130 C   0  0  1  0  0  0  0  0  0  0  0  0
    1.9853   -5.9007    1.3762 O   0  0  0  0  0  0  0  0  0  0  0  0
    4.4527   -6.4639    1.6331 C   0  0  2  0  0  0  0  0  0  0  0  0
    4.2660   -7.5071    0.4949 C   0  0  0  0  0  0  0  0  0  0  0  0
   -0.5416   -1.4890    7.0676 H   0  0  0  0  0  0  0  0  0  0  0  0
   -0.3515   -2.9635    5.9747 H   0  0  0  0  0  0  0  0  0  0  0  0
   -0.3756   -3.1428   10.0753 H   0  0  0  0  0  0  0  0  0  0  0  0
   -0.0515   -1.5605    9.3655 H   0  0  0  0  0  0  0  0  0  0  0  0
    1.2867   -2.6126    9.7812 H   0  0  0  0  0  0  0  0  0  0  0  0
   -0.2407   -5.2782    8.1163 H   0  0  0  0  0  0  0  0  0  0  0  0
    2.5229   -4.4173    8.9648 H   0  0  0  0  0  0  0  0  0  0  0  0
    1.3138   -5.2283    9.9344 H   0  0  0  0  0  0  0  0  0  0  0  0
    3.3511   -6.4713    8.5601 H   0  0  0  0  0  0  0  0  0  0  0  0
    2.1949   -8.3456    8.8955 H   0  0  0  0  0  0  0  0  0  0  0  0
    0.3305   -7.6212    5.7064 H   0  0  0  0  0  0  0  0  0  0  0  0
   -0.1434   -7.3403    7.3649 H   0  0  0  0  0  0  0  0  0  0  0  0
    0.9854   -8.6223    7.0063 H   0  0  0  0  0  0  0  0  0  0  0  0
    0.4616   -5.3024    5.8252 H   0  0  0  0  0  0  0  0  0  0  0  0
    1.7091   -3.3513    5.4680 H   0  0  0  0  0  0  0  0  0  0  0  0
    2.8517   -3.6785    6.7217 H   0  0  0  0  0  0  0  0  0  0  0  0
    2.4192   -5.1459    4.1158 H   0  0  0  0  0  0  0  0  0  0  0  0
    3.6761   -3.9732    4.3742 H   0  0  0  0  0  0  0  0  0  0  0  0
    5.7185   -5.9470    6.8298 H   0  0  0  0  0  0  0  0  0  0  0  0
    4.3743   -5.0017    7.4128 H   0  0  0  0  0  0  0  0  0  0  0  0
    5.3969   -4.3358    6.1863 H   0  0  0  0  0  0  0  0  0  0  0  0
    3.8086   -7.5210    6.7219 H   0  0  0  0  0  0  0  0  0  0  0  0
    3.7891   -8.9300    5.1535 H   0  0  0  0  0  0  0  0  0  0  0  0
    2.1069   -8.8301    5.1335 H   0  0  0  0  0  0  0  0  0  0  0  0
    2.7196   -8.6274    2.8831 H   0  0  0  0  0  0  0  0  0  0  0  0
    2.2189   -7.0791    3.3995 H   0  0  0  0  0  0  0  0  0  0  0  0
    6.1895   -8.4454    2.3374 H   0  0  0  0  0  0  0  0  0  0  0  0
    4.7310   -9.3546    2.3888 H   0  0  0  0  0  0  0  0  0  0  0  0
    5.5763   -9.0124    3.8568 H   0  0  0  0  0  0  0  0  0  0  0  0
    5.5892   -7.1569    4.8548 H   0  0  0  0  0  0  0  0  0  0  0  0
    5.7413   -4.4145    3.7965 H   0  0  0  0  0  0  0  0  0  0  0  0
    6.8837   -5.3934    4.6648 H   0  0  0  0  0  0  0  0  0  0  0  0
    7.7045   -5.1538    2.4196 H   0  0  0  0  0  0  0  0  0  0  0  0
    7.3032   -6.7717    2.6890 H   0  0  0  0  0  0  0  0  0  0  0  0
    6.3915   -6.3051    0.6090 H   0  0  0  0  0  0  0  0  0  0  0  0
    6.9537   -3.2053    2.0809 H   0  0  0  0  0  0  0  0  0  0  0  0
    5.8339   -1.1077    1.3906 H   0  0  0  0  0  0  0  0  0  0  0  0
    7.0617   -1.4535    0.1862 H   0  0  0  0  0  0  0  0  0  0  0  0
    2.9047   -2.8246   -2.0570 H   0  0  0  0  0  0  0  0  0  0  0  0
    3.8894   -3.8532   -3.0837 H   0  0  0  0  0  0  0  0  0  0  0  0
    4.0946   -2.1118   -3.1258 H   0  0  0  0  0  0  0  0  0  0  0  0
    6.1937   -3.9257   -2.5840 H   0  0  0  0  0  0  0  0  0  0  0  0
    5.0720   -5.1773   -1.0591 H   0  0  0  0  0  0  0  0  0  0  0  0
    2.9253   -3.5699    0.3309 H   0  0  0  0  0  0  0  0  0  0  0  0
    2.7789   -4.9609   -0.6871 H   0  0  0  0  0  0  0  0  0  0  0  0
    3.3755   -4.6732    2.2294 H   0  0  0  0  0  0  0  0  0  0  0  0
    1.9920   -6.6656    0.8207 H   0  0  0  0  0  0  0  0  0  0  0  0
    4.1174   -7.0409   -0.4766 H   0  0  0  0  0  0  0  0  0  0  0  0
    3.4144   -8.1563    0.6888 H   0  0  0  0  0  0  0  0  0  0  0  0
    5.1246   -8.1646    0.3666 H   0  0  0  0  0  0  0  0  0  0  0  0
  1  2  2  0
  1 38  1  0
  1 39  1  0
  2  3  1  0
  2  4  1  0
  3 40  1  0
  3 41  1  0
  3 42  1  0
  4 10  1  0
  4  5  1  0
  4 43  1  1
  5  6  1  0
  5 44  1  0
  5 45  1  0
  6  7  1  0
  6  8  1  0
  6 46  1  6
  7 47  1  0
  8 15  1  0
  8  9  1  1
  8 10  1  0
  9 48  1  0
  9 49  1  0
  9 50  1  0
 10 11  1  0
 10 51  1  6
 11 12  1  0
 11 52  1  0
 11 53  1  0
 12 13  1  0
 12 54  1  0
 12 55  1  0
 13 20  1  0
 13 14  1  1
 13 15  1  0
 14 56  1  0
 14 57  1  0
 14 58  1  0
 15 16  1  0
 15 59  1  1
 16 17  1  0
 16 60  1  0
 16 61  1  0
 17 18  1  0
 17 62  1  0
 17 63  1  0
 18 36  1  0
 18 19  1  6
 18 20  1  0
 19 64  1  0
 19 65  1  0
 19 66  1  0
 20 21  1  0
 20 67  1  1
 21 22  1  0
 21 68  1  0
 21 69  1  0
 22 23  1  0
 22 70  1  0
 22 71  1  0
 23 36  1  0
 23 24  1  0
 23 72  1  6
 24 32  1  0
 24 25  2  0
 25 26  1  0
 25 73  1  0
 26 27  1  0
 26 74  1  0
 26 75  1  0
 27 28  2  0
 27 29  1  0
 29 30  1  0
 29 31  1  6
 29 32  1  0
 30 76  1  0
 30 77  1  0
 30 78  1  0
 31 79  1  0
 32 33  1  0
 32 80  1  6
 33 34  1  0
 33 81  1  0
 33 82  1  0
 34 35  1  0
 34 36  1  0
 34 83  1  1
 35 84  1  0
 36 37  1  6
 37 85  1  0
 37 86  1  0
 37 87  1  0
M  END
>  <i_m_ct_stereo_status>  (281) 
1

>  <s_m_source_file>  (281) 
/var/tmp/pbs.5076255.sched01/tmpm261n1hm/82shs6bvht.sdf

>  <i_m_source_file_index>  (281) 
40

>  <i_lp_mmshare_version>  (281) 
48012

>  <i_f3d_flags>  (281) 
0

>  <s_epik_input>  (281) 
W09IXVtDQEBIXTFbQ0gyXVtDQEBIXShDKD1bQ0gyXSlbQ0gzXSlbQ0BIXShbQ0BdMTJbQ0gzXSlbQ0gyXVtDSDJdW0NAQF0zKFtDSDNdKVtDQEBIXTJbQ0gyXVtDSDJdW0NAXTQoW0NIM10pW0NASF0zW0NIMl1bQ0gyXVtDQEBIXTVDPTZbQ0BIXShbQ0BdKFtDSDNdKShbT0hdKUMoPU8pW0NIMl1bQ0hdNilbQ0gyXVtDQEBIXShbT0hdKVtDQF00NVtDSDNd

>  <s_epik_cmdline>  (281) 
J2VwaWtfcHl0aG9uJywgJy1waHQnLCAnMi4wJywgJy1waCcsICc3LjAnLCAnLXRuJywgJzgnLCAnLW1hJywgJzIwMCcsICctaW1hZScsICc8aW5maWxlLm1hZT4nLCAnLW9tYWUnLCAnPG91dGZpbGUubWFlPic=

>  <r_lp_tautomer_probability>  (281) 
1

>  <r_epik_Ionization_Penalty>  (281) 
2.70474e-06

>  <r_epik_Ionization_Penalty_Charging>  (281) 
0

>  <r_epik_Ionization_Penalty_Neutral>  (281) 
2.70474e-06

>  <r_epik_State_Penalty>  (281) 
-0

>  <r_epik_Charging_Adjusted_Penalty>  (281) 
0

>  <i_epik_Tot_Q>  (281) 
0

>  <i_epik_Tot_abs_Q>  (281) 
0

>  <s_lp_Force_Field>  (281) 
OPLS3e

>  <r_lp_Energy>  (281) 
113.807

>  <b_lp_Chiralities_Consistent>  (281) 
1

>  <s_lp_Variant>  (281) 
87:0-1

>  <s_i_glide_gridfile>  (281) 
pfpi4k_grid

>  <i_i_glide_lignum>  (281) 
40

>  <i_i_glide_rotatable_bonds>  (281) 
4

>  <r_i_docking_score>  (281) 
-2.25232

>  <r_i_glide_ligand_efficiency>  (281) 
-0.0608735

>  <r_i_glide_ligand_efficiency_sa>  (281) 
-0.202844

>  <r_i_glide_ligand_efficiency_ln>  (281) 
-0.488475

>  <r_i_glide_gscore>  (281) 
-2.25232

>  <r_i_glide_lipo>  (281) 
-0.614576

>  <r_i_glide_hbond>  (281) 
0

>  <r_i_glide_metal>  (281) 
-0

>  <r_i_glide_rewards>  (281) 
0

>  <r_i_glide_evdw>  (281) 
-28.653

>  <r_i_glide_ecoul>  (281) 
-1.76693

>  <r_i_glide_erotb>  (281) 
0.0785413

>  <r_i_glide_esite>  (281) 
-0.0185925

>  <r_i_glide_emodel>  (281) 
-32.7817

>  <r_i_glide_energy>  (281) 
-30.42

>  <r_i_glide_einternal>  (281) 
3.64109

>  <r_i_glide_intrahb_reward>  (281) 
-0

>  <i_i_glide_confnum>  (281) 
3

>  <i_i_glide_posenum>  (281) 
20

>  <r_i_glide_eff_state_penalty>  (281) 
0

>  <ligand_id>  (281) 
87

>  <original_smiles>  (281) 
C=C(C)C1CC(O)C2(C)C1CCC1(C)C2CCC2(C)C1CCC1C3=CCC(=O)C(C)(O)C3CC(O)C12C

>  <smiles>  (281) 
[H]OC1([H])C([H])([H])C([H])(C(=C([H])[H])C([H])([H])[H])C2([H])C([H])([H])C([H])([H])C3(C([H])([H])[H])C([H])(C([H])([H])C([H])([H])C4(C([H])([H])[H])C3([H])C([H])([H])C([H])([H])C3([H])C5=C([H])C([H])([H])C(=O)C(O[H])(C([H])([H])[H])C5([H])C([H])([H])C([H])(O[H])C34C([H])([H])[H])C12C([H])([H])[H]

$$$$
88:0:0
     RDKit          3D

 13 14  0  0  1  0  0  0  0  0999 V2000
    0.0025   -9.7831    3.2691 C   0  0  0  0  0  0  0  0  0  0  0  0
   -1.0996   -8.9251    3.0338 C   0  0  0  0  0  0  0  0  0  0  0  0
   -1.0188   -7.7452    2.4232 N   0  0  0  0  0  0  0  0  0  0  0  0
    0.2000   -7.3848    1.9853 C   0  0  0  0  0  0  0  0  0  0  0  0
    0.5837   -6.2791    1.3467 N   0  0  0  0  0  0  0  0  0  0  0  0
    1.9290   -6.4604    1.1977 C   0  0  0  0  0  0  0  0  0  0  0  0
    2.4319   -7.5879    1.6821 N   0  0  0  0  0  0  0  0  0  0  0  0
    1.3282   -8.1949    2.1907 N   0  0  0  0  0  0  0  0  0  0  0  0
    1.2474   -9.3945    2.8298 C   0  0  0  0  0  0  0  0  0  0  0  0
   -0.1404  -10.7270    3.7895 H   0  0  0  0  0  0  0  0  0  0  0  0
   -2.0859   -9.2236    3.3743 H   0  0  0  0  0  0  0  0  0  0  0  0
    2.5586   -5.7372    0.6986 H   0  0  0  0  0  0  0  0  0  0  0  0
    2.1572   -9.9737    2.9565 H   0  0  0  0  0  0  0  0  0  0  0  0
  1  9  2  0
  1  2  1  0
  1 10  1  0
  2  3  2  0
  2 11  1  0
  3  4  1  0
  4  8  1  0
  4  5  2  0
  5  6  1  0
  6  7  2  0
  6 12  1  0
  7  8  1  0
  8  9  1  0
  9 13  1  0
M  END
>  <i_m_ct_stereo_status>  (282) 
1

>  <s_m_source_file>  (282) 
/var/tmp/pbs.5076255.sched01/tmpm261n1hm/82shs6bvht.sdf

>  <i_m_source_file_index>  (282) 
41

>  <i_lp_mmshare_version>  (282) 
48012

>  <i_f3d_flags>  (282) 
0

>  <s_epik_input>  (282) 
bjFbY0hdW2NIXVtjSF1uKGMxMiluW2NIXW4y

>  <s_epik_cmdline>  (282) 
J2VwaWtfcHl0aG9uJywgJy1waHQnLCAnMi4wJywgJy1waCcsICc3LjAnLCAnLXRuJywgJzgnLCAnLW1hJywgJzIwMCcsICctaW1hZScsICc8aW5maWxlLm1hZT4nLCAnLW9tYWUnLCAnPG91dGZpbGUubWFlPic=

>  <r_lp_tautomer_probability>  (282) 
1

>  <r_epik_Ionization_Penalty>  (282) 
1.66986e-07

>  <r_epik_Ionization_Penalty_Charging>  (282) 
0

>  <r_epik_Ionization_Penalty_Neutral>  (282) 
1.66986e-07

>  <r_epik_State_Penalty>  (282) 
-0

>  <r_epik_Charging_Adjusted_Penalty>  (282) 
0

>  <i_epik_Tot_Q>  (282) 
0

>  <i_epik_Tot_abs_Q>  (282) 
0

>  <s_lp_Force_Field>  (282) 
OPLS3e

>  <r_lp_Energy>  (282) 
14.6748

>  <b_lp_Chiralities_Consistent>  (282) 
1

>  <s_lp_Variant>  (282) 
88:0-1

>  <s_i_glide_gridfile>  (282) 
pfpi4k_grid

>  <i_i_glide_lignum>  (282) 
41

>  <i_i_glide_rotatable_bonds>  (282) 
0

>  <r_i_docking_score>  (282) 
-4.2457

>  <r_i_glide_ligand_efficiency>  (282) 
-0.471744

>  <r_i_glide_ligand_efficiency_sa>  (282) 
-0.981268

>  <r_i_glide_ligand_efficiency_ln>  (282) 
-1.32793

>  <r_i_glide_gscore>  (282) 
-4.2457

>  <r_i_glide_lipo>  (282) 
-0.0335694

>  <r_i_glide_hbond>  (282) 
-0.16

>  <r_i_glide_metal>  (282) 
-0

>  <r_i_glide_rewards>  (282) 
-2.25

>  <r_i_glide_evdw>  (282) 
-13.9361

>  <r_i_glide_ecoul>  (282) 
-6.47193

>  <r_i_glide_erotb>  (282) 
0

>  <r_i_glide_esite>  (282) 
-0.134534

>  <r_i_glide_emodel>  (282) 
-27.1664

>  <r_i_glide_energy>  (282) 
-20.4081

>  <r_i_glide_einternal>  (282) 
0

>  <r_i_glide_intrahb_reward>  (282) 
-0

>  <i_i_glide_confnum>  (282) 
1

>  <i_i_glide_posenum>  (282) 
1

>  <r_i_glide_eff_state_penalty>  (282) 
0

>  <ligand_id>  (282) 
88

>  <original_smiles>  (282) 
c1cnc2ncnn2c1

>  <smiles>  (282) 
[H]c1nc2nc([H])c([H])c([H])n2n1

$$$$
88:0:1
     RDKit          3D

 13 14  0  0  1  0  0  0  0  0999 V2000
   -0.4155   -9.0801    2.7929 C   0  0  0  0  0  0  0  0  0  0  0  0
   -0.4283   -7.8555    2.0831 C   0  0  0  0  0  0  0  0  0  0  0  0
   -0.2420   -6.6587    2.6354 N   0  0  0  0  0  0  0  0  0  0  0  0
   -0.0091   -6.6498    3.9626 C   0  0  0  0  0  0  0  0  0  0  0  0
    0.2055   -5.6248    4.7817 N   0  0  0  0  0  0  0  0  0  0  0  0
    0.3608   -6.2201    5.9991 C   0  0  0  0  0  0  0  0  0  0  0  0
    0.2479   -7.5417    6.0266 N   0  0  0  0  0  0  0  0  0  0  0  0
    0.0132   -7.8328    4.7194 N   0  0  0  0  0  0  0  0  0  0  0  0
   -0.1860   -9.0531    4.1504 C   0  0  0  0  0  0  0  0  0  0  0  0
   -0.5784  -10.0219    2.2734 H   0  0  0  0  0  0  0  0  0  0  0  0
   -0.6059   -7.8619    1.0134 H   0  0  0  0  0  0  0  0  0  0  0  0
    0.5561   -5.6539    6.8974 H   0  0  0  0  0  0  0  0  0  0  0  0
   -0.1590   -9.9295    4.7918 H   0  0  0  0  0  0  0  0  0  0  0  0
  1  9  2  0
  1  2  1  0
  1 10  1  0
  2  3  2  0
  2 11  1  0
  3  4  1  0
  4  8  1  0
  4  5  2  0
  5  6  1  0
  6  7  2  0
  6 12  1  0
  7  8  1  0
  8  9  1  0
  9 13  1  0
M  END
>  <i_m_ct_stereo_status>  (283) 
1

>  <s_m_source_file>  (283) 
/var/tmp/pbs.5076255.sched01/tmpm261n1hm/82shs6bvht.sdf

>  <i_m_source_file_index>  (283) 
41

>  <i_lp_mmshare_version>  (283) 
48012

>  <i_f3d_flags>  (283) 
0

>  <s_epik_input>  (283) 
bjFbY0hdW2NIXVtjSF1uKGMxMiluW2NIXW4y

>  <s_epik_cmdline>  (283) 
J2VwaWtfcHl0aG9uJywgJy1waHQnLCAnMi4wJywgJy1waCcsICc3LjAnLCAnLXRuJywgJzgnLCAnLW1hJywgJzIwMCcsICctaW1hZScsICc8aW5maWxlLm1hZT4nLCAnLW9tYWUnLCAnPG91dGZpbGUubWFlPic=

>  <r_lp_tautomer_probability>  (283) 
1

>  <r_epik_Ionization_Penalty>  (283) 
1.66986e-07

>  <r_epik_Ionization_Penalty_Charging>  (283) 
0

>  <r_epik_Ionization_Penalty_Neutral>  (283) 
1.66986e-07

>  <r_epik_State_Penalty>  (283) 
-0

>  <r_epik_Charging_Adjusted_Penalty>  (283) 
0

>  <i_epik_Tot_Q>  (283) 
0

>  <i_epik_Tot_abs_Q>  (283) 
0

>  <s_lp_Force_Field>  (283) 
OPLS3e

>  <r_lp_Energy>  (283) 
14.6748

>  <b_lp_Chiralities_Consistent>  (283) 
1

>  <s_lp_Variant>  (283) 
88:0-1

>  <s_i_glide_gridfile>  (283) 
pfpi4k_grid

>  <i_i_glide_lignum>  (283) 
41

>  <i_i_glide_rotatable_bonds>  (283) 
0

>  <r_i_docking_score>  (283) 
-3.62809

>  <r_i_glide_ligand_efficiency>  (283) 
-0.403121

>  <r_i_glide_ligand_efficiency_sa>  (283) 
-0.838526

>  <r_i_glide_ligand_efficiency_ln>  (283) 
-1.13476

>  <r_i_glide_gscore>  (283) 
-3.62809

>  <r_i_glide_lipo>  (283) 
0

>  <r_i_glide_hbond>  (283) 
-0.16

>  <r_i_glide_metal>  (283) 
-0

>  <r_i_glide_rewards>  (283) 
-2.25

>  <r_i_glide_evdw>  (283) 
-11.0514

>  <r_i_glide_ecoul>  (283) 
-3.88131

>  <r_i_glide_erotb>  (283) 
0

>  <r_i_glide_esite>  (283) 
-0.0833245

>  <r_i_glide_emodel>  (283) 
-20.708

>  <r_i_glide_energy>  (283) 
-14.9327

>  <r_i_glide_einternal>  (283) 
0

>  <r_i_glide_intrahb_reward>  (283) 
-0

>  <i_i_glide_confnum>  (283) 
1

>  <i_i_glide_posenum>  (283) 
3

>  <r_i_glide_eff_state_penalty>  (283) 
0

>  <ligand_id>  (283) 
88

>  <original_smiles>  (283) 
c1cnc2ncnn2c1

>  <smiles>  (283) 
[H]c1nc2nc([H])c([H])c([H])n2n1

$$$$
88:0:2
     RDKit          3D

 13 14  0  0  1  0  0  0  0  0999 V2000
   -0.5268    1.9461    2.8817 C   0  0  0  0  0  0  0  0  0  0  0  0
   -1.3521    2.5193    3.8779 C   0  0  0  0  0  0  0  0  0  0  0  0
   -1.7836    1.8790    4.9610 N   0  0  0  0  0  0  0  0  0  0  0  0
   -1.4029    0.5968    5.0862 C   0  0  0  0  0  0  0  0  0  0  0  0
   -1.6780   -0.2914    6.0425 N   0  0  0  0  0  0  0  0  0  0  0  0
   -1.0109   -1.4096    5.6292 C   0  0  0  0  0  0  0  0  0  0  0  0
   -0.3470   -1.3156    4.4851 N   0  0  0  0  0  0  0  0  0  0  0  0
   -0.5861   -0.0272    4.1276 N   0  0  0  0  0  0  0  0  0  0  0  0
   -0.1398    0.6340    3.0230 C   0  0  0  0  0  0  0  0  0  0  0  0
   -0.2067    2.5362    2.0240 H   0  0  0  0  0  0  0  0  0  0  0  0
   -1.6632    3.5527    3.7807 H   0  0  0  0  0  0  0  0  0  0  0  0
   -1.0278   -2.3328    6.1903 H   0  0  0  0  0  0  0  0  0  0  0  0
    0.4878    0.0980    2.3180 H   0  0  0  0  0  0  0  0  0  0  0  0
  1  9  2  0
  1  2  1  0
  1 10  1  0
  2  3  2  0
  2 11  1  0
  3  4  1  0
  4  8  1  0
  4  5  2  0
  5  6  1  0
  6  7  2  0
  6 12  1  0
  7  8  1  0
  8  9  1  0
  9 13  1  0
M  END
>  <i_m_ct_stereo_status>  (284) 
1

>  <s_m_source_file>  (284) 
/var/tmp/pbs.5076255.sched01/tmpm261n1hm/82shs6bvht.sdf

>  <i_m_source_file_index>  (284) 
41

>  <i_lp_mmshare_version>  (284) 
48012

>  <i_f3d_flags>  (284) 
0

>  <s_epik_input>  (284) 
bjFbY0hdW2NIXVtjSF1uKGMxMiluW2NIXW4y

>  <s_epik_cmdline>  (284) 
J2VwaWtfcHl0aG9uJywgJy1waHQnLCAnMi4wJywgJy1waCcsICc3LjAnLCAnLXRuJywgJzgnLCAnLW1hJywgJzIwMCcsICctaW1hZScsICc8aW5maWxlLm1hZT4nLCAnLW9tYWUnLCAnPG91dGZpbGUubWFlPic=

>  <r_lp_tautomer_probability>  (284) 
1

>  <r_epik_Ionization_Penalty>  (284) 
1.66986e-07

>  <r_epik_Ionization_Penalty_Charging>  (284) 
0

>  <r_epik_Ionization_Penalty_Neutral>  (284) 
1.66986e-07

>  <r_epik_State_Penalty>  (284) 
-0

>  <r_epik_Charging_Adjusted_Penalty>  (284) 
0

>  <i_epik_Tot_Q>  (284) 
0

>  <i_epik_Tot_abs_Q>  (284) 
0

>  <s_lp_Force_Field>  (284) 
OPLS3e

>  <r_lp_Energy>  (284) 
14.6748

>  <b_lp_Chiralities_Consistent>  (284) 
1

>  <s_lp_Variant>  (284) 
88:0-1

>  <s_i_glide_gridfile>  (284) 
pfpi4k_grid

>  <i_i_glide_lignum>  (284) 
41

>  <i_i_glide_rotatable_bonds>  (284) 
0

>  <r_i_docking_score>  (284) 
-3.61166

>  <r_i_glide_ligand_efficiency>  (284) 
-0.401295

>  <r_i_glide_ligand_efficiency_sa>  (284) 
-0.834728

>  <r_i_glide_ligand_efficiency_ln>  (284) 
-1.12962

>  <r_i_glide_gscore>  (284) 
-3.61166

>  <r_i_glide_lipo>  (284) 
0

>  <r_i_glide_hbond>  (284) 
-0.136992

>  <r_i_glide_metal>  (284) 
-0

>  <r_i_glide_rewards>  (284) 
-2.25

>  <r_i_glide_evdw>  (284) 
-11.621

>  <r_i_glide_ecoul>  (284) 
-3.60831

>  <r_i_glide_erotb>  (284) 
0

>  <r_i_glide_esite>  (284) 
-0.10237

>  <r_i_glide_emodel>  (284) 
-20.9787

>  <r_i_glide_energy>  (284) 
-15.2293

>  <r_i_glide_einternal>  (284) 
0

>  <r_i_glide_intrahb_reward>  (284) 
-0

>  <i_i_glide_confnum>  (284) 
1

>  <i_i_glide_posenum>  (284) 
2

>  <r_i_glide_eff_state_penalty>  (284) 
0

>  <ligand_id>  (284) 
88

>  <original_smiles>  (284) 
c1cnc2ncnn2c1

>  <smiles>  (284) 
[H]c1nc2nc([H])c([H])c([H])n2n1

$$$$
89:0:0
     RDKit          3D

 26 26  0  0  1  0  0  0  0  0999 V2000
    2.3219   -2.9223    2.2426 O   0  0  0  0  0  0  0  0  0  0  0  0
    2.7208   -3.5181    1.2245 C   0  0  0  0  0  0  0  0  0  0  0  0
    2.3662   -4.6701    0.8691 O   0  0  0  0  0  0  0  0  0  0  0  0
    3.7301   -2.7813    0.3318 C   0  0  0  0  0  0  0  0  0  0  0  0
    3.1060   -2.2797   -0.9241 N   0  0  1  0  0  0  0  0  0  0  0  0
    3.8624   -1.1128   -1.4684 C   0  0  0  0  0  0  0  0  0  0  0  0
    3.2029   -0.5555   -2.7528 C   0  0  1  0  0  0  0  0  0  0  0  0
    3.9322    0.5118   -3.3416 O   0  0  0  0  0  0  0  0  0  0  0  0
    2.9754   -1.6023   -3.8325 C   0  0  1  0  0  0  0  0  0  0  0  0
    4.2233   -2.0093   -4.3184 O   0  0  0  0  0  0  0  0  0  0  0  0
    2.2780   -2.8181   -3.2257 C   0  0  1  0  0  0  0  0  0  0  0  0
    2.2293   -3.8080   -4.1957 O   0  0  0  0  0  0  0  0  0  0  0  0
    2.9782   -3.3337   -1.9637 C   0  0  0  0  0  0  0  0  0  0  0  0
    4.1323   -1.9713    0.9384 H   0  0  0  0  0  0  0  0  0  0  0  0
    4.5868   -3.4296    0.1188 H   0  0  0  0  0  0  0  0  0  0  0  0
    3.9472   -0.3204   -0.7140 H   0  0  0  0  0  0  0  0  0  0  0  0
    4.8851   -1.4205   -1.6918 H   0  0  0  0  0  0  0  0  0  0  0  0
    2.2276   -0.2004   -2.4873 H   0  0  0  0  0  0  0  0  0  0  0  0
    3.4580    1.3160   -3.1479 H   0  0  0  0  0  0  0  0  0  0  0  0
    2.3892   -1.1759   -4.6469 H   0  0  0  0  0  0  0  0  0  0  0  0
    4.7216   -2.3931   -3.6222 H   0  0  0  0  0  0  0  0  0  0  0  0
    1.2552   -2.5981   -2.9334 H   0  0  0  0  0  0  0  0  0  0  0  0
    1.5201   -4.4079   -3.9469 H   0  0  0  0  0  0  0  0  0  0  0  0
    3.9659   -3.7218   -2.2167 H   0  0  0  0  0  0  0  0  0  0  0  0
    2.3899   -4.1952   -1.6245 H   0  0  0  0  0  0  0  0  0  0  0  0
    2.1675   -1.9217   -0.7152 H   0  0  0  0  0  0  0  0  0  0  0  0
  1  2  2  0
  2  3  1  0
  2  4  1  0
  4  5  1  0
  4 14  1  0
  4 15  1  0
  5 13  1  0
  5  6  1  0
  5 26  1  1
  6  7  1  0
  6 16  1  0
  6 17  1  0
  7  8  1  0
  7  9  1  0
  7 18  1  1
  8 19  1  0
  9 10  1  0
  9 11  1  0
  9 20  1  6
 10 21  1  0
 11 12  1  0
 11 13  1  0
 11 22  1  1
 12 23  1  0
 13 24  1  0
 13 25  1  0
M  CHG  2   3  -1   5   1
M  END
>  <i_m_ct_stereo_status>  (285) 
1

>  <s_m_source_file>  (285) 
/var/tmp/pbs.5076255.sched01/tmpt25ahaql/1236iipj8y0.sdf

>  <i_m_source_file_index>  (285) 
1

>  <i_lp_mmshare_version>  (285) 
48012

>  <i_f3d_flags>  (285) 
0

>  <s_epik_input>  (285) 
Tz1DKFtPSF0pW0NIMl1OMVtDSDJdW0NAQEhdKFtPSF0pW0NAQEhdKFtPSF0pW0NAQEhdKFtPSF0pW0NIMl0x

>  <s_epik_cmdline>  (285) 
J2VwaWtfcHl0aG9uJywgJy1waHQnLCAnMi4wJywgJy1waCcsICc3LjAnLCAnLXRuJywgJzgnLCAnLW1hJywgJzIwMCcsICctaW1hZScsICc8aW5maWxlLm1hZT4nLCAnLW9tYWUnLCAnPG91dGZpbGUubWFlPic=

>  <r_epik_Ionization_Penalty>  (285) 
0.0112729

>  <r_epik_Ionization_Penalty_Charging>  (285) 
0.0112724

>  <r_epik_Ionization_Penalty_Neutral>  (285) 
4.81137e-07

>  <r_epik_State_Penalty>  (285) 
0.00866292

>  <r_epik_Charging_Adjusted_Penalty>  (285) 
0.0199353

>  <i_epik_Tot_Q>  (285) 
0

>  <i_epik_Tot_abs_Q>  (285) 
2

>  <s_lp_Force_Field>  (285) 
OPLS3e

>  <r_lp_Energy>  (285) 
16.8749

>  <b_lp_Chiralities_Consistent>  (285) 
1

>  <s_lp_Variant>  (285) 
89:0-1

>  <s_i_glide_gridfile>  (285) 
pfpi4k_grid

>  <i_i_glide_lignum>  (285) 
1

>  <i_i_glide_rotatable_bonds>  (285) 
5

>  <r_i_docking_score>  (285) 
-5.44045

>  <r_i_glide_ligand_efficiency>  (285) 
-0.418496

>  <r_i_glide_ligand_efficiency_sa>  (285) 
-0.984025

>  <r_i_glide_ligand_efficiency_ln>  (285) 
-1.5261

>  <r_i_glide_gscore>  (285) 
-5.44045

>  <r_i_glide_lipo>  (285) 
-0.351749

>  <r_i_glide_hbond>  (285) 
-0.201591

>  <r_i_glide_metal>  (285) 
-0

>  <r_i_glide_rewards>  (285) 
-2.10558

>  <r_i_glide_evdw>  (285) 
-2.58638

>  <r_i_glide_ecoul>  (285) 
-19.1024

>  <r_i_glide_erotb>  (285) 
0.308073

>  <r_i_glide_esite>  (285) 
-0.0949261

>  <r_i_glide_emodel>  (285) 
-32.386

>  <r_i_glide_energy>  (285) 
-21.6888

>  <r_i_glide_einternal>  (285) 
3.09435

>  <r_i_glide_intrahb_reward>  (285) 
-0

>  <i_i_glide_confnum>  (285) 
2

>  <i_i_glide_posenum>  (285) 
14

>  <r_i_glide_eff_state_penalty>  (285) 
0

>  <ligand_id>  (285) 
89

>  <original_smiles>  (285) 
O=C(O)CN1CC(O)C(O)C(O)C1

>  <smiles>  (285) 
[H]OC1([H])C([H])(O[H])C([H])([H])[N+]([H])(C([H])([H])C(=O)[O-])C([H])([H])C1([H])O[H]

$$$$
89:0:1
     RDKit          3D

 26 26  0  0  1  0  0  0  0  0999 V2000
    2.8266   -6.6764    1.2764 O   0  0  0  0  0  0  0  0  0  0  0  0
    2.2354   -5.7559    0.6714 C   0  0  0  0  0  0  0  0  0  0  0  0
    1.1306   -5.8684    0.0839 O   0  0  0  0  0  0  0  0  0  0  0  0
    2.9367   -4.3903    0.6421 C   0  0  0  0  0  0  0  0  0  0  0  0
    3.5422   -4.1335   -0.6874 N   0  0  1  0  0  0  0  0  0  0  0  0
    2.6100   -3.4496   -1.6279 C   0  0  0  0  0  0  0  0  0  0  0  0
    3.2289   -3.2670   -3.0297 C   0  0  1  0  0  0  0  0  0  0  0  0
    2.3156   -2.6015   -3.8822 O   0  0  0  0  0  0  0  0  0  0  0  0
    4.5697   -2.5077   -2.9655 C   0  0  1  0  0  0  0  0  0  0  0  0
    4.3838   -1.1580   -2.5695 O   0  0  0  0  0  0  0  0  0  0  0  0
    5.5121   -3.2173   -1.9679 C   0  0  1  0  0  0  0  0  0  0  0  0
    6.7547   -2.5301   -1.8270 O   0  0  0  0  0  0  0  0  0  0  0  0
    4.8376   -3.4078   -0.5897 C   0  0  0  0  0  0  0  0  0  0  0  0
    2.2368   -3.6030    0.9403 H   0  0  0  0  0  0  0  0  0  0  0  0
    3.6985   -4.4030    1.4350 H   0  0  0  0  0  0  0  0  0  0  0  0
    1.6690   -3.9925   -1.7153 H   0  0  0  0  0  0  0  0  0  0  0  0
    2.3675   -2.4708   -1.2160 H   0  0  0  0  0  0  0  0  0  0  0  0
    3.3988   -4.2372   -3.5022 H   0  0  0  0  0  0  0  0  0  0  0  0
    1.4762   -3.0398   -3.8503 H   0  0  0  0  0  0  0  0  0  0  0  0
    5.0160   -2.5030   -3.9506 H   0  0  0  0  0  0  0  0  0  0  0  0
    3.7099   -1.1028   -1.9104 H   0  0  0  0  0  0  0  0  0  0  0  0
    5.7583   -4.2106   -2.3522 H   0  0  0  0  0  0  0  0  0  0  0  0
    7.2781   -2.6607   -2.6050 H   0  0  0  0  0  0  0  0  0  0  0  0
    4.6654   -2.4313   -0.1249 H   0  0  0  0  0  0  0  0  0  0  0  0
    5.5295   -3.9431    0.0703 H   0  0  0  0  0  0  0  0  0  0  0  0
    3.7137   -5.0496   -1.0934 H   0  0  0  0  0  0  0  0  0  0  0  0
  1  2  2  0
  2  3  1  0
  2  4  1  0
  4  5  1  0
  4 14  1  0
  4 15  1  0
  5 13  1  0
  5  6  1  0
  5 26  1  6
  6  7  1  0
  6 16  1  0
  6 17  1  0
  7  8  1  0
  7  9  1  0
  7 18  1  6
  8 19  1  0
  9 10  1  0
  9 11  1  0
  9 20  1  6
 10 21  1  0
 11 12  1  0
 11 13  1  0
 11 22  1  6
 12 23  1  0
 13 24  1  0
 13 25  1  0
M  CHG  2   3  -1   5   1
M  END
>  <i_m_ct_stereo_status>  (286) 
1

>  <s_m_source_file>  (286) 
/var/tmp/pbs.5076255.sched01/tmpt25ahaql/1236iipj8y0.sdf

>  <i_m_source_file_index>  (286) 
1

>  <i_lp_mmshare_version>  (286) 
48012

>  <i_f3d_flags>  (286) 
0

>  <s_epik_input>  (286) 
Tz1DKFtPSF0pW0NIMl1OMVtDSDJdW0NAQEhdKFtPSF0pW0NAQEhdKFtPSF0pW0NAQEhdKFtPSF0pW0NIMl0x

>  <s_epik_cmdline>  (286) 
J2VwaWtfcHl0aG9uJywgJy1waHQnLCAnMi4wJywgJy1waCcsICc3LjAnLCAnLXRuJywgJzgnLCAnLW1hJywgJzIwMCcsICctaW1hZScsICc8aW5maWxlLm1hZT4nLCAnLW9tYWUnLCAnPG91dGZpbGUubWFlPic=

>  <r_epik_Ionization_Penalty>  (286) 
0.0112729

>  <r_epik_Ionization_Penalty_Charging>  (286) 
0.0112724

>  <r_epik_Ionization_Penalty_Neutral>  (286) 
4.81137e-07

>  <r_epik_State_Penalty>  (286) 
0.00866292

>  <r_epik_Charging_Adjusted_Penalty>  (286) 
0.0199353

>  <i_epik_Tot_Q>  (286) 
0

>  <i_epik_Tot_abs_Q>  (286) 
2

>  <s_lp_Force_Field>  (286) 
OPLS3e

>  <r_lp_Energy>  (286) 
16.8749

>  <b_lp_Chiralities_Consistent>  (286) 
1

>  <s_lp_Variant>  (286) 
89:0-1

>  <s_i_glide_gridfile>  (286) 
pfpi4k_grid

>  <i_i_glide_lignum>  (286) 
1

>  <i_i_glide_rotatable_bonds>  (286) 
5

>  <r_i_docking_score>  (286) 
-5.21914

>  <r_i_glide_ligand_efficiency>  (286) 
-0.401472

>  <r_i_glide_ligand_efficiency_sa>  (286) 
-0.943995

>  <r_i_glide_ligand_efficiency_ln>  (286) 
-1.46401

>  <r_i_glide_gscore>  (286) 
-5.21914

>  <r_i_glide_lipo>  (286) 
-0.452101

>  <r_i_glide_hbond>  (286) 
-0.294196

>  <r_i_glide_metal>  (286) 
-0

>  <r_i_glide_rewards>  (286) 
-2.10558

>  <r_i_glide_evdw>  (286) 
-13.9108

>  <r_i_glide_ecoul>  (286) 
-13.5971

>  <r_i_glide_erotb>  (286) 
0.440104

>  <r_i_glide_esite>  (286) 
-0.0722573

>  <r_i_glide_emodel>  (286) 
-38.7533

>  <r_i_glide_energy>  (286) 
-27.5079

>  <r_i_glide_einternal>  (286) 
1.88117

>  <r_i_glide_intrahb_reward>  (286) 
-0

>  <i_i_glide_confnum>  (286) 
3

>  <i_i_glide_posenum>  (286) 
8

>  <r_i_glide_eff_state_penalty>  (286) 
0

>  <ligand_id>  (286) 
89

>  <original_smiles>  (286) 
O=C(O)CN1CC(O)C(O)C(O)C1

>  <smiles>  (286) 
[H]OC1([H])C([H])(O[H])C([H])([H])[N+]([H])(C([H])([H])C(=O)[O-])C([H])([H])C1([H])O[H]

$$$$
89:0:2
     RDKit          3D

 26 26  0  0  1  0  0  0  0  0999 V2000
    1.1077   -5.8904    0.0769 O   0  0  0  0  0  0  0  0  0  0  0  0
    2.2033   -5.6732    0.6576 C   0  0  0  0  0  0  0  0  0  0  0  0
    2.8887   -6.5287    1.2442 O   0  0  0  0  0  0  0  0  0  0  0  0
    2.7553   -4.2652    0.6583 C   0  0  0  0  0  0  0  0  0  0  0  0
    3.5974   -4.0478   -0.5579 N   0  0  1  0  0  0  0  0  0  0  0  0
    2.8433   -3.4040   -1.6801 C   0  0  0  0  0  0  0  0  0  0  0  0
    3.7075   -3.2571   -2.9439 C   0  0  1  0  0  0  0  0  0  0  0  0
    2.9727   -2.5962   -3.9504 O   0  0  0  0  0  0  0  0  0  0  0  0
    5.0207   -2.4870   -2.6474 C   0  0  1  0  0  0  0  0  0  0  0  0
    4.7555   -1.1224   -2.3359 O   0  0  0  0  0  0  0  0  0  0  0  0
    5.7709   -3.1499   -1.4728 C   0  0  1  0  0  0  0  0  0  0  0  0
    6.9568   -2.4267   -1.1695 O   0  0  0  0  0  0  0  0  0  0  0  0
    4.8601   -3.3107   -0.2427 C   0  0  0  0  0  0  0  0  0  0  0  0
    1.9414   -3.5355    0.7246 H   0  0  0  0  0  0  0  0  0  0  0  0
    3.3115   -4.1378    1.5850 H   0  0  0  0  0  0  0  0  0  0  0  0
    1.9357   -3.9630   -1.8993 H   0  0  0  0  0  0  0  0  0  0  0  0
    2.5314   -2.4108   -1.3469 H   0  0  0  0  0  0  0  0  0  0  0  0
    3.9606   -4.2471   -3.3251 H   0  0  0  0  0  0  0  0  0  0  0  0
    2.0942   -2.9431   -3.9853 H   0  0  0  0  0  0  0  0  0  0  0  0
    5.6648   -2.5347   -3.5196 H   0  0  0  0  0  0  0  0  0  0  0  0
    4.0468   -1.0674   -1.7175 H   0  0  0  0  0  0  0  0  0  0  0  0
    6.0728   -4.1449   -1.7902 H   0  0  0  0  0  0  0  0  0  0  0  0
    7.6438   -3.0348   -0.9472 H   0  0  0  0  0  0  0  0  0  0  0  0
    4.5831   -2.3264    0.1484 H   0  0  0  0  0  0  0  0  0  0  0  0
    5.4055   -3.8255    0.5485 H   0  0  0  0  0  0  0  0  0  0  0  0
    3.8366   -4.9824   -0.8815 H   0  0  0  0  0  0  0  0  0  0  0  0
  1  2  2  0
  2  3  1  0
  2  4  1  0
  4  5  1  0
  4 14  1  0
  4 15  1  0
  5 13  1  0
  5  6  1  0
  5 26  1  6
  6  7  1  0
  6 16  1  0
  6 17  1  0
  7  8  1  0
  7  9  1  0
  7 18  1  6
  8 19  1  0
  9 10  1  0
  9 11  1  0
  9 20  1  6
 10 21  1  0
 11 12  1  0
 11 13  1  0
 11 22  1  6
 12 23  1  0
 13 24  1  0
 13 25  1  0
M  CHG  2   3  -1   5   1
M  END
>  <i_m_ct_stereo_status>  (287) 
1

>  <s_m_source_file>  (287) 
/var/tmp/pbs.5076255.sched01/tmpt25ahaql/1236iipj8y0.sdf

>  <i_m_source_file_index>  (287) 
1

>  <i_lp_mmshare_version>  (287) 
48012

>  <i_f3d_flags>  (287) 
0

>  <s_epik_input>  (287) 
Tz1DKFtPSF0pW0NIMl1OMVtDSDJdW0NAQEhdKFtPSF0pW0NAQEhdKFtPSF0pW0NAQEhdKFtPSF0pW0NIMl0x

>  <s_epik_cmdline>  (287) 
J2VwaWtfcHl0aG9uJywgJy1waHQnLCAnMi4wJywgJy1waCcsICc3LjAnLCAnLXRuJywgJzgnLCAnLW1hJywgJzIwMCcsICctaW1hZScsICc8aW5maWxlLm1hZT4nLCAnLW9tYWUnLCAnPG91dGZpbGUubWFlPic=

>  <r_epik_Ionization_Penalty>  (287) 
0.0112729

>  <r_epik_Ionization_Penalty_Charging>  (287) 
0.0112724

>  <r_epik_Ionization_Penalty_Neutral>  (287) 
4.81137e-07

>  <r_epik_State_Penalty>  (287) 
0.00866292

>  <r_epik_Charging_Adjusted_Penalty>  (287) 
0.0199353

>  <i_epik_Tot_Q>  (287) 
0

>  <i_epik_Tot_abs_Q>  (287) 
2

>  <s_lp_Force_Field>  (287) 
OPLS3e

>  <r_lp_Energy>  (287) 
16.8749

>  <b_lp_Chiralities_Consistent>  (287) 
1

>  <s_lp_Variant>  (287) 
89:0-1

>  <s_i_glide_gridfile>  (287) 
pfpi4k_grid

>  <i_i_glide_lignum>  (287) 
1

>  <i_i_glide_rotatable_bonds>  (287) 
5

>  <r_i_docking_score>  (287) 
-5.0512

>  <r_i_glide_ligand_efficiency>  (287) 
-0.388554

>  <r_i_glide_ligand_efficiency_sa>  (287) 
-0.91362

>  <r_i_glide_ligand_efficiency_ln>  (287) 
-1.41691

>  <r_i_glide_gscore>  (287) 
-5.0512

>  <r_i_glide_lipo>  (287) 
-0.418936

>  <r_i_glide_hbond>  (287) 
-0.302591

>  <r_i_glide_metal>  (287) 
-0

>  <r_i_glide_rewards>  (287) 
-2.10558

>  <r_i_glide_evdw>  (287) 
-13.4044

>  <r_i_glide_ecoul>  (287) 
-12.8345

>  <r_i_glide_erotb>  (287) 
0.440104

>  <r_i_glide_esite>  (287) 
-0.0688008

>  <r_i_glide_emodel>  (287) 
-36.1071

>  <r_i_glide_energy>  (287) 
-26.239

>  <r_i_glide_einternal>  (287) 
3.15531

>  <r_i_glide_intrahb_reward>  (287) 
-0

>  <i_i_glide_confnum>  (287) 
1

>  <i_i_glide_posenum>  (287) 
6

>  <r_i_glide_eff_state_penalty>  (287) 
0

>  <ligand_id>  (287) 
89

>  <original_smiles>  (287) 
O=C(O)CN1CC(O)C(O)C(O)C1

>  <smiles>  (287) 
[H]OC1([H])C([H])(O[H])C([H])([H])[N+]([H])(C([H])([H])C(=O)[O-])C([H])([H])C1([H])O[H]

$$$$
89:1:0
     RDKit          3D

 25 25  0  0  1  0  0  0  0  0999 V2000
    3.8097   -0.5227   -5.7051 O   0  0  0  0  0  0  0  0  0  0  0  0
    3.3484    0.4257   -5.0204 C   0  0  0  0  0  0  0  0  0  0  0  0
    2.8609    1.4546   -5.4910 O   0  0  0  0  0  0  0  0  0  0  0  0
    3.4293    0.2734   -3.5121 C   0  0  0  0  0  0  0  0  0  0  0  0
    3.9421   -1.0119   -3.0345 N   0  0  0  0  0  0  0  0  0  0  0  0
    2.9865   -2.0988   -3.2678 C   0  0  0  0  0  0  0  0  0  0  0  0
    3.5452   -3.4702   -2.9105 C   0  0  1  0  0  0  0  0  0  0  0  0
    4.5027   -3.8684   -3.8792 O   0  0  0  0  0  0  0  0  0  0  0  0
    4.0831   -3.4545   -1.4555 C   0  0  1  0  0  0  0  0  0  0  0  0
    4.6934   -4.6667   -1.1169 O   0  0  0  0  0  0  0  0  0  0  0  0
    5.0324   -2.2801   -1.1429 C   0  0  1  0  0  0  0  0  0  0  0  0
    6.3070   -2.4527   -1.7213 O   0  0  0  0  0  0  0  0  0  0  0  0
    4.3848   -0.9732   -1.6301 C   0  0  0  0  0  0  0  0  0  0  0  0
    4.0632    1.0845   -3.1722 H   0  0  0  0  0  0  0  0  0  0  0  0
    2.4283    0.4038   -3.1228 H   0  0  0  0  0  0  0  0  0  0  0  0
    2.1063   -1.9384   -2.6655 H   0  0  0  0  0  0  0  0  0  0  0  0
    2.6279   -2.1570   -4.2880 H   0  0  0  0  0  0  0  0  0  0  0  0
    2.6800   -4.1233   -3.0164 H   0  0  0  0  0  0  0  0  0  0  0  0
    4.7662   -4.7678   -3.6643 H   0  0  0  0  0  0  0  0  0  0  0  0
    3.2136   -3.3317   -0.8045 H   0  0  0  0  0  0  0  0  0  0  0  0
    4.2038   -5.3510   -1.5743 H   0  0  0  0  0  0  0  0  0  0  0  0
    5.2168   -2.2217   -0.0636 H   0  0  0  0  0  0  0  0  0  0  0  0
    6.3711   -3.3913   -1.8864 H   0  0  0  0  0  0  0  0  0  0  0  0
    5.1202   -0.1976   -1.4897 H   0  0  0  0  0  0  0  0  0  0  0  0
    3.5384   -0.7385   -0.9916 H   0  0  0  0  0  0  0  0  0  0  0  0
  1  2  2  0
  2  3  1  0
  2  4  1  0
  4  5  1  0
  4 14  1  0
  4 15  1  0
  5 13  1  0
  5  6  1  0
  6  7  1  0
  6 16  1  0
  6 17  1  0
  7  8  1  0
  7  9  1  0
  7 18  1  1
  8 19  1  0
  9 10  1  0
  9 11  1  0
  9 20  1  1
 10 21  1  0
 11 12  1  0
 11 13  1  0
 11 22  1  1
 12 23  1  0
 13 24  1  0
 13 25  1  0
M  CHG  1   3  -1
M  END
>  <i_m_ct_stereo_status>  (288) 
1

>  <s_m_source_file>  (288) 
/var/tmp/pbs.5076255.sched01/tmpt25ahaql/1236iipj8y0.sdf

>  <i_m_source_file_index>  (288) 
2

>  <i_lp_mmshare_version>  (288) 
48012

>  <i_f3d_flags>  (288) 
0

>  <s_epik_input>  (288) 
Tz1DKFtPSF0pW0NIMl1OMVtDSDJdW0NAQEhdKFtPSF0pW0NAQEhdKFtPSF0pW0NAQEhdKFtPSF0pW0NIMl0x

>  <s_epik_cmdline>  (288) 
J2VwaWtfcHl0aG9uJywgJy1waHQnLCAnMi4wJywgJy1waCcsICc3LjAnLCAnLXRuJywgJzgnLCAnLW1hJywgJzIwMCcsICctaW1hZScsICc8aW5maWxlLm1hZT4nLCAnLW9tYWUnLCAnPG91dGZpbGUubWFlPic=

>  <r_epik_Ionization_Penalty>  (288) 
2.35526

>  <r_epik_Ionization_Penalty_Charging>  (288) 
0.00201456

>  <r_epik_Ionization_Penalty_Neutral>  (288) 
2.35325

>  <r_epik_State_Penalty>  (288) 
2.50774

>  <r_epik_Charging_Adjusted_Penalty>  (288) 
2.50976

>  <i_epik_Tot_Q>  (288) 
-1

>  <i_epik_Tot_abs_Q>  (288) 
1

>  <s_lp_Force_Field>  (288) 
OPLS3e

>  <r_lp_Energy>  (288) 
16.3981

>  <b_lp_Chiralities_Consistent>  (288) 
1

>  <s_lp_Variant>  (288) 
89:0-2

>  <s_i_glide_gridfile>  (288) 
pfpi4k_grid

>  <i_i_glide_lignum>  (288) 
2

>  <i_i_glide_rotatable_bonds>  (288) 
5

>  <r_i_docking_score>  (288) 
-4.80666

>  <r_i_glide_ligand_efficiency>  (288) 
-0.369743

>  <r_i_glide_ligand_efficiency_sa>  (288) 
-0.869389

>  <r_i_glide_ligand_efficiency_ln>  (288) 
-1.34831

>  <r_i_glide_gscore>  (288) 
-4.80666

>  <r_i_glide_lipo>  (288) 
-0.100949

>  <r_i_glide_hbond>  (288) 
-0.098271

>  <r_i_glide_metal>  (288) 
-0

>  <r_i_glide_rewards>  (288) 
-2.2466

>  <r_i_glide_evdw>  (288) 
-13.5037

>  <r_i_glide_ecoul>  (288) 
-14.1975

>  <r_i_glide_erotb>  (288) 
0.443973

>  <r_i_glide_esite>  (288) 
0

>  <r_i_glide_emodel>  (288) 
-38.5686

>  <r_i_glide_energy>  (288) 
-27.7012

>  <r_i_glide_einternal>  (288) 
3.82982

>  <r_i_glide_intrahb_reward>  (288) 
-0

>  <i_i_glide_confnum>  (288) 
5

>  <i_i_glide_posenum>  (288) 
2

>  <r_i_glide_eff_state_penalty>  (288) 
0

>  <ligand_id>  (288) 
89

>  <original_smiles>  (288) 
O=C(O)CN1CC(O)C(O)C(O)C1

>  <smiles>  (288) 
[H]OC1([H])C([H])([H])N(C([H])([H])C(=O)[O-])C([H])([H])C([H])(O[H])C1([H])O[H]

$$$$
89:1:1
     RDKit          3D

 25 25  0  0  1  0  0  0  0  0999 V2000
    5.3395   -3.9220    1.4130 O   0  0  0  0  0  0  0  0  0  0  0  0
    4.1097   -4.1365    1.4965 C   0  0  0  0  0  0  0  0  0  0  0  0
    3.4937   -4.2908    2.5770 O   0  0  0  0  0  0  0  0  0  0  0  0
    3.2377   -4.2830    0.2354 C   0  0  0  0  0  0  0  0  0  0  0  0
    3.5168   -3.3628   -0.8766 N   0  0  0  0  0  0  0  0  0  0  0  0
    2.3838   -3.2687   -1.8150 C   0  0  0  0  0  0  0  0  0  0  0  0
    2.6057   -2.2285   -2.9271 C   0  0  1  0  0  0  0  0  0  0  0  0
    2.6365   -0.9489   -2.3393 O   0  0  0  0  0  0  0  0  0  0  0  0
    3.9431   -2.4724   -3.6510 C   0  0  1  0  0  0  0  0  0  0  0  0
    4.1729   -1.4314   -4.5766 O   0  0  0  0  0  0  0  0  0  0  0  0
    5.1222   -2.6195   -2.6698 C   0  0  1  0  0  0  0  0  0  0  0  0
    5.4110   -1.4173   -1.9756 O   0  0  0  0  0  0  0  0  0  0  0  0
    4.7626   -3.6676   -1.6113 C   0  0  0  0  0  0  0  0  0  0  0  0
    3.2779   -5.3114   -0.1182 H   0  0  0  0  0  0  0  0  0  0  0  0
    2.2169   -4.1321    0.5714 H   0  0  0  0  0  0  0  0  0  0  0  0
    2.1958   -4.2284   -2.2791 H   0  0  0  0  0  0  0  0  0  0  0  0
    1.4517   -3.0570   -1.2883 H   0  0  0  0  0  0  0  0  0  0  0  0
    1.7868   -2.2765   -3.6548 H   0  0  0  0  0  0  0  0  0  0  0  0
    1.8999   -0.8829   -1.6972 H   0  0  0  0  0  0  0  0  0  0  0  0
    3.8551   -3.4022   -4.2076 H   0  0  0  0  0  0  0  0  0  0  0  0
    4.0571   -0.6342   -4.0914 H   0  0  0  0  0  0  0  0  0  0  0  0
    6.0225   -2.9421   -3.1961 H   0  0  0  0  0  0  0  0  0  0  0  0
    4.5809   -1.1377   -1.6082 H   0  0  0  0  0  0  0  0  0  0  0  0
    5.6375   -3.7354   -0.9735 H   0  0  0  0  0  0  0  0  0  0  0  0
    4.6568   -4.6413   -2.0904 H   0  0  0  0  0  0  0  0  0  0  0  0
  1  2  2  0
  2  3  1  0
  2  4  1  0
  4  5  1  0
  4 14  1  0
  4 15  1  0
  5 13  1  0
  5  6  1  0
  6  7  1  0
  6 16  1  0
  6 17  1  0
  7  8  1  0
  7  9  1  0
  7 18  1  6
  8 19  1  0
  9 10  1  0
  9 11  1  0
  9 20  1  6
 10 21  1  0
 11 12  1  0
 11 13  1  0
 11 22  1  6
 12 23  1  0
 13 24  1  0
 13 25  1  0
M  CHG  1   3  -1
M  END
>  <i_m_ct_stereo_status>  (289) 
1

>  <s_m_source_file>  (289) 
/var/tmp/pbs.5076255.sched01/tmpt25ahaql/1236iipj8y0.sdf

>  <i_m_source_file_index>  (289) 
2

>  <i_lp_mmshare_version>  (289) 
48012

>  <i_f3d_flags>  (289) 
0

>  <s_epik_input>  (289) 
Tz1DKFtPSF0pW0NIMl1OMVtDSDJdW0NAQEhdKFtPSF0pW0NAQEhdKFtPSF0pW0NAQEhdKFtPSF0pW0NIMl0x

>  <s_epik_cmdline>  (289) 
J2VwaWtfcHl0aG9uJywgJy1waHQnLCAnMi4wJywgJy1waCcsICc3LjAnLCAnLXRuJywgJzgnLCAnLW1hJywgJzIwMCcsICctaW1hZScsICc8aW5maWxlLm1hZT4nLCAnLW9tYWUnLCAnPG91dGZpbGUubWFlPic=

>  <r_epik_Ionization_Penalty>  (289) 
2.35526

>  <r_epik_Ionization_Penalty_Charging>  (289) 
0.00201456

>  <r_epik_Ionization_Penalty_Neutral>  (289) 
2.35325

>  <r_epik_State_Penalty>  (289) 
2.50774

>  <r_epik_Charging_Adjusted_Penalty>  (289) 
2.50976

>  <i_epik_Tot_Q>  (289) 
-1

>  <i_epik_Tot_abs_Q>  (289) 
1

>  <s_lp_Force_Field>  (289) 
OPLS3e

>  <r_lp_Energy>  (289) 
16.3981

>  <b_lp_Chiralities_Consistent>  (289) 
1

>  <s_lp_Variant>  (289) 
89:0-2

>  <s_i_glide_gridfile>  (289) 
pfpi4k_grid

>  <i_i_glide_lignum>  (289) 
2

>  <i_i_glide_rotatable_bonds>  (289) 
5

>  <r_i_docking_score>  (289) 
-4.77977

>  <r_i_glide_ligand_efficiency>  (289) 
-0.367675

>  <r_i_glide_ligand_efficiency_sa>  (289) 
-0.864527

>  <r_i_glide_ligand_efficiency_ln>  (289) 
-1.34077

>  <r_i_glide_gscore>  (289) 
-4.77977

>  <r_i_glide_lipo>  (289) 
-0.510439

>  <r_i_glide_hbond>  (289) 
0

>  <r_i_glide_metal>  (289) 
-0

>  <r_i_glide_rewards>  (289) 
-2.63056

>  <r_i_glide_evdw>  (289) 
-5.06421

>  <r_i_glide_ecoul>  (289) 
-12.1969

>  <r_i_glide_erotb>  (289) 
0.443973

>  <r_i_glide_esite>  (289) 
0

>  <r_i_glide_emodel>  (289) 
-34.8058

>  <r_i_glide_energy>  (289) 
-17.2611

>  <r_i_glide_einternal>  (289) 
1.06974

>  <r_i_glide_intrahb_reward>  (289) 
-0.5

>  <i_i_glide_confnum>  (289) 
5

>  <i_i_glide_posenum>  (289) 
5

>  <r_i_glide_eff_state_penalty>  (289) 
0

>  <ligand_id>  (289) 
89

>  <original_smiles>  (289) 
O=C(O)CN1CC(O)C(O)C(O)C1

>  <smiles>  (289) 
[H]OC1([H])C([H])([H])N(C([H])([H])C(=O)[O-])C([H])([H])C([H])(O[H])C1([H])O[H]

$$$$
89:1:2
     RDKit          3D

 25 25  0  0  1  0  0  0  0  0999 V2000
    3.7968   -0.6128   -5.6227 O   0  0  0  0  0  0  0  0  0  0  0  0
    3.5462    0.4094   -4.9568 C   0  0  0  0  0  0  0  0  0  0  0  0
    3.1015    1.4937   -5.3814 O   0  0  0  0  0  0  0  0  0  0  0  0
    3.8564    0.3223   -3.4626 C   0  0  0  0  0  0  0  0  0  0  0  0
    4.3403   -0.9988   -3.0042 N   0  0  0  0  0  0  0  0  0  0  0  0
    3.2286   -1.9613   -2.9713 C   0  0  0  0  0  0  0  0  0  0  0  0
    3.6736   -3.3521   -2.5610 C   0  0  1  0  0  0  0  0  0  0  0  0
    4.4141   -3.9117   -3.6332 O   0  0  0  0  0  0  0  0  0  0  0  0
    4.4588   -3.3114   -1.2279 C   0  0  1  0  0  0  0  0  0  0  0  0
    4.9315   -4.5775   -0.8318 O   0  0  0  0  0  0  0  0  0  0  0  0
    5.5651   -2.2424   -1.1691 C   0  0  1  0  0  0  0  0  0  0  0  0
    6.7357   -2.5963   -1.8714 O   0  0  0  0  0  0  0  0  0  0  0  0
    4.9929   -0.9104   -1.6886 C   0  0  0  0  0  0  0  0  0  0  0  0
    4.5526    1.1362   -3.2385 H   0  0  0  0  0  0  0  0  0  0  0  0
    2.9032    0.5223   -2.9865 H   0  0  0  0  0  0  0  0  0  0  0  0
    2.4632   -1.6382   -2.2615 H   0  0  0  0  0  0  0  0  0  0  0  0
    2.7044   -2.0534   -3.9284 H   0  0  0  0  0  0  0  0  0  0  0  0
    2.7307   -3.8766   -2.4341 H   0  0  0  0  0  0  0  0  0  0  0  0
    4.4307   -4.8578   -3.5326 H   0  0  0  0  0  0  0  0  0  0  0  0
    3.7430   -3.0171   -0.4654 H   0  0  0  0  0  0  0  0  0  0  0  0
    5.0807   -5.0883   -1.6175 H   0  0  0  0  0  0  0  0  0  0  0  0
    5.9160   -2.1251   -0.1417 H   0  0  0  0  0  0  0  0  0  0  0  0
    6.7608   -3.5415   -1.9370 H   0  0  0  0  0  0  0  0  0  0  0  0
    5.8081   -0.2192   -1.7557 H   0  0  0  0  0  0  0  0  0  0  0  0
    4.3001   -0.5175   -0.9389 H   0  0  0  0  0  0  0  0  0  0  0  0
  1  2  2  0
  2  3  1  0
  2  4  1  0
  4  5  1  0
  4 14  1  0
  4 15  1  0
  5 13  1  0
  5  6  1  0
  6  7  1  0
  6 16  1  0
  6 17  1  0
  7  8  1  0
  7  9  1  0
  7 18  1  1
  8 19  1  0
  9 10  1  0
  9 11  1  0
  9 20  1  1
 10 21  1  0
 11 12  1  0
 11 13  1  0
 11 22  1  1
 12 23  1  0
 13 24  1  0
 13 25  1  0
M  CHG  1   3  -1
M  END
>  <i_m_ct_stereo_status>  (290) 
1

>  <s_m_source_file>  (290) 
/var/tmp/pbs.5076255.sched01/tmpt25ahaql/1236iipj8y0.sdf

>  <i_m_source_file_index>  (290) 
2

>  <i_lp_mmshare_version>  (290) 
48012

>  <i_f3d_flags>  (290) 
0

>  <s_epik_input>  (290) 
Tz1DKFtPSF0pW0NIMl1OMVtDSDJdW0NAQEhdKFtPSF0pW0NAQEhdKFtPSF0pW0NAQEhdKFtPSF0pW0NIMl0x

>  <s_epik_cmdline>  (290) 
J2VwaWtfcHl0aG9uJywgJy1waHQnLCAnMi4wJywgJy1waCcsICc3LjAnLCAnLXRuJywgJzgnLCAnLW1hJywgJzIwMCcsICctaW1hZScsICc8aW5maWxlLm1hZT4nLCAnLW9tYWUnLCAnPG91dGZpbGUubWFlPic=

>  <r_epik_Ionization_Penalty>  (290) 
2.35526

>  <r_epik_Ionization_Penalty_Charging>  (290) 
0.00201456

>  <r_epik_Ionization_Penalty_Neutral>  (290) 
2.35325

>  <r_epik_State_Penalty>  (290) 
2.50774

>  <r_epik_Charging_Adjusted_Penalty>  (290) 
2.50976

>  <i_epik_Tot_Q>  (290) 
-1

>  <i_epik_Tot_abs_Q>  (290) 
1

>  <s_lp_Force_Field>  (290) 
OPLS3e

>  <r_lp_Energy>  (290) 
16.3981

>  <b_lp_Chiralities_Consistent>  (290) 
1

>  <s_lp_Variant>  (290) 
89:0-2

>  <s_i_glide_gridfile>  (290) 
pfpi4k_grid

>  <i_i_glide_lignum>  (290) 
2

>  <i_i_glide_rotatable_bonds>  (290) 
5

>  <r_i_docking_score>  (290) 
-4.24598

>  <r_i_glide_ligand_efficiency>  (290) 
-0.326614

>  <r_i_glide_ligand_efficiency_sa>  (290) 
-0.767978

>  <r_i_glide_ligand_efficiency_ln>  (290) 
-1.19103

>  <r_i_glide_gscore>  (290) 
-4.24598

>  <r_i_glide_lipo>  (290) 
-0.00777195

>  <r_i_glide_hbond>  (290) 
-0.108133

>  <r_i_glide_metal>  (290) 
-0

>  <r_i_glide_rewards>  (290) 
-2.2574

>  <r_i_glide_evdw>  (290) 
-14.8313

>  <r_i_glide_ecoul>  (290) 
-10.5006

>  <r_i_glide_erotb>  (290) 
0.443973

>  <r_i_glide_esite>  (290) 
0

>  <r_i_glide_emodel>  (290) 
-34.1281

>  <r_i_glide_energy>  (290) 
-25.3318

>  <r_i_glide_einternal>  (290) 
3.56528

>  <r_i_glide_intrahb_reward>  (290) 
-0

>  <i_i_glide_confnum>  (290) 
5

>  <i_i_glide_posenum>  (290) 
30

>  <r_i_glide_eff_state_penalty>  (290) 
0

>  <ligand_id>  (290) 
89

>  <original_smiles>  (290) 
O=C(O)CN1CC(O)C(O)C(O)C1

>  <smiles>  (290) 
[H]OC1([H])C([H])([H])N(C([H])([H])C(=O)[O-])C([H])([H])C([H])(O[H])C1([H])O[H]

$$$$
89:2:0
     RDKit          3D

 25 25  0  0  1  0  0  0  0  0999 V2000
    1.4260   -5.4952    0.4137 O   0  0  0  0  0  0  0  0  0  0  0  0
    2.5961   -5.0599    0.5591 C   0  0  0  0  0  0  0  0  0  0  0  0
    3.6077   -5.7557    0.7965 O   0  0  0  0  0  0  0  0  0  0  0  0
    2.7889   -3.5454    0.4648 C   0  0  0  0  0  0  0  0  0  0  0  0
    3.5159   -3.1313   -0.7366 N   0  0  0  0  0  0  0  0  0  0  0  0
    4.0562   -1.7754   -0.6057 C   0  0  0  0  0  0  0  0  0  0  0  0
    4.8848   -1.3262   -1.8225 C   0  0  1  0  0  0  0  0  0  0  0  0
    6.0717   -2.1026   -1.8472 O   0  0  0  0  0  0  0  0  0  0  0  0
    4.1021   -1.5107   -3.1445 C   0  0  2  0  0  0  0  0  0  0  0  0
    3.0751   -0.5515   -3.2074 O   0  0  0  0  0  0  0  0  0  0  0  0
    3.4556   -2.9090   -3.2485 C   0  0  1  0  0  0  0  0  0  0  0  0
    4.4488   -3.8762   -3.5134 O   0  0  0  0  0  0  0  0  0  0  0  0
    2.7075   -3.2674   -1.9524 C   0  0  0  0  0  0  0  0  0  0  0  0
    1.8241   -3.0348    0.4998 H   0  0  0  0  0  0  0  0  0  0  0  0
    3.3199   -3.2425    1.3646 H   0  0  0  0  0  0  0  0  0  0  0  0
    3.2406   -1.0691   -0.4623 H   0  0  0  0  0  0  0  0  0  0  0  0
    4.6749   -1.7014    0.2952 H   0  0  0  0  0  0  0  0  0  0  0  0
    5.2019   -0.2919   -1.7056 H   0  0  0  0  0  0  0  0  0  0  0  0
    5.7950   -2.9980   -2.0180 H   0  0  0  0  0  0  0  0  0  0  0  0
    4.7446   -1.3237   -4.0029 H   0  0  0  0  0  0  0  0  0  0  0  0
    2.4994   -0.6782   -2.4665 H   0  0  0  0  0  0  0  0  0  0  0  0
    2.7650   -2.9416   -4.0888 H   0  0  0  0  0  0  0  0  0  0  0  0
    4.1096   -4.7113   -3.1842 H   0  0  0  0  0  0  0  0  0  0  0  0
    2.2667   -4.2508   -2.0341 H   0  0  0  0  0  0  0  0  0  0  0  0
    1.8313   -2.6300   -1.8891 H   0  0  0  0  0  0  0  0  0  0  0  0
  1  2  2  0
  2  3  1  0
  2  4  1  0
  4  5  1  0
  4 14  1  0
  4 15  1  0
  5 13  1  0
  5  6  1  0
  6  7  1  0
  6 16  1  0
  6 17  1  0
  7  8  1  0
  7  9  1  0
  7 18  1  1
  8 19  1  0
  9 10  1  0
  9 11  1  0
  9 20  1  6
 10 21  1  0
 11 12  1  0
 11 13  1  0
 11 22  1  6
 12 23  1  0
 13 24  1  0
 13 25  1  0
M  CHG  1   3  -1
M  END
>  <i_m_ct_stereo_status>  (291) 
1

>  <s_m_source_file>  (291) 
/var/tmp/pbs.5076255.sched01/tmpt25ahaql/1236iipj8y0.sdf

>  <i_m_source_file_index>  (291) 
3

>  <i_lp_mmshare_version>  (291) 
48012

>  <i_f3d_flags>  (291) 
0

>  <s_epik_input>  (291) 
Tz1DKFtPSF0pW0NIMl1OMVtDSDJdW0NAQEhdKFtPSF0pW0NAQEhdKFtPSF0pW0NAQEhdKFtPSF0pW0NIMl0x

>  <s_epik_cmdline>  (291) 
J2VwaWtfcHl0aG9uJywgJy1waHQnLCAnMi4wJywgJy1waCcsICc3LjAnLCAnLXRuJywgJzgnLCAnLW1hJywgJzIwMCcsICctaW1hZScsICc8aW5maWxlLm1hZT4nLCAnLW9tYWUnLCAnPG91dGZpbGUubWFlPic=

>  <r_epik_Ionization_Penalty>  (291) 
2.35526

>  <r_epik_Ionization_Penalty_Charging>  (291) 
0.00201456

>  <r_epik_Ionization_Penalty_Neutral>  (291) 
2.35325

>  <r_epik_State_Penalty>  (291) 
2.50774

>  <r_epik_Charging_Adjusted_Penalty>  (291) 
2.50976

>  <i_epik_Tot_Q>  (291) 
-1

>  <i_epik_Tot_abs_Q>  (291) 
1

>  <s_lp_Force_Field>  (291) 
OPLS3e

>  <r_lp_Energy>  (291) 
17.3152

>  <b_lp_Chiralities_Consistent>  (291) 
1

>  <s_lp_Variant>  (291) 
89:0-3

>  <s_i_glide_gridfile>  (291) 
pfpi4k_grid

>  <i_i_glide_lignum>  (291) 
3

>  <i_i_glide_rotatable_bonds>  (291) 
5

>  <r_i_docking_score>  (291) 
-4.85036

>  <r_i_glide_ligand_efficiency>  (291) 
-0.373104

>  <r_i_glide_ligand_efficiency_sa>  (291) 
-0.877293

>  <r_i_glide_ligand_efficiency_ln>  (291) 
-1.36057

>  <r_i_glide_gscore>  (291) 
-4.85036

>  <r_i_glide_lipo>  (291) 
-0.265547

>  <r_i_glide_hbond>  (291) 
-0.164147

>  <r_i_glide_metal>  (291) 
-0

>  <r_i_glide_rewards>  (291) 
-2.61245

>  <r_i_glide_evdw>  (291) 
-14.8345

>  <r_i_glide_ecoul>  (291) 
-9.79917

>  <r_i_glide_erotb>  (291) 
0.443973

>  <r_i_glide_esite>  (291) 
-0.0405851

>  <r_i_glide_emodel>  (291) 
-38.3248

>  <r_i_glide_energy>  (291) 
-24.6336

>  <r_i_glide_einternal>  (291) 
2.00113

>  <r_i_glide_intrahb_reward>  (291) 
-0.5

>  <i_i_glide_confnum>  (291) 
6

>  <i_i_glide_posenum>  (291) 
15

>  <r_i_glide_eff_state_penalty>  (291) 
0

>  <ligand_id>  (291) 
89

>  <original_smiles>  (291) 
O=C(O)CN1CC(O)C(O)C(O)C1

>  <smiles>  (291) 
[H]OC1([H])C([H])([H])N(C([H])([H])C(=O)[O-])C([H])([H])C([H])(O[H])C1([H])O[H]

$$$$
89:2:1
     RDKit          3D

 25 25  0  0  1  0  0  0  0  0999 V2000
    3.7966   -0.5702   -5.6660 O   0  0  0  0  0  0  0  0  0  0  0  0
    3.3332    0.3624   -5.0068 C   0  0  0  0  0  0  0  0  0  0  0  0
    2.8376    1.4000   -5.4832 O   0  0  0  0  0  0  0  0  0  0  0  0
    3.3732    0.2006   -3.4964 C   0  0  0  0  0  0  0  0  0  0  0  0
    3.7691   -1.1072   -3.0177 N   0  0  0  0  0  0  0  0  0  0  0  0
    2.7324   -2.1154   -3.2851 C   0  0  0  0  0  0  0  0  0  0  0  0
    3.1833   -3.5075   -2.9194 C   0  0  1  0  0  0  0  0  0  0  0  0
    4.2042   -3.9209   -3.8318 O   0  0  0  0  0  0  0  0  0  0  0  0
    3.6696   -3.5723   -1.4462 C   0  0  2  0  0  0  0  0  0  0  0  0
    2.5377   -3.4202   -0.6000 O   0  0  0  0  0  0  0  0  0  0  0  0
    4.6749   -2.4413   -1.1001 C   0  0  1  0  0  0  0  0  0  0  0  0
    5.9817   -2.6664   -1.6284 O   0  0  0  0  0  0  0  0  0  0  0  0
    4.1501   -1.0885   -1.6045 C   0  0  0  0  0  0  0  0  0  0  0  0
    4.0449    0.9717   -3.1278 H   0  0  0  0  0  0  0  0  0  0  0  0
    2.3655    0.4185   -3.1456 H   0  0  0  0  0  0  0  0  0  0  0  0
    1.8272   -1.8928   -2.7167 H   0  0  0  0  0  0  0  0  0  0  0  0
    2.4184   -2.1368   -4.3283 H   0  0  0  0  0  0  0  0  0  0  0  0
    2.3209   -4.1600   -3.0795 H   0  0  0  0  0  0  0  0  0  0  0  0
    4.4832   -4.7767   -3.5489 H   0  0  0  0  0  0  0  0  0  0  0  0
    4.0859   -4.5458   -1.2050 H   0  0  0  0  0  0  0  0  0  0  0  0
    2.1490   -2.5680   -0.7464 H   0  0  0  0  0  0  0  0  0  0  0  0
    4.8263   -2.4036   -0.0210 H   0  0  0  0  0  0  0  0  0  0  0  0
    6.1718   -3.5875   -1.5806 H   0  0  0  0  0  0  0  0  0  0  0  0
    4.8979   -0.3158   -1.4270 H   0  0  0  0  0  0  0  0  0  0  0  0
    3.2832   -0.8052   -0.9977 H   0  0  0  0  0  0  0  0  0  0  0  0
  1  2  2  0
  2  3  1  0
  2  4  1  0
  4  5  1  0
  4 14  1  0
  4 15  1  0
  5 13  1  0
  5  6  1  0
  6  7  1  0
  6 16  1  0
  6 17  1  0
  7  8  1  0
  7  9  1  0
  7 18  1  1
  8 19  1  0
  9 10  1  0
  9 11  1  0
  9 20  1  1
 10 21  1  0
 11 12  1  0
 11 13  1  0
 11 22  1  1
 12 23  1  0
 13 24  1  0
 13 25  1  0
M  CHG  1   3  -1
M  END
>  <i_m_ct_stereo_status>  (292) 
1

>  <s_m_source_file>  (292) 
/var/tmp/pbs.5076255.sched01/tmpt25ahaql/1236iipj8y0.sdf

>  <i_m_source_file_index>  (292) 
3

>  <i_lp_mmshare_version>  (292) 
48012

>  <i_f3d_flags>  (292) 
0

>  <s_epik_input>  (292) 
Tz1DKFtPSF0pW0NIMl1OMVtDSDJdW0NAQEhdKFtPSF0pW0NAQEhdKFtPSF0pW0NAQEhdKFtPSF0pW0NIMl0x

>  <s_epik_cmdline>  (292) 
J2VwaWtfcHl0aG9uJywgJy1waHQnLCAnMi4wJywgJy1waCcsICc3LjAnLCAnLXRuJywgJzgnLCAnLW1hJywgJzIwMCcsICctaW1hZScsICc8aW5maWxlLm1hZT4nLCAnLW9tYWUnLCAnPG91dGZpbGUubWFlPic=

>  <r_epik_Ionization_Penalty>  (292) 
2.35526

>  <r_epik_Ionization_Penalty_Charging>  (292) 
0.00201456

>  <r_epik_Ionization_Penalty_Neutral>  (292) 
2.35325

>  <r_epik_State_Penalty>  (292) 
2.50774

>  <r_epik_Charging_Adjusted_Penalty>  (292) 
2.50976

>  <i_epik_Tot_Q>  (292) 
-1

>  <i_epik_Tot_abs_Q>  (292) 
1

>  <s_lp_Force_Field>  (292) 
OPLS3e

>  <r_lp_Energy>  (292) 
17.3152

>  <b_lp_Chiralities_Consistent>  (292) 
1

>  <s_lp_Variant>  (292) 
89:0-3

>  <s_i_glide_gridfile>  (292) 
pfpi4k_grid

>  <i_i_glide_lignum>  (292) 
3

>  <i_i_glide_rotatable_bonds>  (292) 
5

>  <r_i_docking_score>  (292) 
-4.60625

>  <r_i_glide_ligand_efficiency>  (292) 
-0.354327

>  <r_i_glide_ligand_efficiency_sa>  (292) 
-0.833142

>  <r_i_glide_ligand_efficiency_ln>  (292) 
-1.2921

>  <r_i_glide_gscore>  (292) 
-4.60625

>  <r_i_glide_lipo>  (292) 
-0.100153

>  <r_i_glide_hbond>  (292) 
-0.231899

>  <r_i_glide_metal>  (292) 
-0

>  <r_i_glide_rewards>  (292) 
-2.24963

>  <r_i_glide_evdw>  (292) 
-14.2789

>  <r_i_glide_ecoul>  (292) 
-11.6973

>  <r_i_glide_erotb>  (292) 
0.443973

>  <r_i_glide_esite>  (292) 
0

>  <r_i_glide_emodel>  (292) 
-34.4536

>  <r_i_glide_energy>  (292) 
-25.9763

>  <r_i_glide_einternal>  (292) 
1.245

>  <r_i_glide_intrahb_reward>  (292) 
-0

>  <i_i_glide_confnum>  (292) 
4

>  <i_i_glide_posenum>  (292) 
2

>  <r_i_glide_eff_state_penalty>  (292) 
0

>  <ligand_id>  (292) 
89

>  <original_smiles>  (292) 
O=C(O)CN1CC(O)C(O)C(O)C1

>  <smiles>  (292) 
[H]OC1([H])C([H])([H])N(C([H])([H])C(=O)[O-])C([H])([H])C([H])(O[H])C1([H])O[H]

$$$$
89:2:2
     RDKit          3D

 25 25  0  0  1  0  0  0  0  0999 V2000
    3.8010   -0.4559   -5.7537 O   0  0  0  0  0  0  0  0  0  0  0  0
    3.4203    0.4926   -5.0469 C   0  0  0  0  0  0  0  0  0  0  0  0
    2.9894    1.5662   -5.4961 O   0  0  0  0  0  0  0  0  0  0  0  0
    3.4419    0.2574   -3.5285 C   0  0  0  0  0  0  0  0  0  0  0  0
    3.9280   -1.0518   -3.1120 N   0  0  0  0  0  0  0  0  0  0  0  0
    2.9577   -2.1091   -3.4275 C   0  0  0  0  0  0  0  0  0  0  0  0
    3.4902   -3.5034   -3.0833 C   0  0  1  0  0  0  0  0  0  0  0  0
    4.5721   -3.8421   -3.9345 O   0  0  0  0  0  0  0  0  0  0  0  0
    3.9302   -3.5808   -1.6021 C   0  0  2  0  0  0  0  0  0  0  0  0
    2.7793   -3.5380   -0.7731 O   0  0  0  0  0  0  0  0  0  0  0  0
    4.8674   -2.4084   -1.2347 C   0  0  1  0  0  0  0  0  0  0  0  0
    6.1546   -2.5550   -1.8048 O   0  0  0  0  0  0  0  0  0  0  0  0
    4.2654   -1.0650   -1.6878 C   0  0  0  0  0  0  0  0  0  0  0  0
    4.0771    1.0383   -3.1340 H   0  0  0  0  0  0  0  0  0  0  0  0
    2.4462    0.4162   -3.1335 H   0  0  0  0  0  0  0  0  0  0  0  0
    2.0340   -1.9402   -2.8658 H   0  0  0  0  0  0  0  0  0  0  0  0
    2.6748   -2.1035   -4.4802 H   0  0  0  0  0  0  0  0  0  0  0  0
    2.6969   -4.2164   -3.3083 H   0  0  0  0  0  0  0  0  0  0  0  0
    4.8965   -4.6921   -3.6854 H   0  0  0  0  0  0  0  0  0  0  0  0
    4.4136   -4.5366   -1.4034 H   0  0  0  0  0  0  0  0  0  0  0  0
    3.0504   -3.4112    0.1215 H   0  0  0  0  0  0  0  0  0  0  0  0
    5.0263   -2.3950   -0.1565 H   0  0  0  0  0  0  0  0  0  0  0  0
    6.4120   -3.4611   -1.7482 H   0  0  0  0  0  0  0  0  0  0  0  0
    4.9599   -0.2628   -1.4565 H   0  0  0  0  0  0  0  0  0  0  0  0
    3.3667   -0.8596   -1.0982 H   0  0  0  0  0  0  0  0  0  0  0  0
  1  2  2  0
  2  3  1  0
  2  4  1  0
  4  5  1  0
  4 14  1  0
  4 15  1  0
  5 13  1  0
  5  6  1  0
  6  7  1  0
  6 16  1  0
  6 17  1  0
  7  8  1  0
  7  9  1  0
  7 18  1  1
  8 19  1  0
  9 10  1  0
  9 11  1  0
  9 20  1  6
 10 21  1  0
 11 12  1  0
 11 13  1  0
 11 22  1  1
 12 23  1  0
 13 24  1  0
 13 25  1  0
M  CHG  1   3  -1
M  END
>  <i_m_ct_stereo_status>  (293) 
1

>  <s_m_source_file>  (293) 
/var/tmp/pbs.5076255.sched01/tmpt25ahaql/1236iipj8y0.sdf

>  <i_m_source_file_index>  (293) 
3

>  <i_lp_mmshare_version>  (293) 
48012

>  <i_f3d_flags>  (293) 
0

>  <s_epik_input>  (293) 
Tz1DKFtPSF0pW0NIMl1OMVtDSDJdW0NAQEhdKFtPSF0pW0NAQEhdKFtPSF0pW0NAQEhdKFtPSF0pW0NIMl0x

>  <s_epik_cmdline>  (293) 
J2VwaWtfcHl0aG9uJywgJy1waHQnLCAnMi4wJywgJy1waCcsICc3LjAnLCAnLXRuJywgJzgnLCAnLW1hJywgJzIwMCcsICctaW1hZScsICc8aW5maWxlLm1hZT4nLCAnLW9tYWUnLCAnPG91dGZpbGUubWFlPic=

>  <r_epik_Ionization_Penalty>  (293) 
2.35526

>  <r_epik_Ionization_Penalty_Charging>  (293) 
0.00201456

>  <r_epik_Ionization_Penalty_Neutral>  (293) 
2.35325

>  <r_epik_State_Penalty>  (293) 
2.50774

>  <r_epik_Charging_Adjusted_Penalty>  (293) 
2.50976

>  <i_epik_Tot_Q>  (293) 
-1

>  <i_epik_Tot_abs_Q>  (293) 
1

>  <s_lp_Force_Field>  (293) 
OPLS3e

>  <r_lp_Energy>  (293) 
17.3152

>  <b_lp_Chiralities_Consistent>  (293) 
1

>  <s_lp_Variant>  (293) 
89:0-3

>  <s_i_glide_gridfile>  (293) 
pfpi4k_grid

>  <i_i_glide_lignum>  (293) 
3

>  <i_i_glide_rotatable_bonds>  (293) 
5

>  <r_i_docking_score>  (293) 
-4.2141

>  <r_i_glide_ligand_efficiency>  (293) 
-0.324161

>  <r_i_glide_ligand_efficiency_sa>  (293) 
-0.762211

>  <r_i_glide_ligand_efficiency_ln>  (293) 
-1.18209

>  <r_i_glide_gscore>  (293) 
-4.2141

>  <r_i_glide_lipo>  (293) 
-0.178781

>  <r_i_glide_hbond>  (293) 
-0.0926806

>  <r_i_glide_metal>  (293) 
-0

>  <r_i_glide_rewards>  (293) 
-2.25391

>  <r_i_glide_evdw>  (293) 
-15.4984

>  <r_i_glide_ecoul>  (293) 
-9.05188

>  <r_i_glide_erotb>  (293) 
0.443973

>  <r_i_glide_esite>  (293) 
0

>  <r_i_glide_emodel>  (293) 
-31.8165

>  <r_i_glide_energy>  (293) 
-24.5502

>  <r_i_glide_einternal>  (293) 
1.73028

>  <r_i_glide_intrahb_reward>  (293) 
-0

>  <i_i_glide_confnum>  (293) 
4

>  <i_i_glide_posenum>  (293) 
8

>  <r_i_glide_eff_state_penalty>  (293) 
0

>  <ligand_id>  (293) 
89

>  <original_smiles>  (293) 
O=C(O)CN1CC(O)C(O)C(O)C1

>  <smiles>  (293) 
[H]OC1([H])C([H])([H])N(C([H])([H])C(=O)[O-])C([H])([H])C([H])(O[H])C1([H])O[H]

$$$$
90:0:0
     RDKit          3D

 75 80  0  0  1  0  0  0  0  0999 V2000
   -0.6584   -9.6843    2.8990 C   0  0  0  0  0  0  0  0  0  0  0  0
    0.4869   -8.8486    2.9696 O   0  0  0  0  0  0  0  0  0  0  0  0
    0.5555   -7.7298    2.2262 C   0  0  0  0  0  0  0  0  0  0  0  0
   -0.3264   -7.2976    1.4829 O   0  0  0  0  0  0  0  0  0  0  0  0
    1.8501   -6.9327    2.4404 C   0  0  2  0  0  0  0  0  0  0  0  0
    3.0658   -7.8178    2.0987 C   0  0  0  0  0  0  0  0  0  0  0  0
    1.9351   -6.2748    3.8575 C   0  0  2  0  0  0  0  0  0  0  0  0
    0.6006   -5.7199    4.4114 C   0  0  1  0  0  0  0  0  0  0  0  0
   -0.0005   -6.6449    5.2964 O   0  0  0  0  0  0  0  0  0  0  0  0
    0.9064   -4.3968    5.1346 C   0  0  0  0  0  0  0  0  0  0  0  0
    2.4407   -4.2650    5.2398 C   0  0  2  0  0  0  0  0  0  0  0  0
    2.9211   -4.8872    6.5792 C   0  0  0  0  0  0  0  0  0  0  0  0
    3.0031   -2.8148    5.0092 C   0  0  2  0  0  0  0  0  0  0  0  0
    2.4220   -1.6006    5.8008 C   0  0  0  0  0  0  0  0  0  0  0  0
    1.7350   -1.8260    6.8643 N   0  0  0  0  0  0  0  0  0  0  0  0
    1.3660   -0.8737    7.8266 N   0  0  0  0  0  0  0  0  0  0  0  0
    2.1550    0.0595    8.3722 C   0  0  0  0  0  0  0  0  0  0  0  0
    1.5190    0.8034    9.2861 N   0  0  0  0  0  0  0  0  0  0  0  0
    0.2705    0.2819    9.2604 N   0  0  0  0  0  0  0  0  0  0  0  0
    0.1732   -0.7353    8.4577 N   0  0  0  0  0  0  0  0  0  0  0  0
    2.8187   -0.2371    5.1494 C   0  0  2  0  0  0  0  0  0  0  0  0
    4.2502    0.2352    5.5222 C   0  0  0  0  0  0  0  0  0  0  0  0
    1.6565    0.7757    5.1870 C   0  0  0  0  0  0  0  0  0  0  0  0
    1.3399    1.6554    6.1467 O   0  0  0  0  0  0  0  0  0  0  0  0
    1.3823    0.7375    3.8672 C   0  0  0  0  0  0  0  0  0  0  0  0
    0.5708    1.6154    2.9908 C   0  0  0  0  0  0  0  0  0  0  0  0
    0.3135    1.2873    1.8249 O   0  0  0  0  0  0  0  0  0  0  0  0
    0.0241    2.9499    3.5625 C   0  0  0  0  0  0  0  0  0  0  0  0
   -1.4128    3.3539    3.1494 C   0  0  2  0  0  0  0  0  0  0  0  0
   -1.3983    4.7496    2.9088 O   0  0  0  0  0  0  0  0  0  0  0  0
   -2.4677    3.1056    4.2145 C   0  0  2  0  0  0  0  0  0  0  0  0
   -2.2530    3.4755    5.6672 C   0  0  0  0  0  0  0  0  0  0  0  0
   -2.1718    2.1192    5.2133 O   0  0  0  0  0  0  0  0  0  0  0  0
    2.5402   -0.2227    3.5936 C   0  0  2  0  0  0  0  0  0  0  0  0
    2.1396   -1.5261    2.9367 C   0  0  1  0  0  0  0  0  0  0  0  0
    2.2801   -1.4149    1.5348 O   0  0  0  0  0  0  0  0  0  0  0  0
    3.0783   -2.6317    3.4688 C   0  0  2  0  0  0  0  0  0  0  0  0
    2.7995   -4.0160    2.8548 C   0  0  1  0  0  0  0  0  0  0  0  0
    3.6655   -4.2538    1.7615 O   0  0  0  0  0  0  0  0  0  0  0  0
    2.9059   -5.0689    3.9923 C   0  0  2  0  0  0  0  0  0  0  0  0
    4.2446   -5.5182    4.1555 O   0  0  0  0  0  0  0  0  0  0  0  0
   -0.5233  -10.5390    3.5615 H   0  0  0  0  0  0  0  0  0  0  0  0
   -0.8172  -10.0661    1.8901 H   0  0  0  0  0  0  0  0  0  0  0  0
   -1.5561   -9.1531    3.2177 H   0  0  0  0  0  0  0  0  0  0  0  0
    1.8115   -6.1456    1.6896 H   0  0  0  0  0  0  0  0  0  0  0  0
    2.9710   -8.2501    1.0992 H   0  0  0  0  0  0  0  0  0  0  0  0
    3.1689   -8.6475    2.8012 H   0  0  0  0  0  0  0  0  0  0  0  0
    3.9934   -7.2438    2.1195 H   0  0  0  0  0  0  0  0  0  0  0  0
    2.2886   -7.0400    4.5508 H   0  0  0  0  0  0  0  0  0  0  0  0
   -0.1095   -5.5024    3.6150 H   0  0  0  0  0  0  0  0  0  0  0  0
   -0.0434   -7.4889    4.8676 H   0  0  0  0  0  0  0  0  0  0  0  0
    0.5060   -3.5863    4.5265 H   0  0  0  0  0  0  0  0  0  0  0  0
    0.4088   -4.3244    6.1014 H   0  0  0  0  0  0  0  0  0  0  0  0
    4.0034   -4.8344    6.6971 H   0  0  0  0  0  0  0  0  0  0  0  0
    2.6381   -5.9371    6.6633 H   0  0  0  0  0  0  0  0  0  0  0  0
    2.4827   -4.3772    7.4351 H   0  0  0  0  0  0  0  0  0  0  0  0
    4.0402   -2.8678    5.3468 H   0  0  0  0  0  0  0  0  0  0  0  0
    3.2063    0.1897    8.1058 H   0  0  0  0  0  0  0  0  0  0  0  0
    4.5009    0.3507    6.5676 H   0  0  0  0  0  0  0  0  0  0  0  0
    4.4600    1.1857    5.0285 H   0  0  0  0  0  0  0  0  0  0  0  0
    4.9667   -0.4920    5.1243 H   0  0  0  0  0  0  0  0  0  0  0  0
    0.0036    2.8548    4.6367 H   0  0  0  0  0  0  0  0  0  0  0  0
    0.7461    3.7528    3.3955 H   0  0  0  0  0  0  0  0  0  0  0  0
   -1.7319    2.8613    2.2332 H   0  0  0  0  0  0  0  0  0  0  0  0
   -0.8244    4.8726    2.1630 H   0  0  0  0  0  0  0  0  0  0  0  0
   -3.5032    3.1080    3.8561 H   0  0  0  0  0  0  0  0  0  0  0  0
   -1.3009    3.9186    5.9457 H   0  0  0  0  0  0  0  0  0  0  0  0
   -3.1041    3.7090    6.3067 H   0  0  0  0  0  0  0  0  0  0  0  0
    3.4138    0.2182    3.1047 H   0  0  0  0  0  0  0  0  0  0  0  0
    1.1027   -1.7737    3.1685 H   0  0  0  0  0  0  0  0  0  0  0  0
    1.6008   -0.8556    1.1649 H   0  0  0  0  0  0  0  0  0  0  0  0
    4.1104   -2.3429    3.2442 H   0  0  0  0  0  0  0  0  0  0  0  0
    1.7784   -4.0062    2.4677 H   0  0  0  0  0  0  0  0  0  0  0  0
    3.5014   -3.5705    1.1255 H   0  0  0  0  0  0  0  0  0  0  0  0
    4.8070   -4.7657    4.2471 H   0  0  0  0  0  0  0  0  0  0  0  0
  1  2  1  0
  1 42  1  0
  1 43  1  0
  1 44  1  0
  2  3  1  0
  3  4  2  0
  3  5  1  0
  5  6  1  0
  5  7  1  0
  5 45  1  6
  6 46  1  0
  6 47  1  0
  6 48  1  0
  7 40  1  0
  7  8  1  0
  7 49  1  1
  8  9  1  0
  8 10  1  0
  8 50  1  6
  9 51  1  0
 10 11  1  0
 10 52  1  0
 10 53  1  0
 11 40  1  0
 11 12  1  1
 11 13  1  0
 12 54  1  0
 12 55  1  0
 12 56  1  0
 13 37  1  0
 13 14  1  0
 13 57  1  1
 14 15  2  3
 14 21  1  0
 15 16  1  0
 16 20  1  0
 16 17  1  0
 17 18  2  0
 17 58  1  0
 18 19  1  0
 19 20  2  0
 21 34  1  0
 21 22  1  6
 21 23  1  0
 22 59  1  0
 22 60  1  0
 22 61  1  0
 23 24  1  0
 23 25  2  0
 25 26  1  0
 25 34  1  0
 26 27  2  0
 26 28  1  0
 28 29  1  0
 28 62  1  0
 28 63  1  0
 29 30  1  0
 29 31  1  0
 29 64  1  6
 30 65  1  0
 31 33  1  0
 31 32  1  0
 31 66  1  6
 32 33  1  0
 32 67  1  0
 32 68  1  0
 34 35  1  0
 34 69  1  6
 35 36  1  0
 35 37  1  0
 35 70  1  6
 36 71  1  0
 37 38  1  0
 37 72  1  1
 38 39  1  0
 38 40  1  0
 38 73  1  6
 39 74  1  0
 40 41  1  1
 41 75  1  0
M  CHG  1  24  -1
M  END
>  <i_m_ct_stereo_status>  (294) 
1

>  <s_m_source_file>  (294) 
/var/tmp/pbs.5076255.sched01/tmpt25ahaql/1236iipj8y0.sdf

>  <i_m_source_file_index>  (294) 
4

>  <i_lp_mmshare_version>  (294) 
48012

>  <i_f3d_flags>  (294) 
0

>  <s_epik_input>  (294) 
W0NIM11PQyg9TylbQ0BIXShbQ0gzXSlbQ0BIXShbQ0BASF0oW09IXSlbQ0gyXTEpW0NAQF0yKFtPSF0pW0NASF0oW09IXSlbQ0BIXShbQ0BASF0zW0NAQF0xMltDSDNdKVtDQEhdKFtPSF0pW0NAQEhdNFtDQF0oW0NIM10pKENcMz1OL241W2NIXW5ubjUpQyg9TylbQ0BIXTRDKD1PKVtDSDJdW0NASF0oW09IXSlbQ0BASF02W0NIMl1PNg==

>  <s_epik_cmdline>  (294) 
J2VwaWtfcHl0aG9uJywgJy1waHQnLCAnMi4wJywgJy1waCcsICc3LjAnLCAnLXRuJywgJzgnLCAnLW1hJywgJzIwMCcsICctaW1hZScsICc8aW5maWxlLm1hZT4nLCAnLW9tYWUnLCAnPG91dGZpbGUubWFlPic=

>  <r_epik_Ionization_Penalty>  (294) 
0.0013078

>  <r_epik_Ionization_Penalty_Charging>  (294) 
0.00130752

>  <r_epik_Ionization_Penalty_Neutral>  (294) 
2.77622e-07

>  <r_epik_State_Penalty>  (294) 
0.0737399

>  <r_epik_Charging_Adjusted_Penalty>  (294) 
0.0750474

>  <i_epik_Tot_Q>  (294) 
-1

>  <i_epik_Tot_abs_Q>  (294) 
1

>  <s_epik_Chemistry_Notes>  (294) 
This compound has an ester and may undergo hydrolysis at high or low pH. This compound has an imine and may undergo hydrolysis.

>  <s_lp_Force_Field>  (294) 
OPLS3e

>  <r_lp_Energy>  (294) 
41.0147

>  <b_lp_Chiralities_Consistent>  (294) 
1

>  <s_lp_Variant>  (294) 
90:0-1

>  <s_i_glide_gridfile>  (294) 
pfpi4k_grid

>  <i_i_glide_lignum>  (294) 
4

>  <i_i_glide_rotatable_bonds>  (294) 
13

>  <r_i_docking_score>  (294) 
-3.06507

>  <r_i_glide_ligand_efficiency>  (294) 
-0.0747579

>  <r_i_glide_ligand_efficiency_sa>  (294) 
-0.257782

>  <r_i_glide_ligand_efficiency_ln>  (294) 
-0.650266

>  <r_i_glide_gscore>  (294) 
-3.06507

>  <r_i_glide_lipo>  (294) 
-0.00514598

>  <r_i_glide_hbond>  (294) 
-0.280717

>  <r_i_glide_metal>  (294) 
-0

>  <r_i_glide_rewards>  (294) 
0

>  <r_i_glide_evdw>  (294) 
-27.7222

>  <r_i_glide_ecoul>  (294) 
-10.0223

>  <r_i_glide_erotb>  (294) 
0.217838

>  <r_i_glide_esite>  (294) 
-0.18151

>  <r_i_glide_emodel>  (294) 
-37.9371

>  <r_i_glide_energy>  (294) 
-37.7445

>  <r_i_glide_einternal>  (294) 
11.4855

>  <r_i_glide_intrahb_reward>  (294) 
-0

>  <i_i_glide_confnum>  (294) 
3

>  <i_i_glide_posenum>  (294) 
32

>  <r_i_glide_eff_state_penalty>  (294) 
0

>  <ligand_id>  (294) 
90

>  <original_smiles>  (294) 
COC(=O)C(C)C1C(O)CC2(C)C3C(=Nn4cnnn4)C4(C)C(=O)C(C(=O)CC(O)C5CO5)C4C(O)C3C(O)C12O

>  <smiles>  (294) 
[H]OC([H])(C([H])([H])C(=O)C1=C([O-])C2(C([H])([H])[H])C(=Nn3nnnc3[H])C3([H])C([H])(C([H])(O[H])C12[H])C([H])(O[H])C1(O[H])C([H])(C([H])(C(=O)OC([H])([H])[H])C([H])([H])[H])C([H])(O[H])C([H])([H])C31C([H])([H])[H])C1([H])OC1([H])[H]

$$$$
90:0:1
     RDKit          3D

 75 80  0  0  1  0  0  0  0  0999 V2000
   -1.6343    5.3950    2.7327 C   0  0  0  0  0  0  0  0  0  0  0  0
   -1.2488    4.3533    3.6029 O   0  0  0  0  0  0  0  0  0  0  0  0
   -1.9208    3.1865    3.5885 C   0  0  0  0  0  0  0  0  0  0  0  0
   -2.9073    2.9429    2.9012 O   0  0  0  0  0  0  0  0  0  0  0  0
   -1.3328    2.1549    4.5692 C   0  0  2  0  0  0  0  0  0  0  0  0
   -1.3792    2.7587    5.9967 C   0  0  0  0  0  0  0  0  0  0  0  0
    0.0794    1.6483    4.1171 C   0  0  2  0  0  0  0  0  0  0  0  0
    0.0868    0.8893    2.7617 C   0  0  1  0  0  0  0  0  0  0  0  0
    0.5129    1.7393    1.7222 O   0  0  0  0  0  0  0  0  0  0  0  0
    1.0914   -0.2785    2.9102 C   0  0  0  0  0  0  0  0  0  0  0  0
    1.8703   -0.0635    4.2287 C   0  0  2  0  0  0  0  0  0  0  0  0
    3.1605    0.7617    3.9496 C   0  0  0  0  0  0  0  0  0  0  0  0
    2.1557   -1.3724    5.0451 C   0  0  2  0  0  0  0  0  0  0  0  0
    2.8230   -2.5941    4.3658 C   0  0  0  0  0  0  0  0  0  0  0  0
    3.4619   -2.4088    3.2727 N   0  0  0  0  0  0  0  0  0  0  0  0
    4.4107   -3.2638    2.7272 N   0  0  0  0  0  0  0  0  0  0  0  0
    4.7881   -3.2287    1.4507 C   0  0  0  0  0  0  0  0  0  0  0  0
    5.7361   -4.1215    1.1648 N   0  0  0  0  0  0  0  0  0  0  0  0
    5.9938   -4.6665    2.4186 N   0  0  0  0  0  0  0  0  0  0  0  0
    5.2437   -4.1638    3.3078 N   0  0  0  0  0  0  0  0  0  0  0  0
    2.6704   -3.8961    5.2206 C   0  0  2  0  0  0  0  0  0  0  0  0
    3.7465   -4.0081    6.2896 C   0  0  0  0  0  0  0  0  0  0  0  0
    2.3882   -5.1368    4.4012 C   0  0  0  0  0  0  0  0  0  0  0  0
    3.3240   -6.0728    4.0205 O   0  0  0  0  0  0  0  0  0  0  0  0
    1.1254   -5.2519    4.6601 C   0  0  0  0  0  0  0  0  0  0  0  0
    0.1402   -6.3522    4.4637 C   0  0  0  0  0  0  0  0  0  0  0  0
   -0.9407   -6.3798    5.0217 O   0  0  0  0  0  0  0  0  0  0  0  0
    0.5255   -7.4962    3.5115 C   0  0  0  0  0  0  0  0  0  0  0  0
    1.1607   -7.0506    2.1561 C   0  0  2  0  0  0  0  0  0  0  0  0
    0.1161   -6.9421    1.1876 O   0  0  0  0  0  0  0  0  0  0  0  0
    2.1948   -8.0523    1.6577 C   0  0  2  0  0  0  0  0  0  0  0  0
    1.9906   -9.5440    1.7920 C   0  0  0  0  0  0  0  0  0  0  0  0
    2.8872   -8.8246    2.6509 O   0  0  0  0  0  0  0  0  0  0  0  0
    1.1673   -4.1201    5.6980 C   0  0  2  0  0  0  0  0  0  0  0  0
    0.1968   -2.9999    5.4527 C   0  0  1  0  0  0  0  0  0  0  0  0
   -0.9708   -3.2179    6.2202 O   0  0  0  0  0  0  0  0  0  0  0  0
    0.8689   -1.6733    5.8454 C   0  0  2  0  0  0  0  0  0  0  0  0
   -0.0500   -0.4598    5.6707 C   0  0  1  0  0  0  0  0  0  0  0  0
   -0.6834   -0.1781    6.9045 O   0  0  0  0  0  0  0  0  0  0  0  0
    0.8211    0.6913    5.0928 C   0  0  2  0  0  0  0  0  0  0  0  0
    1.4593    1.4099    6.1435 O   0  0  0  0  0  0  0  0  0  0  0  0
   -0.9822    6.2616    2.8636 H   0  0  0  0  0  0  0  0  0  0  0  0
   -2.6733    5.6838    2.8732 H   0  0  0  0  0  0  0  0  0  0  0  0
   -1.5652    5.0905    1.7009 H   0  0  0  0  0  0  0  0  0  0  0  0
   -2.0085    1.3011    4.5379 H   0  0  0  0  0  0  0  0  0  0  0  0
   -2.3963    3.0785    6.2429 H   0  0  0  0  0  0  0  0  0  0  0  0
   -0.7223    3.6289    6.0748 H   0  0  0  0  0  0  0  0  0  0  0  0
   -1.0762    2.0548    6.7594 H   0  0  0  0  0  0  0  0  0  0  0  0
    0.7149    2.5256    3.9934 H   0  0  0  0  0  0  0  0  0  0  0  0
   -0.9009    0.4758    2.5461 H   0  0  0  0  0  0  0  0  0  0  0  0
   -0.0987    2.4658    1.6139 H   0  0  0  0  0  0  0  0  0  0  0  0
    0.5372   -1.2155    2.9612 H   0  0  0  0  0  0  0  0  0  0  0  0
    1.7505   -0.3728    2.0466 H   0  0  0  0  0  0  0  0  0  0  0  0
    3.7393    0.9525    4.8545 H   0  0  0  0  0  0  0  0  0  0  0  0
    2.9391    1.7280    3.4938 H   0  0  0  0  0  0  0  0  0  0  0  0
    3.8271    0.2438    3.2578 H   0  0  0  0  0  0  0  0  0  0  0  0
    2.8941   -1.0722    5.7901 H   0  0  0  0  0  0  0  0  0  0  0  0
    4.3873   -2.5561    0.6902 H   0  0  0  0  0  0  0  0  0  0  0  0
    4.7532   -4.0039    5.8770 H   0  0  0  0  0  0  0  0  0  0  0  0
    3.6324   -4.9288    6.8606 H   0  0  0  0  0  0  0  0  0  0  0  0
    3.6771   -3.1783    7.0020 H   0  0  0  0  0  0  0  0  0  0  0  0
    1.2281   -8.1016    4.0756 H   0  0  0  0  0  0  0  0  0  0  0  0
   -0.3308   -8.1481    3.3517 H   0  0  0  0  0  0  0  0  0  0  0  0
    1.6591   -6.0781    2.2394 H   0  0  0  0  0  0  0  0  0  0  0  0
   -0.1397   -7.8076    0.8814 H   0  0  0  0  0  0  0  0  0  0  0  0
    2.8573   -7.6868    0.8791 H   0  0  0  0  0  0  0  0  0  0  0  0
    1.0837   -9.8944    2.2851 H   0  0  0  0  0  0  0  0  0  0  0  0
    2.4699  -10.2291    1.0933 H   0  0  0  0  0  0  0  0  0  0  0  0
    1.1920   -4.3981    6.7567 H   0  0  0  0  0  0  0  0  0  0  0  0
   -0.0982   -2.9642    4.4069 H   0  0  0  0  0  0  0  0  0  0  0  0
   -0.7199   -3.5413    7.0673 H   0  0  0  0  0  0  0  0  0  0  0  0
    1.1767   -1.7521    6.8872 H   0  0  0  0  0  0  0  0  0  0  0  0
   -0.8199   -0.7173    4.9457 H   0  0  0  0  0  0  0  0  0  0  0  0
   -0.0489    0.2822    7.4361 H   0  0  0  0  0  0  0  0  0  0  0  0
    1.9968    2.0736    5.7406 H   0  0  0  0  0  0  0  0  0  0  0  0
  1  2  1  0
  1 42  1  0
  1 43  1  0
  1 44  1  0
  2  3  1  0
  3  4  2  0
  3  5  1  0
  5  6  1  0
  5  7  1  0
  5 45  1  1
  6 46  1  0
  6 47  1  0
  6 48  1  0
  7 40  1  0
  7  8  1  0
  7 49  1  6
  8  9  1  0
  8 10  1  0
  8 50  1  6
  9 51  1  0
 10 11  1  0
 10 52  1  0
 10 53  1  0
 11 40  1  0
 11 12  1  6
 11 13  1  0
 12 54  1  0
 12 55  1  0
 12 56  1  0
 13 37  1  0
 13 14  1  0
 13 57  1  1
 14 15  2  3
 14 21  1  0
 15 16  1  0
 16 20  1  0
 16 17  1  0
 17 18  2  0
 17 58  1  0
 18 19  1  0
 19 20  2  0
 21 34  1  0
 21 22  1  1
 21 23  1  0
 22 59  1  0
 22 60  1  0
 22 61  1  0
 23 24  1  0
 23 25  2  0
 25 26  1  0
 25 34  1  0
 26 27  2  0
 26 28  1  0
 28 29  1  0
 28 62  1  0
 28 63  1  0
 29 30  1  0
 29 31  1  0
 29 64  1  1
 30 65  1  0
 31 33  1  0
 31 32  1  0
 31 66  1  6
 32 33  1  0
 32 67  1  0
 32 68  1  0
 34 35  1  0
 34 69  1  1
 35 36  1  0
 35 37  1  0
 35 70  1  6
 36 71  1  0
 37 38  1  0
 37 72  1  1
 38 39  1  0
 38 40  1  0
 38 73  1  6
 39 74  1  0
 40 41  1  1
 41 75  1  0
M  CHG  1  24  -1
M  END
>  <i_m_ct_stereo_status>  (295) 
1

>  <s_m_source_file>  (295) 
/var/tmp/pbs.5076255.sched01/tmpt25ahaql/1236iipj8y0.sdf

>  <i_m_source_file_index>  (295) 
4

>  <i_lp_mmshare_version>  (295) 
48012

>  <i_f3d_flags>  (295) 
0

>  <s_epik_input>  (295) 
W0NIM11PQyg9TylbQ0BIXShbQ0gzXSlbQ0BIXShbQ0BASF0oW09IXSlbQ0gyXTEpW0NAQF0yKFtPSF0pW0NASF0oW09IXSlbQ0BIXShbQ0BASF0zW0NAQF0xMltDSDNdKVtDQEhdKFtPSF0pW0NAQEhdNFtDQF0oW0NIM10pKENcMz1OL241W2NIXW5ubjUpQyg9TylbQ0BIXTRDKD1PKVtDSDJdW0NASF0oW09IXSlbQ0BASF02W0NIMl1PNg==

>  <s_epik_cmdline>  (295) 
J2VwaWtfcHl0aG9uJywgJy1waHQnLCAnMi4wJywgJy1waCcsICc3LjAnLCAnLXRuJywgJzgnLCAnLW1hJywgJzIwMCcsICctaW1hZScsICc8aW5maWxlLm1hZT4nLCAnLW9tYWUnLCAnPG91dGZpbGUubWFlPic=

>  <r_epik_Ionization_Penalty>  (295) 
0.0013078

>  <r_epik_Ionization_Penalty_Charging>  (295) 
0.00130752

>  <r_epik_Ionization_Penalty_Neutral>  (295) 
2.77622e-07

>  <r_epik_State_Penalty>  (295) 
0.0737399

>  <r_epik_Charging_Adjusted_Penalty>  (295) 
0.0750474

>  <i_epik_Tot_Q>  (295) 
-1

>  <i_epik_Tot_abs_Q>  (295) 
1

>  <s_epik_Chemistry_Notes>  (295) 
This compound has an ester and may undergo hydrolysis at high or low pH. This compound has an imine and may undergo hydrolysis.

>  <s_lp_Force_Field>  (295) 
OPLS3e

>  <r_lp_Energy>  (295) 
41.0147

>  <b_lp_Chiralities_Consistent>  (295) 
1

>  <s_lp_Variant>  (295) 
90:0-1

>  <s_i_glide_gridfile>  (295) 
pfpi4k_grid

>  <i_i_glide_lignum>  (295) 
4

>  <i_i_glide_rotatable_bonds>  (295) 
13

>  <r_i_docking_score>  (295) 
-2.75436

>  <r_i_glide_ligand_efficiency>  (295) 
-0.0671795

>  <r_i_glide_ligand_efficiency_sa>  (295) 
-0.23165

>  <r_i_glide_ligand_efficiency_ln>  (295) 
-0.584347

>  <r_i_glide_gscore>  (295) 
-2.75436

>  <r_i_glide_lipo>  (295) 
-0.117063

>  <r_i_glide_hbond>  (295) 
-0.274555

>  <r_i_glide_metal>  (295) 
-0

>  <r_i_glide_rewards>  (295) 
-0.0593706

>  <r_i_glide_evdw>  (295) 
-28.7314

>  <r_i_glide_ecoul>  (295) 
-8.05539

>  <r_i_glide_erotb>  (295) 
0.217838

>  <r_i_glide_esite>  (295) 
-0.0759617

>  <r_i_glide_emodel>  (295) 
-37.8357

>  <r_i_glide_energy>  (295) 
-36.7868

>  <r_i_glide_einternal>  (295) 
7.56116

>  <r_i_glide_intrahb_reward>  (295) 
-0

>  <i_i_glide_confnum>  (295) 
3

>  <i_i_glide_posenum>  (295) 
3

>  <r_i_glide_eff_state_penalty>  (295) 
0

>  <ligand_id>  (295) 
90

>  <original_smiles>  (295) 
COC(=O)C(C)C1C(O)CC2(C)C3C(=Nn4cnnn4)C4(C)C(=O)C(C(=O)CC(O)C5CO5)C4C(O)C3C(O)C12O

>  <smiles>  (295) 
[H]OC([H])(C([H])([H])C(=O)C1=C([O-])C2(C([H])([H])[H])C(=Nn3nnnc3[H])C3([H])C([H])(C([H])(O[H])C12[H])C([H])(O[H])C1(O[H])C([H])(C([H])(C(=O)OC([H])([H])[H])C([H])([H])[H])C([H])(O[H])C([H])([H])C31C([H])([H])[H])C1([H])OC1([H])[H]

$$$$
90:0:2
     RDKit          3D

 75 80  0  0  1  0  0  0  0  0999 V2000
    3.0641   -2.1098   -4.3454 C   0  0  0  0  0  0  0  0  0  0  0  0
    3.8141   -1.9518   -3.1708 O   0  0  0  0  0  0  0  0  0  0  0  0
    3.4558   -2.6896   -2.1014 C   0  0  0  0  0  0  0  0  0  0  0  0
    2.4942   -3.4567   -2.1012 O   0  0  0  0  0  0  0  0  0  0  0  0
    4.3155   -2.4667   -0.8510 C   0  0  2  0  0  0  0  0  0  0  0  0
    5.8067   -2.5923   -1.2223 C   0  0  0  0  0  0  0  0  0  0  0  0
    3.9654   -3.3211    0.4347 C   0  0  2  0  0  0  0  0  0  0  0  0
    2.4804   -3.6763    0.6573 C   0  0  1  0  0  0  0  0  0  0  0  0
    2.2252   -4.9886    0.1814 O   0  0  0  0  0  0  0  0  0  0  0  0
    2.1464   -3.5889    2.1391 C   0  0  0  0  0  0  0  0  0  0  0  0
    3.4707   -3.4263    2.8942 C   0  0  2  0  0  0  0  0  0  0  0  0
    3.9913   -4.8308    3.2887 C   0  0  0  0  0  0  0  0  0  0  0  0
    3.4145   -2.4287    4.1074 C   0  0  2  0  0  0  0  0  0  0  0  0
    2.2887   -2.5559    5.1943 C   0  0  0  0  0  0  0  0  0  0  0  0
    1.6112   -3.6483    5.2694 N   0  0  0  0  0  0  0  0  0  0  0  0
    0.7911   -4.0288    6.3431 N   0  0  0  0  0  0  0  0  0  0  0  0
    1.0981   -3.9506    7.6275 C   0  0  0  0  0  0  0  0  0  0  0  0
    0.1013   -4.4133    8.4151 N   0  0  0  0  0  0  0  0  0  0  0  0
   -0.8764   -4.7628    7.4792 N   0  0  0  0  0  0  0  0  0  0  0  0
   -0.4836   -4.5549    6.2799 N   0  0  0  0  0  0  0  0  0  0  0  0
    2.1603   -1.2722    6.0684 C   0  0  2  0  0  0  0  0  0  0  0  0
    3.2000   -1.2108    7.2045 C   0  0  0  0  0  0  0  0  0  0  0  0
    0.6945   -0.8997    6.3554 C   0  0  0  0  0  0  0  0  0  0  0  0
   -0.0724   -1.2739    7.4092 O   0  0  0  0  0  0  0  0  0  0  0  0
    0.6070    0.1298    5.5161 C   0  0  0  0  0  0  0  0  0  0  0  0
   -0.3591    1.2404    5.4366 C   0  0  0  0  0  0  0  0  0  0  0  0
   -0.4648    1.9414    4.4155 O   0  0  0  0  0  0  0  0  0  0  0  0
   -1.2930    1.5035    6.6400 C   0  0  0  0  0  0  0  0  0  0  0  0
   -2.1822    2.7696    6.6014 C   0  0  2  0  0  0  0  0  0  0  0  0
   -1.4072    3.9425    6.4396 O   0  0  0  0  0  0  0  0  0  0  0  0
   -2.9818    2.9594    7.8807 C   0  0  2  0  0  0  0  0  0  0  0  0
   -2.3665    3.5587    9.1342 C   0  0  0  0  0  0  0  0  0  0  0  0
   -2.5750    2.1519    8.9981 O   0  0  0  0  0  0  0  0  0  0  0  0
    2.1045    0.0360    5.1610 C   0  0  2  0  0  0  0  0  0  0  0  0
    2.3704   -0.0956    3.6756 C   0  0  1  0  0  0  0  0  0  0  0  0
    2.6153    1.1796    3.1013 O   0  0  0  0  0  0  0  0  0  0  0  0
    3.6006   -1.0143    3.4835 C   0  0  2  0  0  0  0  0  0  0  0  0
    3.9678   -1.2259    2.0015 C   0  0  1  0  0  0  0  0  0  0  0  0
    4.9814   -0.3226    1.5965 O   0  0  0  0  0  0  0  0  0  0  0  0
    4.3494   -2.7146    1.8204 C   0  0  2  0  0  0  0  0  0  0  0  0
    5.7238   -2.9111    2.1103 O   0  0  0  0  0  0  0  0  0  0  0  0
    3.5061   -1.5270   -5.1492 H   0  0  0  0  0  0  0  0  0  0  0  0
    2.0381   -1.7901   -4.1776 H   0  0  0  0  0  0  0  0  0  0  0  0
    3.0267   -3.1607   -4.6371 H   0  0  0  0  0  0  0  0  0  0  0  0
    4.1333   -1.4288   -0.6040 H   0  0  0  0  0  0  0  0  0  0  0  0
    6.0718   -1.9608   -2.0663 H   0  0  0  0  0  0  0  0  0  0  0  0
    6.0496   -3.6138   -1.5053 H   0  0  0  0  0  0  0  0  0  0  0  0
    6.4702   -2.3006   -0.4125 H   0  0  0  0  0  0  0  0  0  0  0  0
    4.5192   -4.2559    0.3647 H   0  0  0  0  0  0  0  0  0  0  0  0
    1.8280   -2.9706    0.1434 H   0  0  0  0  0  0  0  0  0  0  0  0
    2.4657   -5.0033   -0.7457 H   0  0  0  0  0  0  0  0  0  0  0  0
    1.5330   -2.7002    2.2867 H   0  0  0  0  0  0  0  0  0  0  0  0
    1.5459   -4.4273    2.5022 H   0  0  0  0  0  0  0  0  0  0  0  0
    4.9383   -4.7873    3.8291 H   0  0  0  0  0  0  0  0  0  0  0  0
    4.1426   -5.4635    2.4135 H   0  0  0  0  0  0  0  0  0  0  0  0
    3.2773   -5.3561    3.9255 H   0  0  0  0  0  0  0  0  0  0  0  0
    4.3357   -2.6229    4.6610 H   0  0  0  0  0  0  0  0  0  0  0  0
    2.0830   -3.6614    8.0030 H   0  0  0  0  0  0  0  0  0  0  0  0
    3.1919   -2.0252    7.9055 H   0  0  0  0  0  0  0  0  0  0  0  0
    3.0880   -0.2637    7.7433 H   0  0  0  0  0  0  0  0  0  0  0  0
    4.2105   -1.1556    6.7515 H   0  0  0  0  0  0  0  0  0  0  0  0
   -1.9528    0.6403    6.7197 H   0  0  0  0  0  0  0  0  0  0  0  0
   -0.6915    1.4970    7.5539 H   0  0  0  0  0  0  0  0  0  0  0  0
   -2.8846    2.7082    5.7674 H   0  0  0  0  0  0  0  0  0  0  0  0
   -0.7763    3.9629    7.1373 H   0  0  0  0  0  0  0  0  0  0  0  0
   -4.0640    3.0040    7.7644 H   0  0  0  0  0  0  0  0  0  0  0  0
   -1.3161    3.8551    9.1162 H   0  0  0  0  0  0  0  0  0  0  0  0
   -3.0065    4.0628    9.8567 H   0  0  0  0  0  0  0  0  0  0  0  0
    2.7584    0.7811    5.6209 H   0  0  0  0  0  0  0  0  0  0  0  0
    1.5001   -0.5252    3.1749 H   0  0  0  0  0  0  0  0  0  0  0  0
    3.3634    1.5619    3.5246 H   0  0  0  0  0  0  0  0  0  0  0  0
    4.4427   -0.5595    4.0110 H   0  0  0  0  0  0  0  0  0  0  0  0
    3.0823   -1.0064    1.4027 H   0  0  0  0  0  0  0  0  0  0  0  0
    4.5664    0.5273    1.5259 H   0  0  0  0  0  0  0  0  0  0  0  0
    6.2165   -2.4141    1.4831 H   0  0  0  0  0  0  0  0  0  0  0  0
  1  2  1  0
  1 42  1  0
  1 43  1  0
  1 44  1  0
  2  3  1  0
  3  4  2  0
  3  5  1  0
  5  6  1  0
  5  7  1  0
  5 45  1  1
  6 46  1  0
  6 47  1  0
  6 48  1  0
  7 40  1  0
  7  8  1  0
  7 49  1  6
  8  9  1  0
  8 10  1  0
  8 50  1  6
  9 51  1  0
 10 11  1  0
 10 52  1  0
 10 53  1  0
 11 40  1  0
 11 12  1  1
 11 13  1  0
 12 54  1  0
 12 55  1  0
 12 56  1  0
 13 37  1  0
 13 14  1  0
 13 57  1  1
 14 15  2  3
 14 21  1  0
 15 16  1  0
 16 20  1  0
 16 17  1  0
 17 18  2  0
 17 58  1  0
 18 19  1  0
 19 20  2  0
 21 34  1  0
 21 22  1  1
 21 23  1  0
 22 59  1  0
 22 60  1  0
 22 61  1  0
 23 24  1  0
 23 25  2  0
 25 26  1  0
 25 34  1  0
 26 27  2  0
 26 28  1  0
 28 29  1  0
 28 62  1  0
 28 63  1  0
 29 30  1  0
 29 31  1  0
 29 64  1  6
 30 65  1  0
 31 33  1  0
 31 32  1  0
 31 66  1  6
 32 33  1  0
 32 67  1  0
 32 68  1  0
 34 35  1  0
 34 69  1  1
 35 36  1  0
 35 37  1  0
 35 70  1  6
 36 71  1  0
 37 38  1  0
 37 72  1  1
 38 39  1  0
 38 40  1  0
 38 73  1  6
 39 74  1  0
 40 41  1  1
 41 75  1  0
M  CHG  1  24  -1
M  END
>  <i_m_ct_stereo_status>  (296) 
1

>  <s_m_source_file>  (296) 
/var/tmp/pbs.5076255.sched01/tmpt25ahaql/1236iipj8y0.sdf

>  <i_m_source_file_index>  (296) 
4

>  <i_lp_mmshare_version>  (296) 
48012

>  <i_f3d_flags>  (296) 
0

>  <s_epik_input>  (296) 
W0NIM11PQyg9TylbQ0BIXShbQ0gzXSlbQ0BIXShbQ0BASF0oW09IXSlbQ0gyXTEpW0NAQF0yKFtPSF0pW0NASF0oW09IXSlbQ0BIXShbQ0BASF0zW0NAQF0xMltDSDNdKVtDQEhdKFtPSF0pW0NAQEhdNFtDQF0oW0NIM10pKENcMz1OL241W2NIXW5ubjUpQyg9TylbQ0BIXTRDKD1PKVtDSDJdW0NASF0oW09IXSlbQ0BASF02W0NIMl1PNg==

>  <s_epik_cmdline>  (296) 
J2VwaWtfcHl0aG9uJywgJy1waHQnLCAnMi4wJywgJy1waCcsICc3LjAnLCAnLXRuJywgJzgnLCAnLW1hJywgJzIwMCcsICctaW1hZScsICc8aW5maWxlLm1hZT4nLCAnLW9tYWUnLCAnPG91dGZpbGUubWFlPic=

>  <r_epik_Ionization_Penalty>  (296) 
0.0013078

>  <r_epik_Ionization_Penalty_Charging>  (296) 
0.00130752

>  <r_epik_Ionization_Penalty_Neutral>  (296) 
2.77622e-07

>  <r_epik_State_Penalty>  (296) 
0.0737399

>  <r_epik_Charging_Adjusted_Penalty>  (296) 
0.0750474

>  <i_epik_Tot_Q>  (296) 
-1

>  <i_epik_Tot_abs_Q>  (296) 
1

>  <s_epik_Chemistry_Notes>  (296) 
This compound has an ester and may undergo hydrolysis at high or low pH. This compound has an imine and may undergo hydrolysis.

>  <s_lp_Force_Field>  (296) 
OPLS3e

>  <r_lp_Energy>  (296) 
41.0147

>  <b_lp_Chiralities_Consistent>  (296) 
1

>  <s_lp_Variant>  (296) 
90:0-1

>  <s_i_glide_gridfile>  (296) 
pfpi4k_grid

>  <i_i_glide_lignum>  (296) 
4

>  <i_i_glide_rotatable_bonds>  (296) 
13

>  <r_i_docking_score>  (296) 
-2.39737

>  <r_i_glide_ligand_efficiency>  (296) 
-0.0584724

>  <r_i_glide_ligand_efficiency_sa>  (296) 
-0.201626

>  <r_i_glide_ligand_efficiency_ln>  (296) 
-0.50861

>  <r_i_glide_gscore>  (296) 
-2.39737

>  <r_i_glide_lipo>  (296) 
-0.266604

>  <r_i_glide_hbond>  (296) 
-0.00879328

>  <r_i_glide_metal>  (296) 
-0

>  <r_i_glide_rewards>  (296) 
-0.5

>  <r_i_glide_evdw>  (296) 
-32.3689

>  <r_i_glide_ecoul>  (296) 
-5.17012

>  <r_i_glide_erotb>  (296) 
0.217838

>  <r_i_glide_esite>  (296) 
-0.05286

>  <r_i_glide_emodel>  (296) 
-39.9058

>  <r_i_glide_energy>  (296) 
-37.539

>  <r_i_glide_einternal>  (296) 
11.9949

>  <r_i_glide_intrahb_reward>  (296) 
-0.5

>  <i_i_glide_confnum>  (296) 
4

>  <i_i_glide_posenum>  (296) 
15

>  <r_i_glide_eff_state_penalty>  (296) 
0

>  <ligand_id>  (296) 
90

>  <original_smiles>  (296) 
COC(=O)C(C)C1C(O)CC2(C)C3C(=Nn4cnnn4)C4(C)C(=O)C(C(=O)CC(O)C5CO5)C4C(O)C3C(O)C12O

>  <smiles>  (296) 
[H]OC([H])(C([H])([H])C(=O)C1=C([O-])C2(C([H])([H])[H])C(=Nn3nnnc3[H])C3([H])C([H])(C([H])(O[H])C12[H])C([H])(O[H])C1(O[H])C([H])(C([H])(C(=O)OC([H])([H])[H])C([H])([H])[H])C([H])(O[H])C([H])([H])C31C([H])([H])[H])C1([H])OC1([H])[H]

$$$$
90:1:0
     RDKit          3D

 75 80  0  0  1  0  0  0  0  0999 V2000
    2.1353   -7.9501    1.8277 C   0  0  0  0  0  0  0  0  0  0  0  0
    2.7847   -6.7027    1.6502 O   0  0  0  0  0  0  0  0  0  0  0  0
    2.1804   -5.7395    0.9329 C   0  0  0  0  0  0  0  0  0  0  0  0
    1.1363   -5.8656    0.2963 O   0  0  0  0  0  0  0  0  0  0  0  0
    2.9163   -4.3904    0.9785 C   0  0  2  0  0  0  0  0  0  0  0  0
    4.1555   -4.4834    0.0683 C   0  0  0  0  0  0  0  0  0  0  0  0
    3.1918   -3.9216    2.4469 C   0  0  2  0  0  0  0  0  0  0  0  0
    1.9346   -3.4963    3.2274 C   0  0  1  0  0  0  0  0  0  0  0  0
    1.1304   -4.5829    3.6445 O   0  0  0  0  0  0  0  0  0  0  0  0
    2.4501   -2.6772    4.4284 C   0  0  0  0  0  0  0  0  0  0  0  0
    3.8950   -2.2251    4.1016 C   0  0  2  0  0  0  0  0  0  0  0  0
    4.8313   -2.9950    5.0695 C   0  0  0  0  0  0  0  0  0  0  0  0
    4.0982   -0.6628    4.0206 C   0  0  2  0  0  0  0  0  0  0  0  0
    3.6291    0.2732    5.1842 C   0  0  0  0  0  0  0  0  0  0  0  0
    4.0308    0.2337    6.4016 N   0  0  0  0  0  0  0  0  0  0  0  0
    5.1737   -0.4018    6.8213 N   0  0  0  0  0  0  0  0  0  0  0  0
    6.4083   -0.1485    6.3486 C   0  0  0  0  0  0  0  0  0  0  0  0
    7.3360   -0.9076    6.9116 N   0  0  0  0  0  0  0  0  0  0  0  0
    6.6195   -1.6222    7.8607 N   0  0  0  0  0  0  0  0  0  0  0  0
    5.3556   -1.3066    7.8169 N   0  0  0  0  0  0  0  0  0  0  0  0
    2.7427    1.4874    4.7852 C   0  0  2  0  0  0  0  0  0  0  0  0
    3.5185    2.7997    4.8826 C   0  0  0  0  0  0  0  0  0  0  0  0
    1.4187    1.5240    5.5403 C   0  0  0  0  0  0  0  0  0  0  0  0
    1.2083    1.6825    6.8707 O   0  0  0  0  0  0  0  0  0  0  0  0
    0.6673    1.1401    4.5279 C   0  0  0  0  0  0  0  0  0  0  0  0
   -0.7962    1.0453    4.3421 C   0  0  0  0  0  0  0  0  0  0  0  0
   -1.3048    0.2347    3.5757 O   0  0  0  0  0  0  0  0  0  0  0  0
   -1.7135    2.0132    5.1334 C   0  0  0  0  0  0  0  0  0  0  0  0
   -2.2208    3.2586    4.3649 C   0  0  2  0  0  0  0  0  0  0  0  0
   -3.3145    2.9316    3.5198 O   0  0  0  0  0  0  0  0  0  0  0  0
   -1.1404    3.9190    3.5469 C   0  0  2  0  0  0  0  0  0  0  0  0
    0.0612    4.5487    4.2204 C   0  0  0  0  0  0  0  0  0  0  0  0
   -0.9874    5.3342    3.6808 O   0  0  0  0  0  0  0  0  0  0  0  0
    1.8169    1.3038    3.5250 C   0  0  2  0  0  0  0  0  0  0  0  0
    2.0710    0.1304    2.6028 C   0  0  1  0  0  0  0  0  0  0  0  0
    1.7468    0.5663    1.2817 O   0  0  0  0  0  0  0  0  0  0  0  0
    3.5555   -0.2739    2.6212 C   0  0  2  0  0  0  0  0  0  0  0  0
    3.8069   -1.4893    1.7208 C   0  0  1  0  0  0  0  0  0  0  0  0
    4.8387   -1.1659    0.7992 O   0  0  0  0  0  0  0  0  0  0  0  0
    4.1280   -2.7012    2.6388 C   0  0  2  0  0  0  0  0  0  0  0  0
    5.4741   -3.1098    2.4527 O   0  0  0  0  0  0  0  0  0  0  0  0
    2.7767   -8.5974    2.4192 H   0  0  0  0  0  0  0  0  0  0  0  0
    1.9333   -8.4460    0.8778 H   0  0  0  0  0  0  0  0  0  0  0  0
    1.1907   -7.8179    2.3521 H   0  0  0  0  0  0  0  0  0  0  0  0
    2.2393   -3.6705    0.5275 H   0  0  0  0  0  0  0  0  0  0  0  0
    3.8859   -4.8368   -0.9273 H   0  0  0  0  0  0  0  0  0  0  0  0
    4.9101   -5.1553    0.4787 H   0  0  0  0  0  0  0  0  0  0  0  0
    4.6135   -3.5119   -0.0963 H   0  0  0  0  0  0  0  0  0  0  0  0
    3.6639   -4.7347    2.9953 H   0  0  0  0  0  0  0  0  0  0  0  0
    1.3272   -2.8488    2.5940 H   0  0  0  0  0  0  0  0  0  0  0  0
    1.6309   -5.1109    4.2460 H   0  0  0  0  0  0  0  0  0  0  0  0
    1.7937   -1.8426    4.6686 H   0  0  0  0  0  0  0  0  0  0  0  0
    2.4415   -3.2856    5.3350 H   0  0  0  0  0  0  0  0  0  0  0  0
    5.8584   -2.6475    5.0029 H   0  0  0  0  0  0  0  0  0  0  0  0
    4.8532   -4.0656    4.8358 H   0  0  0  0  0  0  0  0  0  0  0  0
    4.4894   -2.8985    6.0974 H   0  0  0  0  0  0  0  0  0  0  0  0
    5.1784   -0.5055    3.9646 H   0  0  0  0  0  0  0  0  0  0  0  0
    6.6065    0.6369    5.6393 H   0  0  0  0  0  0  0  0  0  0  0  0
    3.9708    2.9636    5.8687 H   0  0  0  0  0  0  0  0  0  0  0  0
    2.8960    3.6626    4.6576 H   0  0  0  0  0  0  0  0  0  0  0  0
    4.2984    2.7899    4.1361 H   0  0  0  0  0  0  0  0  0  0  0  0
   -2.5574    1.4422    5.5282 H   0  0  0  0  0  0  0  0  0  0  0  0
   -1.1670    2.3599    6.0045 H   0  0  0  0  0  0  0  0  0  0  0  0
   -2.5795    3.9817    5.0987 H   0  0  0  0  0  0  0  0  0  0  0  0
   -3.1568    2.1057    3.0912 H   0  0  0  0  0  0  0  0  0  0  0  0
   -0.9767    3.5357    2.5462 H   0  0  0  0  0  0  0  0  0  0  0  0
    0.1078    4.4982    5.3066 H   0  0  0  0  0  0  0  0  0  0  0  0
    0.9972    4.5776    3.6685 H   0  0  0  0  0  0  0  0  0  0  0  0
    1.8235    2.2503    2.9779 H   0  0  0  0  0  0  0  0  0  0  0  0
    1.4098   -0.6908    2.8519 H   0  0  0  0  0  0  0  0  0  0  0  0
    1.4688   -0.1505    0.7069 H   0  0  0  0  0  0  0  0  0  0  0  0
    4.1447    0.5756    2.2648 H   0  0  0  0  0  0  0  0  0  0  0  0
    2.9195   -1.6979    1.1271 H   0  0  0  0  0  0  0  0  0  0  0  0
    4.4832   -0.5179    0.2090 H   0  0  0  0  0  0  0  0  0  0  0  0
    5.5625   -3.3933    1.5561 H   0  0  0  0  0  0  0  0  0  0  0  0
  1  2  1  0
  1 42  1  0
  1 43  1  0
  1 44  1  0
  2  3  1  0
  3  4  2  0
  3  5  1  0
  5  6  1  0
  5  7  1  0
  5 45  1  6
  6 46  1  0
  6 47  1  0
  6 48  1  0
  7 40  1  0
  7  8  1  0
  7 49  1  1
  8  9  1  0
  8 10  1  0
  8 50  1  6
  9 51  1  0
 10 11  1  0
 10 52  1  0
 10 53  1  0
 11 40  1  0
 11 12  1  1
 11 13  1  0
 12 54  1  0
 12 55  1  0
 12 56  1  0
 13 37  1  0
 13 14  1  0
 13 57  1  6
 14 15  2  3
 14 21  1  0
 15 16  1  0
 16 20  1  0
 16 17  1  0
 17 18  2  0
 17 58  1  0
 18 19  1  0
 19 20  2  0
 21 34  1  0
 21 22  1  6
 21 23  1  0
 22 59  1  0
 22 60  1  0
 22 61  1  0
 23 24  1  0
 23 25  2  0
 25 26  1  0
 25 34  1  0
 26 27  2  0
 26 28  1  0
 28 29  1  0
 28 62  1  0
 28 63  1  0
 29 30  1  0
 29 31  1  0
 29 64  1  1
 30 65  1  0
 31 33  1  0
 31 32  1  0
 31 66  1  6
 32 33  1  0
 32 67  1  0
 32 68  1  0
 34 35  1  0
 34 69  1  6
 35 36  1  0
 35 37  1  0
 35 70  1  1
 36 71  1  0
 37 38  1  0
 37 72  1  6
 38 39  1  0
 38 40  1  0
 38 73  1  6
 39 74  1  0
 40 41  1  1
 41 75  1  0
M  CHG  1  24  -1
M  END
>  <i_m_ct_stereo_status>  (297) 
1

>  <s_m_source_file>  (297) 
/var/tmp/pbs.5076255.sched01/tmpt25ahaql/1236iipj8y0.sdf

>  <i_m_source_file_index>  (297) 
5

>  <i_lp_mmshare_version>  (297) 
48012

>  <i_f3d_flags>  (297) 
0

>  <s_epik_input>  (297) 
W0NIM11PQyg9TylbQ0BIXShbQ0gzXSlbQ0BIXShbQ0BASF0oW09IXSlbQ0gyXTEpW0NAQF0yKFtPSF0pW0NASF0oW09IXSlbQ0BIXShbQ0BASF0zW0NAQF0xMltDSDNdKVtDQEhdKFtPSF0pW0NAQEhdNFtDQF0oW0NIM10pKENcMz1OL241W2NIXW5ubjUpQyg9TylbQ0BIXTRDKD1PKVtDSDJdW0NASF0oW09IXSlbQ0BASF02W0NIMl1PNg==

>  <s_epik_cmdline>  (297) 
J2VwaWtfcHl0aG9uJywgJy1waHQnLCAnMi4wJywgJy1waCcsICc3LjAnLCAnLXRuJywgJzgnLCAnLW1hJywgJzIwMCcsICctaW1hZScsICc8aW5maWxlLm1hZT4nLCAnLW9tYWUnLCAnPG91dGZpbGUubWFlPic=

>  <r_epik_Ionization_Penalty>  (297) 
0.0013078

>  <r_epik_Ionization_Penalty_Charging>  (297) 
0.00130752

>  <r_epik_Ionization_Penalty_Neutral>  (297) 
2.77622e-07

>  <r_epik_State_Penalty>  (297) 
0.0737399

>  <r_epik_Charging_Adjusted_Penalty>  (297) 
0.0750474

>  <i_epik_Tot_Q>  (297) 
-1

>  <i_epik_Tot_abs_Q>  (297) 
1

>  <s_epik_Chemistry_Notes>  (297) 
This compound has an ester and may undergo hydrolysis at high or low pH. This compound has an imine and may undergo hydrolysis.

>  <s_lp_Force_Field>  (297) 
OPLS3e

>  <r_lp_Energy>  (297) 
53.6629

>  <b_lp_Chiralities_Consistent>  (297) 
1

>  <s_lp_Variant>  (297) 
90:0-2

>  <s_i_glide_gridfile>  (297) 
pfpi4k_grid

>  <i_i_glide_lignum>  (297) 
5

>  <i_i_glide_rotatable_bonds>  (297) 
13

>  <r_i_docking_score>  (297) 
-3.57343

>  <r_i_glide_ligand_efficiency>  (297) 
-0.0871568

>  <r_i_glide_ligand_efficiency_sa>  (297) 
-0.300536

>  <r_i_glide_ligand_efficiency_ln>  (297) 
-0.758115

>  <r_i_glide_gscore>  (297) 
-3.57343

>  <r_i_glide_lipo>  (297) 
-0.049203

>  <r_i_glide_hbond>  (297) 
-0.469449

>  <r_i_glide_metal>  (297) 
-0

>  <r_i_glide_rewards>  (297) 
-0.111129

>  <r_i_glide_evdw>  (297) 
-26.242

>  <r_i_glide_ecoul>  (297) 
-11.9295

>  <r_i_glide_erotb>  (297) 
0.217838

>  <r_i_glide_esite>  (297) 
-0.0599601

>  <r_i_glide_emodel>  (297) 
-40.5119

>  <r_i_glide_energy>  (297) 
-38.1715

>  <r_i_glide_einternal>  (297) 
8.55485

>  <r_i_glide_intrahb_reward>  (297) 
-0

>  <i_i_glide_confnum>  (297) 
1

>  <i_i_glide_posenum>  (297) 
33

>  <r_i_glide_eff_state_penalty>  (297) 
0

>  <ligand_id>  (297) 
90

>  <original_smiles>  (297) 
COC(=O)C(C)C1C(O)CC2(C)C3C(=Nn4cnnn4)C4(C)C(=O)C(C(=O)CC(O)C5CO5)C4C(O)C3C(O)C12O

>  <smiles>  (297) 
[H]OC([H])(C([H])([H])C(=O)C1=C([O-])C2(C([H])([H])[H])C(=Nn3nnnc3[H])C3([H])C([H])(C([H])(O[H])C12[H])C([H])(O[H])C1(O[H])C([H])(C([H])(C(=O)OC([H])([H])[H])C([H])([H])[H])C([H])(O[H])C([H])([H])C31C([H])([H])[H])C1([H])OC1([H])[H]

$$$$
90:1:1
     RDKit          3D

 75 80  0  0  1  0  0  0  0  0999 V2000
    2.0904   -8.0467    1.8287 C   0  0  0  0  0  0  0  0  0  0  0  0
    2.7723   -6.8111    1.6876 O   0  0  0  0  0  0  0  0  0  0  0  0
    2.1941   -5.7989    1.0218 C   0  0  0  0  0  0  0  0  0  0  0  0
    1.1267   -5.8621    0.4083 O   0  0  0  0  0  0  0  0  0  0  0  0
    2.9901   -4.4889    1.0884 C   0  0  2  0  0  0  0  0  0  0  0  0
    4.2713   -4.6575    0.2433 C   0  0  0  0  0  0  0  0  0  0  0  0
    3.2048   -4.0103    2.5646 C   0  0  2  0  0  0  0  0  0  0  0  0
    1.9224   -3.5560    3.2813 C   0  0  1  0  0  0  0  0  0  0  0  0
    1.0856   -4.6279    3.6685 O   0  0  0  0  0  0  0  0  0  0  0  0
    2.3969   -2.7338    4.4986 C   0  0  0  0  0  0  0  0  0  0  0  0
    3.8658   -2.3029    4.2334 C   0  0  2  0  0  0  0  0  0  0  0  0
    4.7568   -3.0597    5.2606 C   0  0  0  0  0  0  0  0  0  0  0  0
    4.0929   -0.7449    4.1320 C   0  0  2  0  0  0  0  0  0  0  0  0
    3.6054    0.2095    5.2596 C   0  0  0  0  0  0  0  0  0  0  0  0
    3.9802    0.1988    6.4810 N   0  0  0  0  0  0  0  0  0  0  0  0
    5.1044   -0.4051    6.9999 N   0  0  0  0  0  0  0  0  0  0  0  0
    5.2069   -0.7826    8.2762 C   0  0  0  0  0  0  0  0  0  0  0  0
    6.3994   -1.2910    8.5520 N   0  0  0  0  0  0  0  0  0  0  0  0
    7.0837   -1.1405    7.3719 N   0  0  0  0  0  0  0  0  0  0  0  0
    6.3420   -0.5779    6.4662 N   0  0  0  0  0  0  0  0  0  0  0  0
    2.7479    1.4318    4.8179 C   0  0  2  0  0  0  0  0  0  0  0  0
    3.5472    2.7270    4.9335 C   0  0  0  0  0  0  0  0  0  0  0  0
    1.4045    1.5006    5.5131 C   0  0  0  0  0  0  0  0  0  0  0  0
    1.1481    1.6482    6.8368 O   0  0  0  0  0  0  0  0  0  0  0  0
    0.6840    1.1289    4.4702 C   0  0  0  0  0  0  0  0  0  0  0  0
   -0.7668    1.0514    4.2253 C   0  0  0  0  0  0  0  0  0  0  0  0
   -1.2312    0.2741    3.3895 O   0  0  0  0  0  0  0  0  0  0  0  0
   -1.7077    2.0097    4.9919 C   0  0  0  0  0  0  0  0  0  0  0  0
   -2.2077    3.2568    4.2106 C   0  0  2  0  0  0  0  0  0  0  0  0
   -3.2819    2.9370    3.3485 O   0  0  0  0  0  0  0  0  0  0  0  0
   -1.1043    3.9165    3.3972 C   0  0  2  0  0  0  0  0  0  0  0  0
   -0.0649    4.7772    4.0619 C   0  0  0  0  0  0  0  0  0  0  0  0
   -1.1262    5.3428    3.2791 O   0  0  0  0  0  0  0  0  0  0  0  0
    1.8768    1.2488    3.5221 C   0  0  2  0  0  0  0  0  0  0  0  0
    2.1390    0.0643    2.6211 C   0  0  1  0  0  0  0  0  0  0  0  0
    1.8883    0.4970    1.2851 O   0  0  0  0  0  0  0  0  0  0  0  0
    3.6089   -0.3704    2.7136 C   0  0  2  0  0  0  0  0  0  0  0  0
    3.8960   -1.6023    1.8439 C   0  0  1  0  0  0  0  0  0  0  0  0
    4.9947   -1.2805    1.0043 O   0  0  0  0  0  0  0  0  0  0  0  0
    4.1509   -2.8111    2.7860 C   0  0  2  0  0  0  0  0  0  0  0  0
    5.4851   -3.2640    2.6540 O   0  0  0  0  0  0  0  0  0  0  0  0
    2.7238   -8.7411    2.3774 H   0  0  0  0  0  0  0  0  0  0  0  0
    1.8522   -8.5046    0.8709 H   0  0  0  0  0  0  0  0  0  0  0  0
    1.1590   -7.9130    2.3788 H   0  0  0  0  0  0  0  0  0  0  0  0
    2.3717   -3.7479    0.5849 H   0  0  0  0  0  0  0  0  0  0  0  0
    4.0358   -5.0356   -0.7551 H   0  0  0  0  0  0  0  0  0  0  0  0
    4.9714   -5.3504    0.7142 H   0  0  0  0  0  0  0  0  0  0  0  0
    4.7827   -3.7070    0.0977 H   0  0  0  0  0  0  0  0  0  0  0  0
    3.6389   -4.8330    3.1308 H   0  0  0  0  0  0  0  0  0  0  0  0
    1.3596   -2.9124    2.6056 H   0  0  0  0  0  0  0  0  0  0  0  0
    1.5553   -5.1430    4.3037 H   0  0  0  0  0  0  0  0  0  0  0  0
    1.7429   -1.8867    4.6992 H   0  0  0  0  0  0  0  0  0  0  0  0
    2.3436   -3.3377    5.4079 H   0  0  0  0  0  0  0  0  0  0  0  0
    5.8116   -2.8114    5.1514 H   0  0  0  0  0  0  0  0  0  0  0  0
    4.6835   -4.1426    5.1221 H   0  0  0  0  0  0  0  0  0  0  0  0
    4.4549   -2.8589    6.2872 H   0  0  0  0  0  0  0  0  0  0  0  0
    5.1750   -0.5947    4.1114 H   0  0  0  0  0  0  0  0  0  0  0  0
    4.4156   -0.6904    9.0074 H   0  0  0  0  0  0  0  0  0  0  0  0
    3.9425    2.8935    5.9392 H   0  0  0  0  0  0  0  0  0  0  0  0
    2.9453    3.5876    4.6661 H   0  0  0  0  0  0  0  0  0  0  0  0
    4.3740    2.6911    4.2423 H   0  0  0  0  0  0  0  0  0  0  0  0
   -2.5588    1.4423    5.3593 H   0  0  0  0  0  0  0  0  0  0  0  0
   -1.1703    2.3675    5.8682 H   0  0  0  0  0  0  0  0  0  0  0  0
   -2.5687    3.9890    4.9395 H   0  0  0  0  0  0  0  0  0  0  0  0
   -3.0743    2.1375    2.8856 H   0  0  0  0  0  0  0  0  0  0  0  0
   -0.8004    3.3928    2.4963 H   0  0  0  0  0  0  0  0  0  0  0  0
   -0.1384    4.9243    5.1427 H   0  0  0  0  0  0  0  0  0  0  0  0
    0.9256    4.8320    3.6123 H   0  0  0  0  0  0  0  0  0  0  0  0
    1.9179    2.1773    2.9668 H   0  0  0  0  0  0  0  0  0  0  0  0
    1.4586   -0.7464    2.8403 H   0  0  0  0  0  0  0  0  0  0  0  0
    1.5957   -0.1927    0.7026 H   0  0  0  0  0  0  0  0  0  0  0  0
    4.2164    0.4701    2.3684 H   0  0  0  0  0  0  0  0  0  0  0  0
    3.0433   -1.7997    1.1947 H   0  0  0  0  0  0  0  0  0  0  0  0
    4.6708   -0.6596    0.3681 H   0  0  0  0  0  0  0  0  0  0  0  0
    6.0391   -2.5027    2.7250 H   0  0  0  0  0  0  0  0  0  0  0  0
  1  2  1  0
  1 42  1  0
  1 43  1  0
  1 44  1  0
  2  3  1  0
  3  4  2  0
  3  5  1  0
  5  6  1  0
  5  7  1  0
  5 45  1  6
  6 46  1  0
  6 47  1  0
  6 48  1  0
  7 40  1  0
  7  8  1  0
  7 49  1  1
  8  9  1  0
  8 10  1  0
  8 50  1  6
  9 51  1  0
 10 11  1  0
 10 52  1  0
 10 53  1  0
 11 40  1  0
 11 12  1  1
 11 13  1  0
 12 54  1  0
 12 55  1  0
 12 56  1  0
 13 37  1  0
 13 14  1  0
 13 57  1  6
 14 15  2  3
 14 21  1  0
 15 16  1  0
 16 20  1  0
 16 17  1  0
 17 18  2  0
 17 58  1  0
 18 19  1  0
 19 20  2  0
 21 34  1  0
 21 22  1  6
 21 23  1  0
 22 59  1  0
 22 60  1  0
 22 61  1  0
 23 24  1  0
 23 25  2  0
 25 26  1  0
 25 34  1  0
 26 27  2  0
 26 28  1  0
 28 29  1  0
 28 62  1  0
 28 63  1  0
 29 30  1  0
 29 31  1  0
 29 64  1  1
 30 65  1  0
 31 33  1  0
 31 32  1  0
 31 66  1  6
 32 33  1  0
 32 67  1  0
 32 68  1  0
 34 35  1  0
 34 69  1  6
 35 36  1  0
 35 37  1  0
 35 70  1  1
 36 71  1  0
 37 38  1  0
 37 72  1  6
 38 39  1  0
 38 40  1  0
 38 73  1  6
 39 74  1  0
 40 41  1  1
 41 75  1  0
M  CHG  1  24  -1
M  END
>  <i_m_ct_stereo_status>  (298) 
1

>  <s_m_source_file>  (298) 
/var/tmp/pbs.5076255.sched01/tmpt25ahaql/1236iipj8y0.sdf

>  <i_m_source_file_index>  (298) 
5

>  <i_lp_mmshare_version>  (298) 
48012

>  <i_f3d_flags>  (298) 
0

>  <s_epik_input>  (298) 
W0NIM11PQyg9TylbQ0BIXShbQ0gzXSlbQ0BIXShbQ0BASF0oW09IXSlbQ0gyXTEpW0NAQF0yKFtPSF0pW0NASF0oW09IXSlbQ0BIXShbQ0BASF0zW0NAQF0xMltDSDNdKVtDQEhdKFtPSF0pW0NAQEhdNFtDQF0oW0NIM10pKENcMz1OL241W2NIXW5ubjUpQyg9TylbQ0BIXTRDKD1PKVtDSDJdW0NASF0oW09IXSlbQ0BASF02W0NIMl1PNg==

>  <s_epik_cmdline>  (298) 
J2VwaWtfcHl0aG9uJywgJy1waHQnLCAnMi4wJywgJy1waCcsICc3LjAnLCAnLXRuJywgJzgnLCAnLW1hJywgJzIwMCcsICctaW1hZScsICc8aW5maWxlLm1hZT4nLCAnLW9tYWUnLCAnPG91dGZpbGUubWFlPic=

>  <r_epik_Ionization_Penalty>  (298) 
0.0013078

>  <r_epik_Ionization_Penalty_Charging>  (298) 
0.00130752

>  <r_epik_Ionization_Penalty_Neutral>  (298) 
2.77622e-07

>  <r_epik_State_Penalty>  (298) 
0.0737399

>  <r_epik_Charging_Adjusted_Penalty>  (298) 
0.0750474

>  <i_epik_Tot_Q>  (298) 
-1

>  <i_epik_Tot_abs_Q>  (298) 
1

>  <s_epik_Chemistry_Notes>  (298) 
This compound has an ester and may undergo hydrolysis at high or low pH. This compound has an imine and may undergo hydrolysis.

>  <s_lp_Force_Field>  (298) 
OPLS3e

>  <r_lp_Energy>  (298) 
53.6629

>  <b_lp_Chiralities_Consistent>  (298) 
1

>  <s_lp_Variant>  (298) 
90:0-2

>  <s_i_glide_gridfile>  (298) 
pfpi4k_grid

>  <i_i_glide_lignum>  (298) 
5

>  <i_i_glide_rotatable_bonds>  (298) 
13

>  <r_i_docking_score>  (298) 
-3.31299

>  <r_i_glide_ligand_efficiency>  (298) 
-0.0808047

>  <r_i_glide_ligand_efficiency_sa>  (298) 
-0.278632

>  <r_i_glide_ligand_efficiency_ln>  (298) 
-0.702863

>  <r_i_glide_gscore>  (298) 
-3.31299

>  <r_i_glide_lipo>  (298) 
-0.0635209

>  <r_i_glide_hbond>  (298) 
-0.464975

>  <r_i_glide_metal>  (298) 
-0

>  <r_i_glide_rewards>  (298) 
-0.000482231

>  <r_i_glide_evdw>  (298) 
-25.8304

>  <r_i_glide_ecoul>  (298) 
-11.0181

>  <r_i_glide_erotb>  (298) 
0.217838

>  <r_i_glide_esite>  (298) 
-0.0576193

>  <r_i_glide_emodel>  (298) 
-40.0643

>  <r_i_glide_energy>  (298) 
-36.8485

>  <r_i_glide_einternal>  (298) 
5.69624

>  <r_i_glide_intrahb_reward>  (298) 
-0

>  <i_i_glide_confnum>  (298) 
1

>  <i_i_glide_posenum>  (298) 
12

>  <r_i_glide_eff_state_penalty>  (298) 
0

>  <ligand_id>  (298) 
90

>  <original_smiles>  (298) 
COC(=O)C(C)C1C(O)CC2(C)C3C(=Nn4cnnn4)C4(C)C(=O)C(C(=O)CC(O)C5CO5)C4C(O)C3C(O)C12O

>  <smiles>  (298) 
[H]OC([H])(C([H])([H])C(=O)C1=C([O-])C2(C([H])([H])[H])C(=Nn3nnnc3[H])C3([H])C([H])(C([H])(O[H])C12[H])C([H])(O[H])C1(O[H])C([H])(C([H])(C(=O)OC([H])([H])[H])C([H])([H])[H])C([H])(O[H])C([H])([H])C31C([H])([H])[H])C1([H])OC1([H])[H]

$$$$
90:1:2
     RDKit          3D

 75 80  0  0  1  0  0  0  0  0999 V2000
   -0.2316   -4.7057   10.1359 C   0  0  0  0  0  0  0  0  0  0  0  0
    0.2276   -5.8551    9.4478 O   0  0  0  0  0  0  0  0  0  0  0  0
   -0.1782   -6.0688    8.1888 C   0  0  0  0  0  0  0  0  0  0  0  0
   -0.9167   -5.3263    7.5408 O   0  0  0  0  0  0  0  0  0  0  0  0
    0.3725   -7.3661    7.5849 C   0  0  2  0  0  0  0  0  0  0  0  0
    0.0027   -8.5677    8.4831 C   0  0  0  0  0  0  0  0  0  0  0  0
    1.8980   -7.2478    7.2716 C   0  0  2  0  0  0  0  0  0  0  0  0
    2.2520   -6.1142    6.2805 C   0  0  1  0  0  0  0  0  0  0  0  0
    2.2458   -4.8156    6.8414 O   0  0  0  0  0  0  0  0  0  0  0  0
    3.6591   -6.4393    5.7567 C   0  0  0  0  0  0  0  0  0  0  0  0
    3.8981   -7.9402    6.0219 C   0  0  2  0  0  0  0  0  0  0  0  0
    5.0280   -8.0350    7.0921 C   0  0  0  0  0  0  0  0  0  0  0  0
    4.0847   -8.7982    4.7201 C   0  0  2  0  0  0  0  0  0  0  0  0
    5.1627   -8.4389    3.6522 C   0  0  0  0  0  0  0  0  0  0  0  0
    6.4231   -8.3224    3.8422 N   0  0  0  0  0  0  0  0  0  0  0  0
    7.1204   -8.7845    4.9298 N   0  0  0  0  0  0  0  0  0  0  0  0
    7.0265  -10.0151    5.4600 C   0  0  0  0  0  0  0  0  0  0  0  0
    7.8284  -10.1946    6.5051 N   0  0  0  0  0  0  0  0  0  0  0  0
    8.5071   -8.9905    6.5905 N   0  0  0  0  0  0  0  0  0  0  0  0
    8.1306   -8.1669    5.6211 N   0  0  0  0  0  0  0  0  0  0  0  0
    4.6830   -8.3637    2.1798 C   0  0  2  0  0  0  0  0  0  0  0  0
    5.2403   -9.5330    1.3707 C   0  0  0  0  0  0  0  0  0  0  0  0
    4.9522   -7.0050    1.5672 C   0  0  0  0  0  0  0  0  0  0  0  0
    6.1492   -6.4421    1.2752 O   0  0  0  0  0  0  0  0  0  0  0  0
    3.6891   -6.6552    1.4759 C   0  0  0  0  0  0  0  0  0  0  0  0
    2.9839   -5.4898    0.9351 C   0  0  0  0  0  0  0  0  0  0  0  0
    1.7848   -5.5187    0.6539 O   0  0  0  0  0  0  0  0  0  0  0  0
    3.8349   -4.2152    0.7635 C   0  0  0  0  0  0  0  0  0  0  0  0
    3.1025   -2.8538    0.6342 C   0  0  2  0  0  0  0  0  0  0  0  0
    2.6203   -2.6980   -0.6841 O   0  0  0  0  0  0  0  0  0  0  0  0
    4.0025   -1.6472    0.8991 C   0  0  2  0  0  0  0  0  0  0  0  0
    5.4094   -1.5102    0.3564 C   0  0  0  0  0  0  0  0  0  0  0  0
    5.1548   -1.8536    1.7270 O   0  0  0  0  0  0  0  0  0  0  0  0
    3.1733   -8.0229    1.9186 C   0  0  2  0  0  0  0  0  0  0  0  0
    2.2119   -8.0349    3.1040 C   0  0  1  0  0  0  0  0  0  0  0  0
    0.9286   -8.3898    2.6257 O   0  0  0  0  0  0  0  0  0  0  0  0
    2.6680   -9.0567    4.1634 C   0  0  2  0  0  0  0  0  0  0  0  0
    1.7746   -9.0950    5.4111 C   0  0  1  0  0  0  0  0  0  0  0  0
    1.1817  -10.3927    5.5721 O   0  0  0  0  0  0  0  0  0  0  0  0
    2.5687   -8.4908    6.6181 C   0  0  2  0  0  0  0  0  0  0  0  0
    2.8797   -9.4790    7.6067 O   0  0  0  0  0  0  0  0  0  0  0  0
    0.1685   -4.7132   11.1456 H   0  0  0  0  0  0  0  0  0  0  0  0
   -1.3225   -4.6780   10.2020 H   0  0  0  0  0  0  0  0  0  0  0  0
    0.1126   -3.7998    9.6357 H   0  0  0  0  0  0  0  0  0  0  0  0
   -0.1683   -7.4847    6.6494 H   0  0  0  0  0  0  0  0  0  0  0  0
   -1.0642   -8.5968    8.6974 H   0  0  0  0  0  0  0  0  0  0  0  0
    0.5306   -8.5359    9.4358 H   0  0  0  0  0  0  0  0  0  0  0  0
    0.2227   -9.5184    8.0033 H   0  0  0  0  0  0  0  0  0  0  0  0
    2.4211   -7.0586    8.2147 H   0  0  0  0  0  0  0  0  0  0  0  0
    1.5369   -6.1354    5.4473 H   0  0  0  0  0  0  0  0  0  0  0  0
    2.9063   -4.7787    7.5136 H   0  0  0  0  0  0  0  0  0  0  0  0
    3.7777   -6.1750    4.7098 H   0  0  0  0  0  0  0  0  0  0  0  0
    4.4175   -5.8369    6.2712 H   0  0  0  0  0  0  0  0  0  0  0  0
    5.3094   -9.0647    7.3105 H   0  0  0  0  0  0  0  0  0  0  0  0
    4.7145   -7.6064    8.0489 H   0  0  0  0  0  0  0  0  0  0  0  0
    5.9083   -7.4685    6.8105 H   0  0  0  0  0  0  0  0  0  0  0  0
    4.3659   -9.7892    5.0769 H   0  0  0  0  0  0  0  0  0  0  0  0
    6.4132  -10.8026    5.0589 H   0  0  0  0  0  0  0  0  0  0  0  0
    6.3451   -9.5845    1.3730 H   0  0  0  0  0  0  0  0  0  0  0  0
    4.9008   -9.4610    0.3445 H   0  0  0  0  0  0  0  0  0  0  0  0
    4.8612  -10.4639    1.7620 H   0  0  0  0  0  0  0  0  0  0  0  0
    4.4075   -4.1846    1.6812 H   0  0  0  0  0  0  0  0  0  0  0  0
    4.5673   -4.3450   -0.0312 H   0  0  0  0  0  0  0  0  0  0  0  0
    2.2581   -2.8095    1.3377 H   0  0  0  0  0  0  0  0  0  0  0  0
    1.9739   -1.9956   -0.7132 H   0  0  0  0  0  0  0  0  0  0  0  0
    3.4671   -0.7322    1.1222 H   0  0  0  0  0  0  0  0  0  0  0  0
    5.8013   -2.3166   -0.2633 H   0  0  0  0  0  0  0  0  0  0  0  0
    5.8553   -0.5244    0.2209 H   0  0  0  0  0  0  0  0  0  0  0  0
    2.8104   -8.6536    1.1031 H   0  0  0  0  0  0  0  0  0  0  0  0
    2.1275   -7.0342    3.5440 H   0  0  0  0  0  0  0  0  0  0  0  0
    0.9807   -9.2802    2.3095 H   0  0  0  0  0  0  0  0  0  0  0  0
    2.6874  -10.0533    3.7040 H   0  0  0  0  0  0  0  0  0  0  0  0
    0.9263   -8.4657    5.1844 H   0  0  0  0  0  0  0  0  0  0  0  0
    1.5182  -10.9135    6.2968 H   0  0  0  0  0  0  0  0  0  0  0  0
    2.2721  -10.2007    7.5823 H   0  0  0  0  0  0  0  0  0  0  0  0
  1  2  1  0
  1 42  1  0
  1 43  1  0
  1 44  1  0
  2  3  1  0
  3  4  2  0
  3  5  1  0
  5  6  1  0
  5  7  1  0
  5 45  1  6
  6 46  1  0
  6 47  1  0
  6 48  1  0
  7 40  1  0
  7  8  1  0
  7 49  1  1
  8  9  1  0
  8 10  1  0
  8 50  1  6
  9 51  1  0
 10 11  1  0
 10 52  1  0
 10 53  1  0
 11 40  1  0
 11 12  1  1
 11 13  1  0
 12 54  1  0
 12 55  1  0
 12 56  1  0
 13 37  1  0
 13 14  1  0
 13 57  1  1
 14 15  2  3
 14 21  1  0
 15 16  1  0
 16 20  1  0
 16 17  1  0
 17 18  2  0
 17 58  1  0
 18 19  1  0
 19 20  2  0
 21 34  1  0
 21 22  1  6
 21 23  1  0
 22 59  1  0
 22 60  1  0
 22 61  1  0
 23 24  1  0
 23 25  2  0
 25 26  1  0
 25 34  1  0
 26 27  2  0
 26 28  1  0
 28 29  1  0
 28 62  1  0
 28 63  1  0
 29 30  1  0
 29 31  1  0
 29 64  1  1
 30 65  1  0
 31 33  1  0
 31 32  1  0
 31 66  1  1
 32 33  1  0
 32 67  1  0
 32 68  1  0
 34 35  1  0
 34 69  1  6
 35 36  1  0
 35 37  1  0
 35 70  1  1
 36 71  1  0
 37 38  1  0
 37 72  1  6
 38 39  1  0
 38 40  1  0
 38 73  1  6
 39 74  1  0
 40 41  1  1
 41 75  1  0
M  CHG  1  24  -1
M  END
>  <i_m_ct_stereo_status>  (299) 
1

>  <s_m_source_file>  (299) 
/var/tmp/pbs.5076255.sched01/tmpt25ahaql/1236iipj8y0.sdf

>  <i_m_source_file_index>  (299) 
5

>  <i_lp_mmshare_version>  (299) 
48012

>  <i_f3d_flags>  (299) 
0

>  <s_epik_input>  (299) 
W0NIM11PQyg9TylbQ0BIXShbQ0gzXSlbQ0BIXShbQ0BASF0oW09IXSlbQ0gyXTEpW0NAQF0yKFtPSF0pW0NASF0oW09IXSlbQ0BIXShbQ0BASF0zW0NAQF0xMltDSDNdKVtDQEhdKFtPSF0pW0NAQEhdNFtDQF0oW0NIM10pKENcMz1OL241W2NIXW5ubjUpQyg9TylbQ0BIXTRDKD1PKVtDSDJdW0NASF0oW09IXSlbQ0BASF02W0NIMl1PNg==

>  <s_epik_cmdline>  (299) 
J2VwaWtfcHl0aG9uJywgJy1waHQnLCAnMi4wJywgJy1waCcsICc3LjAnLCAnLXRuJywgJzgnLCAnLW1hJywgJzIwMCcsICctaW1hZScsICc8aW5maWxlLm1hZT4nLCAnLW9tYWUnLCAnPG91dGZpbGUubWFlPic=

>  <r_epik_Ionization_Penalty>  (299) 
0.0013078

>  <r_epik_Ionization_Penalty_Charging>  (299) 
0.00130752

>  <r_epik_Ionization_Penalty_Neutral>  (299) 
2.77622e-07

>  <r_epik_State_Penalty>  (299) 
0.0737399

>  <r_epik_Charging_Adjusted_Penalty>  (299) 
0.0750474

>  <i_epik_Tot_Q>  (299) 
-1

>  <i_epik_Tot_abs_Q>  (299) 
1

>  <s_epik_Chemistry_Notes>  (299) 
This compound has an ester and may undergo hydrolysis at high or low pH. This compound has an imine and may undergo hydrolysis.

>  <s_lp_Force_Field>  (299) 
OPLS3e

>  <r_lp_Energy>  (299) 
53.6629

>  <b_lp_Chiralities_Consistent>  (299) 
1

>  <s_lp_Variant>  (299) 
90:0-2

>  <s_i_glide_gridfile>  (299) 
pfpi4k_grid

>  <i_i_glide_lignum>  (299) 
5

>  <i_i_glide_rotatable_bonds>  (299) 
13

>  <r_i_docking_score>  (299) 
-2.88272

>  <r_i_glide_ligand_efficiency>  (299) 
-0.0703103

>  <r_i_glide_ligand_efficiency_sa>  (299) 
-0.242445

>  <r_i_glide_ligand_efficiency_ln>  (299) 
-0.611579

>  <r_i_glide_gscore>  (299) 
-2.88272

>  <r_i_glide_lipo>  (299) 
-0.208424

>  <r_i_glide_hbond>  (299) 
-0.133523

>  <r_i_glide_metal>  (299) 
-0

>  <r_i_glide_rewards>  (299) 
-2.70931e-05

>  <r_i_glide_evdw>  (299) 
-22.5311

>  <r_i_glide_ecoul>  (299) 
-10.7035

>  <r_i_glide_erotb>  (299) 
0.217838

>  <r_i_glide_esite>  (299) 
-0.0265137

>  <r_i_glide_emodel>  (299) 
-34.7554

>  <r_i_glide_energy>  (299) 
-33.2345

>  <r_i_glide_einternal>  (299) 
8.39088

>  <r_i_glide_intrahb_reward>  (299) 
-0

>  <i_i_glide_confnum>  (299) 
3

>  <i_i_glide_posenum>  (299) 
13

>  <r_i_glide_eff_state_penalty>  (299) 
0

>  <ligand_id>  (299) 
90

>  <original_smiles>  (299) 
COC(=O)C(C)C1C(O)CC2(C)C3C(=Nn4cnnn4)C4(C)C(=O)C(C(=O)CC(O)C5CO5)C4C(O)C3C(O)C12O

>  <smiles>  (299) 
[H]OC([H])(C([H])([H])C(=O)C1=C([O-])C2(C([H])([H])[H])C(=Nn3nnnc3[H])C3([H])C([H])(C([H])(O[H])C12[H])C([H])(O[H])C1(O[H])C([H])(C([H])(C(=O)OC([H])([H])[H])C([H])([H])[H])C([H])(O[H])C([H])([H])C31C([H])([H])[H])C1([H])OC1([H])[H]

$$$$
90:2:0
     RDKit          3D

 76 81  0  0  1  0  0  0  0  0999 V2000
    4.4859   -3.9560   -4.0421 C   0  0  0  0  0  0  0  0  0  0  0  0
    4.6667   -3.0896   -2.9360 O   0  0  0  0  0  0  0  0  0  0  0  0
    4.8588   -3.6230   -1.7164 C   0  0  0  0  0  0  0  0  0  0  0  0
    5.0114   -4.8112   -1.4825 O   0  0  0  0  0  0  0  0  0  0  0  0
    4.9183   -2.5991   -0.5833 C   0  0  2  0  0  0  0  0  0  0  0  0
    6.3360   -1.9852   -0.6201 C   0  0  0  0  0  0  0  0  0  0  0  0
    4.5207   -3.2443    0.7956 C   0  0  2  0  0  0  0  0  0  0  0  0
    3.1154   -3.9159    0.8263 C   0  0  1  0  0  0  0  0  0  0  0  0
    3.1420   -5.3290    0.7683 O   0  0  0  0  0  0  0  0  0  0  0  0
    2.4619   -3.5302    2.1706 C   0  0  0  0  0  0  0  0  0  0  0  0
    3.5560   -2.9009    3.0567 C   0  0  2  0  0  0  0  0  0  0  0  0
    4.2713   -4.0063    3.8717 C   0  0  0  0  0  0  0  0  0  0  0  0
    3.0940   -1.6900    3.9291 C   0  0  2  0  0  0  0  0  0  0  0  0
    1.8422   -1.8388    4.8503 C   0  0  0  0  0  0  0  0  0  0  0  0
    1.4104   -2.9990    5.1653 N   0  0  0  0  0  0  0  0  0  0  0  0
    0.4995   -3.2841    6.1780 N   0  0  0  0  0  0  0  0  0  0  0  0
    0.5356   -2.8550    7.4505 C   0  0  0  0  0  0  0  0  0  0  0  0
   -0.4759   -3.3638    8.1459 N   0  0  0  0  0  0  0  0  0  0  0  0
   -1.1650   -4.1354    7.2253 N   0  0  0  0  0  0  0  0  0  0  0  0
   -0.5634   -4.0992    6.0785 N   0  0  0  0  0  0  0  0  0  0  0  0
    1.3275   -0.4374    5.2982 C   0  0  2  0  0  0  0  0  0  0  0  0
    2.2077    0.1462    6.4260 C   0  0  0  0  0  0  0  0  0  0  0  0
   -0.2205   -0.3271    5.5400 C   0  0  0  0  0  0  0  0  0  0  0  0
   -0.9373   -0.4755    6.5249 O   0  0  0  0  0  0  0  0  0  0  0  0
   -0.4699    0.3017    4.1523 C   0  0  1  0  0  0  0  0  0  0  0  0
   -1.3384    1.5453    4.2243 C   0  0  0  0  0  0  0  0  0  0  0  0
   -2.0251    1.9010    5.1821 O   0  0  0  0  0  0  0  0  0  0  0  0
   -1.3251    2.4150    2.9600 C   0  0  0  0  0  0  0  0  0  0  0  0
   -2.1959    3.6911    2.9709 C   0  0  2  0  0  0  0  0  0  0  0  0
   -1.7755    4.5329    4.0157 O   0  0  0  0  0  0  0  0  0  0  0  0
   -3.6909    3.4012    3.0186 C   0  0  2  0  0  0  0  0  0  0  0  0
   -4.4325    3.0035    1.7726 C   0  0  0  0  0  0  0  0  0  0  0  0
   -4.5042    4.3299    2.2786 O   0  0  0  0  0  0  0  0  0  0  0  0
    1.0634    0.4907    4.0648 C   0  0  2  0  0  0  0  0  0  0  0  0
    1.7290    0.1495    2.7445 C   0  0  1  0  0  0  0  0  0  0  0  0
    1.8183    1.3145    1.9660 O   0  0  0  0  0  0  0  0  0  0  0  0
    3.1159   -0.4542    2.9869 C   0  0  2  0  0  0  0  0  0  0  0  0
    3.7674   -0.9176    1.6763 C   0  0  1  0  0  0  0  0  0  0  0  0
    4.6399    0.0931    1.2235 O   0  0  0  0  0  0  0  0  0  0  0  0
    4.4694   -2.2620    1.9883 C   0  0  2  0  0  0  0  0  0  0  0  0
    5.7669   -2.0218    2.4980 O   0  0  0  0  0  0  0  0  0  0  0  0
    4.3553   -3.3534   -4.9332 H   0  0  0  0  0  0  0  0  0  0  0  0
    3.5860   -4.5558   -3.9251 H   0  0  0  0  0  0  0  0  0  0  0  0
    5.3321   -4.6249   -4.2012 H   0  0  0  0  0  0  0  0  0  0  0  0
    4.1858   -1.8353   -0.8492 H   0  0  0  0  0  0  0  0  0  0  0  0
    6.5718   -1.6330   -1.6265 H   0  0  0  0  0  0  0  0  0  0  0  0
    7.0974   -2.7184   -0.3422 H   0  0  0  0  0  0  0  0  0  0  0  0
    6.4381   -1.1360    0.0487 H   0  0  0  0  0  0  0  0  0  0  0  0
    5.2684   -4.0008    1.0465 H   0  0  0  0  0  0  0  0  0  0  0  0
    2.5026   -3.5490   -0.0006 H   0  0  0  0  0  0  0  0  0  0  0  0
    3.8474   -5.6323    1.3234 H   0  0  0  0  0  0  0  0  0  0  0  0
    1.6644   -2.8111    1.9681 H   0  0  0  0  0  0  0  0  0  0  0  0
    1.9943   -4.3955    2.6480 H   0  0  0  0  0  0  0  0  0  0  0  0
    5.0738   -3.6026    4.4871 H   0  0  0  0  0  0  0  0  0  0  0  0
    4.7140   -4.7748    3.2362 H   0  0  0  0  0  0  0  0  0  0  0  0
    3.5777   -4.5143    4.5400 H   0  0  0  0  0  0  0  0  0  0  0  0
    3.9266   -1.5294    4.6139 H   0  0  0  0  0  0  0  0  0  0  0  0
    1.3351   -2.2465    7.8530 H   0  0  0  0  0  0  0  0  0  0  0  0
    2.3997   -0.5610    7.2203 H   0  0  0  0  0  0  0  0  0  0  0  0
    1.7682    1.0535    6.8597 H   0  0  0  0  0  0  0  0  0  0  0  0
    3.1875    0.4760    6.0217 H   0  0  0  0  0  0  0  0  0  0  0  0
   -0.8366   -0.4145    3.4181 H   0  0  0  0  0  0  0  0  0  0  0  0
   -0.2957    2.6829    2.7074 H   0  0  0  0  0  0  0  0  0  0  0  0
   -1.6895    1.7670    2.1674 H   0  0  0  0  0  0  0  0  0  0  0  0
   -1.9654    4.2303    2.0759 H   0  0  0  0  0  0  0  0  0  0  0  0
   -0.8249    4.5810    3.9802 H   0  0  0  0  0  0  0  0  0  0  0  0
   -4.1018    3.0414    3.9663 H   0  0  0  0  0  0  0  0  0  0  0  0
   -3.8339    2.8840    0.8757 H   0  0  0  0  0  0  0  0  0  0  0  0
   -5.3841    2.4978    1.8033 H   0  0  0  0  0  0  0  0  0  0  0  0
    1.3257    1.5060    4.3774 H   0  0  0  0  0  0  0  0  0  0  0  0
    1.1494   -0.5747    2.1684 H   0  0  0  0  0  0  0  0  0  0  0  0
    0.9561    1.5547    1.6460 H   0  0  0  0  0  0  0  0  0  0  0  0
    3.7580    0.2959    3.4534 H   0  0  0  0  0  0  0  0  0  0  0  0
    2.9855   -1.0487    0.9192 H   0  0  0  0  0  0  0  0  0  0  0  0
    4.1142    0.8682    1.0805 H   0  0  0  0  0  0  0  0  0  0  0  0
    6.2295   -1.5217    1.8389 H   0  0  0  0  0  0  0  0  0  0  0  0
  1  2  1  0
  1 42  1  0
  1 43  1  0
  1 44  1  0
  2  3  1  0
  3  4  2  0
  3  5  1  0
  5  6  1  0
  5  7  1  0
  5 45  1  6
  6 46  1  0
  6 47  1  0
  6 48  1  0
  7 40  1  0
  7  8  1  0
  7 49  1  1
  8  9  1  0
  8 10  1  0
  8 50  1  6
  9 51  1  0
 10 11  1  0
 10 52  1  0
 10 53  1  0
 11 40  1  0
 11 12  1  1
 11 13  1  0
 12 54  1  0
 12 55  1  0
 12 56  1  0
 13 37  1  0
 13 14  1  0
 13 57  1  1
 14 15  2  3
 14 21  1  0
 15 16  1  0
 16 20  1  0
 16 17  1  0
 17 18  2  0
 17 58  1  0
 18 19  1  0
 19 20  2  0
 21 34  1  0
 21 22  1  1
 21 23  1  0
 22 59  1  0
 22 60  1  0
 22 61  1  0
 23 24  2  0
 23 25  1  0
 25 26  1  0
 25 34  1  0
 25 62  1  6
 26 27  2  0
 26 28  1  0
 28 29  1  0
 28 63  1  0
 28 64  1  0
 29 30  1  0
 29 31  1  0
 29 65  1  6
 30 66  1  0
 31 33  1  0
 31 32  1  0
 31 67  1  1
 32 33  1  0
 32 68  1  0
 32 69  1  0
 34 35  1  0
 34 70  1  1
 35 36  1  0
 35 37  1  0
 35 71  1  6
 36 72  1  0
 37 38  1  0
 37 73  1  1
 38 39  1  0
 38 40  1  0
 38 74  1  6
 39 75  1  0
 40 41  1  1
 41 76  1  0
M  END
>  <i_m_ct_stereo_status>  (300) 
1

>  <s_m_source_file>  (300) 
/var/tmp/pbs.5076255.sched01/tmpt25ahaql/1236iipj8y0.sdf

>  <i_m_source_file_index>  (300) 
6

>  <i_lp_mmshare_version>  (300) 
48012

>  <i_f3d_flags>  (300) 
0

>  <s_epik_input>  (300) 
W0NIM11PQyg9TylbQ0BIXShbQ0gzXSlbQ0BIXShbQ0BASF0oW09IXSlbQ0gyXTEpW0NAQF0yKFtPSF0pW0NASF0oW09IXSlbQ0BIXShbQ0BASF0zW0NAQF0xMltDSDNdKVtDQEhdKFtPSF0pW0NAQEhdNFtDQF0oW0NIM10pKENcMz1OL241W2NIXW5ubjUpQyg9TylbQ0BIXTRDKD1PKVtDSDJdW0NASF0oW09IXSlbQ0BASF02W0NIMl1PNg==

>  <s_epik_cmdline>  (300) 
J2VwaWtfcHl0aG9uJywgJy1waHQnLCAnMi4wJywgJy1waCcsICc3LjAnLCAnLXRuJywgJzgnLCAnLW1hJywgJzIwMCcsICctaW1hZScsICc8aW5maWxlLm1hZT4nLCAnLW9tYWUnLCAnPG91dGZpbGUubWFlPic=

>  <r_lp_tautomer_probability>  (300) 
1

>  <r_epik_Ionization_Penalty>  (300) 
1.21052

>  <r_epik_Ionization_Penalty_Charging>  (300) 
0

>  <r_epik_Ionization_Penalty_Neutral>  (300) 
1.21052

>  <r_epik_State_Penalty>  (300) 
1.27769

>  <r_epik_Charging_Adjusted_Penalty>  (300) 
1.27769

>  <i_epik_Tot_Q>  (300) 
0

>  <i_epik_Tot_abs_Q>  (300) 
0

>  <s_epik_Chemistry_Notes>  (300) 
This compound has an ester and may undergo hydrolysis at high or low pH. This compound has an imine and may undergo hydrolysis.

>  <s_lp_Force_Field>  (300) 
OPLS3e

>  <r_lp_Energy>  (300) 
44.1212

>  <b_lp_Chiralities_Consistent>  (300) 
1

>  <s_lp_Variant>  (300) 
90:0-3

>  <s_i_glide_gridfile>  (300) 
pfpi4k_grid

>  <i_i_glide_lignum>  (300) 
6

>  <i_i_glide_rotatable_bonds>  (300) 
13

>  <r_i_docking_score>  (300) 
-3.49629

>  <r_i_glide_ligand_efficiency>  (300) 
-0.0852753

>  <r_i_glide_ligand_efficiency_sa>  (300) 
-0.294048

>  <r_i_glide_ligand_efficiency_ln>  (300) 
-0.741749

>  <r_i_glide_gscore>  (300) 
-3.49629

>  <r_i_glide_lipo>  (300) 
-0.101006

>  <r_i_glide_hbond>  (300) 
-0.0791995

>  <r_i_glide_metal>  (300) 
-0

>  <r_i_glide_rewards>  (300) 
-0.00248126

>  <r_i_glide_evdw>  (300) 
-31.0406

>  <r_i_glide_ecoul>  (300) 
-12.0755

>  <r_i_glide_erotb>  (300) 
0.215872

>  <r_i_glide_esite>  (300) 
-0.166118

>  <r_i_glide_emodel>  (300) 
-50.0645

>  <r_i_glide_energy>  (300) 
-43.1161

>  <r_i_glide_einternal>  (300) 
4.307

>  <r_i_glide_intrahb_reward>  (300) 
-0

>  <i_i_glide_confnum>  (300) 
2

>  <i_i_glide_posenum>  (300) 
21

>  <r_i_glide_eff_state_penalty>  (300) 
0

>  <ligand_id>  (300) 
90

>  <original_smiles>  (300) 
COC(=O)C(C)C1C(O)CC2(C)C3C(=Nn4cnnn4)C4(C)C(=O)C(C(=O)CC(O)C5CO5)C4C(O)C3C(O)C12O

>  <smiles>  (300) 
[H]OC([H])(C([H])([H])C(=O)C1([H])C(=O)C2(C([H])([H])[H])C(=Nn3nnnc3[H])C3([H])C([H])(C([H])(O[H])C12[H])C([H])(O[H])C1(O[H])C([H])(C([H])(C(=O)OC([H])([H])[H])C([H])([H])[H])C([H])(O[H])C([H])([H])C31C([H])([H])[H])C1([H])OC1([H])[H]

$$$$
90:2:1
     RDKit          3D

 76 81  0  0  1  0  0  0  0  0999 V2000
    2.1275   -6.2449    0.5407 C   0  0  0  0  0  0  0  0  0  0  0  0
    2.1945   -4.8397    0.5716 O   0  0  0  0  0  0  0  0  0  0  0  0
    3.2417   -4.2549    1.1576 C   0  0  0  0  0  0  0  0  0  0  0  0
    4.2200   -4.8480    1.6151 O   0  0  0  0  0  0  0  0  0  0  0  0
    3.1019   -2.7215    1.2104 C   0  0  2  0  0  0  0  0  0  0  0  0
    3.2532   -2.1898   -0.2329 C   0  0  0  0  0  0  0  0  0  0  0  0
    4.0633   -2.0487    2.2505 C   0  0  2  0  0  0  0  0  0  0  0  0
    3.9288   -2.5814    3.7009 C   0  0  1  0  0  0  0  0  0  0  0  0
    4.9561   -3.5032    3.9962 O   0  0  0  0  0  0  0  0  0  0  0  0
    4.0697   -1.3850    4.6572 C   0  0  0  0  0  0  0  0  0  0  0  0
    4.5186   -0.1834    3.8124 C   0  0  2  0  0  0  0  0  0  0  0  0
    6.0582   -0.1006    3.7665 C   0  0  0  0  0  0  0  0  0  0  0  0
    3.8581    1.1677    4.2167 C   0  0  2  0  0  0  0  0  0  0  0  0
    3.9199    1.6810    5.6954 C   0  0  0  0  0  0  0  0  0  0  0  0
    4.8132    1.1956    6.4798 N   0  0  0  0  0  0  0  0  0  0  0  0
    5.2319    1.7347    7.6826 N   0  0  0  0  0  0  0  0  0  0  0  0
    5.6866    0.9628    8.6934 C   0  0  0  0  0  0  0  0  0  0  0  0
    6.0438    1.6829    9.7543 N   0  0  0  0  0  0  0  0  0  0  0  0
    5.8946    2.9944    9.2883 N   0  0  0  0  0  0  0  0  0  0  0  0
    5.4153    3.0127    8.0876 N   0  0  0  0  0  0  0  0  0  0  0  0
    2.9192    2.8359    5.9446 C   0  0  2  0  0  0  0  0  0  0  0  0
    3.5126    4.1602    5.4409 C   0  0  0  0  0  0  0  0  0  0  0  0
    2.2809    2.9199    7.3662 C   0  0  0  0  0  0  0  0  0  0  0  0
    2.5389    3.5908    8.3652 O   0  0  0  0  0  0  0  0  0  0  0  0
    0.9884    2.2198    6.8838 C   0  0  1  0  0  0  0  0  0  0  0  0
   -0.2775    2.9197    7.2937 C   0  0  0  0  0  0  0  0  0  0  0  0
   -0.3895    4.1129    7.5870 O   0  0  0  0  0  0  0  0  0  0  0  0
   -1.4886    1.9957    7.3690 C   0  0  0  0  0  0  0  0  0  0  0  0
   -2.8687    2.6668    7.2819 C   0  0  2  0  0  0  0  0  0  0  0  0
   -2.9856    3.3560    6.0517 O   0  0  0  0  0  0  0  0  0  0  0  0
   -3.1971    3.5576    8.4747 C   0  0  2  0  0  0  0  0  0  0  0  0
   -3.3139    3.0084    9.8745 C   0  0  0  0  0  0  0  0  0  0  0  0
   -4.4716    3.3013    9.0830 O   0  0  0  0  0  0  0  0  0  0  0  0
    1.4921    2.4511    5.4423 C   0  0  2  0  0  0  0  0  0  0  0  0
    1.3229    1.2871    4.4641 C   0  0  1  0  0  0  0  0  0  0  0  0
    0.0672    1.4052    3.8213 O   0  0  0  0  0  0  0  0  0  0  0  0
    2.4991    1.2345    3.4690 C   0  0  2  0  0  0  0  0  0  0  0  0
    2.4671    0.0224    2.5189 C   0  0  1  0  0  0  0  0  0  0  0  0
    1.9643    0.4622    1.2736 O   0  0  0  0  0  0  0  0  0  0  0  0
    3.9168   -0.5198    2.4335 C   0  0  2  0  0  0  0  0  0  0  0  0
    4.6286    0.1368    1.3890 O   0  0  0  0  0  0  0  0  0  0  0  0
    1.2223   -6.5432    0.0151 H   0  0  0  0  0  0  0  0  0  0  0  0
    2.0936   -6.6578    1.5481 H   0  0  0  0  0  0  0  0  0  0  0  0
    3.0108   -6.6392    0.0414 H   0  0  0  0  0  0  0  0  0  0  0  0
    2.0812   -2.5246    1.5356 H   0  0  0  0  0  0  0  0  0  0  0  0
    2.5689   -2.6921   -0.9183 H   0  0  0  0  0  0  0  0  0  0  0  0
    4.2688   -2.3388   -0.5970 H   0  0  0  0  0  0  0  0  0  0  0  0
    3.0274   -1.1314   -0.3324 H   0  0  0  0  0  0  0  0  0  0  0  0
    5.0871   -2.2394    1.9000 H   0  0  0  0  0  0  0  0  0  0  0  0
    2.9547   -3.0551    3.8543 H   0  0  0  0  0  0  0  0  0  0  0  0
    4.8868   -4.1962    3.3548 H   0  0  0  0  0  0  0  0  0  0  0  0
    3.0929   -1.1865    5.1097 H   0  0  0  0  0  0  0  0  0  0  0  0
    4.7703   -1.5924    5.4719 H   0  0  0  0  0  0  0  0  0  0  0  0
    6.4011    0.8360    3.3286 H   0  0  0  0  0  0  0  0  0  0  0  0
    6.4542   -0.9271    3.1690 H   0  0  0  0  0  0  0  0  0  0  0  0
    6.5053   -0.1387    4.7620 H   0  0  0  0  0  0  0  0  0  0  0  0
    4.4546    1.9116    3.7114 H   0  0  0  0  0  0  0  0  0  0  0  0
    5.7292   -0.1164    8.6775 H   0  0  0  0  0  0  0  0  0  0  0  0
    4.5164    4.3317    5.8360 H   0  0  0  0  0  0  0  0  0  0  0  0
    2.9042    5.0275    5.7112 H   0  0  0  0  0  0  0  0  0  0  0  0
    3.6085    4.1773    4.3448 H   0  0  0  0  0  0  0  0  0  0  0  0
    1.0056    1.1644    7.1567 H   0  0  0  0  0  0  0  0  0  0  0  0
   -1.3583    1.2336    6.6004 H   0  0  0  0  0  0  0  0  0  0  0  0
   -1.3708    1.5065    8.3298 H   0  0  0  0  0  0  0  0  0  0  0  0
   -3.5768    1.8388    7.2430 H   0  0  0  0  0  0  0  0  0  0  0  0
   -2.7781    2.7506    5.3620 H   0  0  0  0  0  0  0  0  0  0  0  0
   -2.9237    4.6124    8.3899 H   0  0  0  0  0  0  0  0  0  0  0  0
   -3.1532    1.9452   10.0455 H   0  0  0  0  0  0  0  0  0  0  0  0
   -3.1270    3.6837   10.7097 H   0  0  0  0  0  0  0  0  0  0  0  0
    1.0366    3.3646    5.0478 H   0  0  0  0  0  0  0  0  0  0  0  0
    1.3298    0.3243    4.9910 H   0  0  0  0  0  0  0  0  0  0  0  0
    0.1441    2.0431    3.1260 H   0  0  0  0  0  0  0  0  0  0  0  0
    2.5174    2.1447    2.8592 H   0  0  0  0  0  0  0  0  0  0  0  0
    1.8285   -0.7327    2.9861 H   0  0  0  0  0  0  0  0  0  0  0  0
    1.6166   -0.2652    0.7572 H   0  0  0  0  0  0  0  0  0  0  0  0
    4.0868    0.0601    0.6190 H   0  0  0  0  0  0  0  0  0  0  0  0
  1  2  1  0
  1 42  1  0
  1 43  1  0
  1 44  1  0
  2  3  1  0
  3  4  2  0
  3  5  1  0
  5  6  1  0
  5  7  1  0
  5 45  1  1
  6 46  1  0
  6 47  1  0
  6 48  1  0
  7 40  1  0
  7  8  1  0
  7 49  1  6
  8  9  1  0
  8 10  1  0
  8 50  1  6
  9 51  1  0
 10 11  1  0
 10 52  1  0
 10 53  1  0
 11 40  1  0
 11 12  1  6
 11 13  1  0
 12 54  1  0
 12 55  1  0
 12 56  1  0
 13 37  1  0
 13 14  1  0
 13 57  1  6
 14 15  2  3
 14 21  1  0
 15 16  1  0
 16 20  1  0
 16 17  1  0
 17 18  2  0
 17 58  1  0
 18 19  1  0
 19 20  2  0
 21 34  1  0
 21 22  1  6
 21 23  1  0
 22 59  1  0
 22 60  1  0
 22 61  1  0
 23 24  2  0
 23 25  1  0
 25 26  1  0
 25 34  1  0
 25 62  1  1
 26 27  2  0
 26 28  1  0
 28 29  1  0
 28 63  1  0
 28 64  1  0
 29 30  1  0
 29 31  1  0
 29 65  1  6
 30 66  1  0
 31 33  1  0
 31 32  1  0
 31 67  1  1
 32 33  1  0
 32 68  1  0
 32 69  1  0
 34 35  1  0
 34 70  1  6
 35 36  1  0
 35 37  1  0
 35 71  1  1
 36 72  1  0
 37 38  1  0
 37 73  1  6
 38 39  1  0
 38 40  1  0
 38 74  1  1
 39 75  1  0
 40 41  1  6
 41 76  1  0
M  END
>  <i_m_ct_stereo_status>  (301) 
1

>  <s_m_source_file>  (301) 
/var/tmp/pbs.5076255.sched01/tmpt25ahaql/1236iipj8y0.sdf

>  <i_m_source_file_index>  (301) 
6

>  <i_lp_mmshare_version>  (301) 
48012

>  <i_f3d_flags>  (301) 
0

>  <s_epik_input>  (301) 
W0NIM11PQyg9TylbQ0BIXShbQ0gzXSlbQ0BIXShbQ0BASF0oW09IXSlbQ0gyXTEpW0NAQF0yKFtPSF0pW0NASF0oW09IXSlbQ0BIXShbQ0BASF0zW0NAQF0xMltDSDNdKVtDQEhdKFtPSF0pW0NAQEhdNFtDQF0oW0NIM10pKENcMz1OL241W2NIXW5ubjUpQyg9TylbQ0BIXTRDKD1PKVtDSDJdW0NASF0oW09IXSlbQ0BASF02W0NIMl1PNg==

>  <s_epik_cmdline>  (301) 
J2VwaWtfcHl0aG9uJywgJy1waHQnLCAnMi4wJywgJy1waCcsICc3LjAnLCAnLXRuJywgJzgnLCAnLW1hJywgJzIwMCcsICctaW1hZScsICc8aW5maWxlLm1hZT4nLCAnLW9tYWUnLCAnPG91dGZpbGUubWFlPic=

>  <r_lp_tautomer_probability>  (301) 
1

>  <r_epik_Ionization_Penalty>  (301) 
1.21052

>  <r_epik_Ionization_Penalty_Charging>  (301) 
0

>  <r_epik_Ionization_Penalty_Neutral>  (301) 
1.21052

>  <r_epik_State_Penalty>  (301) 
1.27769

>  <r_epik_Charging_Adjusted_Penalty>  (301) 
1.27769

>  <i_epik_Tot_Q>  (301) 
0

>  <i_epik_Tot_abs_Q>  (301) 
0

>  <s_epik_Chemistry_Notes>  (301) 
This compound has an ester and may undergo hydrolysis at high or low pH. This compound has an imine and may undergo hydrolysis.

>  <s_lp_Force_Field>  (301) 
OPLS3e

>  <r_lp_Energy>  (301) 
44.1212

>  <b_lp_Chiralities_Consistent>  (301) 
1

>  <s_lp_Variant>  (301) 
90:0-3

>  <s_i_glide_gridfile>  (301) 
pfpi4k_grid

>  <i_i_glide_lignum>  (301) 
6

>  <i_i_glide_rotatable_bonds>  (301) 
13

>  <r_i_docking_score>  (301) 
-2.97392

>  <r_i_glide_ligand_efficiency>  (301) 
-0.0725347

>  <r_i_glide_ligand_efficiency_sa>  (301) 
-0.250115

>  <r_i_glide_ligand_efficiency_ln>  (301) 
-0.630927

>  <r_i_glide_gscore>  (301) 
-2.97392

>  <r_i_glide_lipo>  (301) 
-0.454116

>  <r_i_glide_hbond>  (301) 
-0.0217328

>  <r_i_glide_metal>  (301) 
-0

>  <r_i_glide_rewards>  (301) 
-0.5

>  <r_i_glide_evdw>  (301) 
-23.7219

>  <r_i_glide_ecoul>  (301) 
-6.82155

>  <r_i_glide_erotb>  (301) 
0.215872

>  <r_i_glide_esite>  (301) 
-0.00461829

>  <r_i_glide_emodel>  (301) 
-40.6987

>  <r_i_glide_energy>  (301) 
-30.5434

>  <r_i_glide_einternal>  (301) 
3.61004

>  <r_i_glide_intrahb_reward>  (301) 
-0.5

>  <i_i_glide_confnum>  (301) 
2

>  <i_i_glide_posenum>  (301) 
12

>  <r_i_glide_eff_state_penalty>  (301) 
0

>  <ligand_id>  (301) 
90

>  <original_smiles>  (301) 
COC(=O)C(C)C1C(O)CC2(C)C3C(=Nn4cnnn4)C4(C)C(=O)C(C(=O)CC(O)C5CO5)C4C(O)C3C(O)C12O

>  <smiles>  (301) 
[H]OC([H])(C([H])([H])C(=O)C1([H])C(=O)C2(C([H])([H])[H])C(=Nn3nnnc3[H])C3([H])C([H])(C([H])(O[H])C12[H])C([H])(O[H])C1(O[H])C([H])(C([H])(C(=O)OC([H])([H])[H])C([H])([H])[H])C([H])(O[H])C([H])([H])C31C([H])([H])[H])C1([H])OC1([H])[H]

$$$$
90:2:2
     RDKit          3D

 76 81  0  0  1  0  0  0  0  0999 V2000
    4.9950    7.5430    3.1931 C   0  0  0  0  0  0  0  0  0  0  0  0
    4.0130    6.5290    3.1267 O   0  0  0  0  0  0  0  0  0  0  0  0
    3.7971    5.7482    4.1911 C   0  0  0  0  0  0  0  0  0  0  0  0
    4.4389    5.8410    5.2360 O   0  0  0  0  0  0  0  0  0  0  0  0
    2.6732    4.6960    3.9664 C   0  0  2  0  0  0  0  0  0  0  0  0
    1.4632    5.3970    3.3025 C   0  0  0  0  0  0  0  0  0  0  0  0
    2.2673    3.8888    5.2542 C   0  0  2  0  0  0  0  0  0  0  0  0
    3.4118    3.0638    5.9002 C   0  0  1  0  0  0  0  0  0  0  0  0
    3.9324    3.7397    7.0168 O   0  0  0  0  0  0  0  0  0  0  0  0
    2.8305    1.7305    6.3969 C   0  0  0  0  0  0  0  0  0  0  0  0
    1.2975    1.8518    6.2936 C   0  0  2  0  0  0  0  0  0  0  0  0
    0.7256    2.4052    7.6265 C   0  0  0  0  0  0  0  0  0  0  0  0
    0.5705    0.5563    5.8193 C   0  0  2  0  0  0  0  0  0  0  0  0
    0.8645   -0.7888    6.5204 C   0  0  0  0  0  0  0  0  0  0  0  0
    1.3659   -0.7863    7.7109 N   0  0  0  0  0  0  0  0  0  0  0  0
    1.3416   -1.8341    8.5958 N   0  0  0  0  0  0  0  0  0  0  0  0
    2.3325   -2.0900    9.4586 C   0  0  0  0  0  0  0  0  0  0  0  0
    2.0668   -3.1201   10.2545 N   0  0  0  0  0  0  0  0  0  0  0  0
    0.7888   -3.4868    9.8715 N   0  0  0  0  0  0  0  0  0  0  0  0
    0.3438   -2.7055    8.9497 N   0  0  0  0  0  0  0  0  0  0  0  0
    0.3894   -1.9847    5.6722 C   0  0  2  0  0  0  0  0  0  0  0  0
   -1.1122   -2.1489    5.8453 C   0  0  0  0  0  0  0  0  0  0  0  0
    1.1566   -3.3394    5.8156 C   0  0  0  0  0  0  0  0  0  0  0  0
    1.0199   -4.3290    6.5326 O   0  0  0  0  0  0  0  0  0  0  0  0
    1.9612   -3.0847    4.5221 C   0  0  1  0  0  0  0  0  0  0  0  0
    1.9735   -4.2837    3.5920 C   0  0  0  0  0  0  0  0  0  0  0  0
    1.5242   -5.4077    3.8256 O   0  0  0  0  0  0  0  0  0  0  0  0
    2.6644   -4.0277    2.2429 C   0  0  0  0  0  0  0  0  0  0  0  0
    2.8798   -5.2485    1.3147 C   0  0  2  0  0  0  0  0  0  0  0  0
    1.6447   -5.8600    0.9530 O   0  0  0  0  0  0  0  0  0  0  0  0
    3.8624   -6.2740    1.8756 C   0  0  2  0  0  0  0  0  0  0  0  0
    5.3500   -6.0227    1.8316 C   0  0  0  0  0  0  0  0  0  0  0  0
    4.7114   -6.9311    0.9220 O   0  0  0  0  0  0  0  0  0  0  0  0
    0.9573   -1.9450    4.2282 C   0  0  2  0  0  0  0  0  0  0  0  0
    1.5026   -0.6284    3.7328 C   0  0  1  0  0  0  0  0  0  0  0  0
    1.5129   -0.6711    2.3308 O   0  0  0  0  0  0  0  0  0  0  0  0
    0.6734    0.5421    4.2723 C   0  0  2  0  0  0  0  0  0  0  0  0
    1.2835    1.8844    3.8791 C   0  0  1  0  0  0  0  0  0  0  0  0
    0.5683    2.2833    2.7309 O   0  0  0  0  0  0  0  0  0  0  0  0
    1.1456    2.8203    5.1031 C   0  0  2  0  0  0  0  0  0  0  0  0
   -0.1418    3.4088    5.1224 O   0  0  0  0  0  0  0  0  0  0  0  0
    4.9628    8.1355    2.2793 H   0  0  0  0  0  0  0  0  0  0  0  0
    5.9815    7.0913    3.2937 H   0  0  0  0  0  0  0  0  0  0  0  0
    4.8179    8.2012    4.0451 H   0  0  0  0  0  0  0  0  0  0  0  0
    3.0956    3.9870    3.2548 H   0  0  0  0  0  0  0  0  0  0  0  0
    1.7724    5.8834    2.3877 H   0  0  0  0  0  0  0  0  0  0  0  0
    1.0281    6.1443    3.9640 H   0  0  0  0  0  0  0  0  0  0  0  0
    0.6591    4.7482    2.9733 H   0  0  0  0  0  0  0  0  0  0  0  0
    1.9080    4.6164    5.9903 H   0  0  0  0  0  0  0  0  0  0  0  0
    4.2164    2.8760    5.1878 H   0  0  0  0  0  0  0  0  0  0  0  0
    4.2608    4.5666    6.6935 H   0  0  0  0  0  0  0  0  0  0  0  0
    3.2035    0.9359    5.7493 H   0  0  0  0  0  0  0  0  0  0  0  0
    3.1644    1.4889    7.4095 H   0  0  0  0  0  0  0  0  0  0  0  0
   -0.3578    2.5338    7.5910 H   0  0  0  0  0  0  0  0  0  0  0  0
    1.1554    3.3769    7.8771 H   0  0  0  0  0  0  0  0  0  0  0  0
    0.9427    1.7434    8.4674 H   0  0  0  0  0  0  0  0  0  0  0  0
   -0.4859    0.7318    6.0347 H   0  0  0  0  0  0  0  0  0  0  0  0
    3.2448   -1.5300    9.5466 H   0  0  0  0  0  0  0  0  0  0  0  0
   -1.3879   -2.2494    6.8858 H   0  0  0  0  0  0  0  0  0  0  0  0
   -1.4350   -3.0557    5.3781 H   0  0  0  0  0  0  0  0  0  0  0  0
   -1.7012   -1.3369    5.3934 H   0  0  0  0  0  0  0  0  0  0  0  0
    2.9523   -2.6748    4.7355 H   0  0  0  0  0  0  0  0  0  0  0  0
    2.1458   -3.2284    1.7135 H   0  0  0  0  0  0  0  0  0  0  0  0
    3.6401   -3.6281    2.5002 H   0  0  0  0  0  0  0  0  0  0  0  0
    3.3044   -4.8683    0.3847 H   0  0  0  0  0  0  0  0  0  0  0  0
    1.8483   -6.7159    0.6170 H   0  0  0  0  0  0  0  0  0  0  0  0
    3.5113   -6.9089    2.6894 H   0  0  0  0  0  0  0  0  0  0  0  0
    5.7232   -5.1124    1.3612 H   0  0  0  0  0  0  0  0  0  0  0  0
    5.9958   -6.4938    2.5708 H   0  0  0  0  0  0  0  0  0  0  0  0
    0.1616   -2.3307    3.5901 H   0  0  0  0  0  0  0  0  0  0  0  0
    2.5288   -0.4922    4.0734 H   0  0  0  0  0  0  0  0  0  0  0  0
    1.7853    0.1634    1.9927 H   0  0  0  0  0  0  0  0  0  0  0  0
   -0.3512    0.4814    3.8895 H   0  0  0  0  0  0  0  0  0  0  0  0
    2.3457    1.7556    3.6423 H   0  0  0  0  0  0  0  0  0  0  0  0
    0.9172    3.0746    2.3477 H   0  0  0  0  0  0  0  0  0  0  0  0
   -0.2538    3.8520    4.3025 H   0  0  0  0  0  0  0  0  0  0  0  0
  1  2  1  0
  1 42  1  0
  1 43  1  0
  1 44  1  0
  2  3  1  0
  3  4  2  0
  3  5  1  0
  5  6  1  0
  5  7  1  0
  5 45  1  6
  6 46  1  0
  6 47  1  0
  6 48  1  0
  7 40  1  0
  7  8  1  0
  7 49  1  1
  8  9  1  0
  8 10  1  0
  8 50  1  6
  9 51  1  0
 10 11  1  0
 10 52  1  0
 10 53  1  0
 11 40  1  0
 11 12  1  1
 11 13  1  0
 12 54  1  0
 12 55  1  0
 12 56  1  0
 13 37  1  0
 13 14  1  0
 13 57  1  6
 14 15  2  3
 14 21  1  0
 15 16  1  0
 16 20  1  0
 16 17  1  0
 17 18  2  0
 17 58  1  0
 18 19  1  0
 19 20  2  0
 21 34  1  0
 21 22  1  6
 21 23  1  0
 22 59  1  0
 22 60  1  0
 22 61  1  0
 23 24  2  0
 23 25  1  0
 25 26  1  0
 25 34  1  0
 25 62  1  1
 26 27  2  0
 26 28  1  0
 28 29  1  0
 28 63  1  0
 28 64  1  0
 29 30  1  0
 29 31  1  0
 29 65  1  6
 30 66  1  0
 31 33  1  0
 31 32  1  0
 31 67  1  1
 32 33  1  0
 32 68  1  0
 32 69  1  0
 34 35  1  0
 34 70  1  6
 35 36  1  0
 35 37  1  0
 35 71  1  1
 36 72  1  0
 37 38  1  0
 37 73  1  6
 38 39  1  0
 38 40  1  0
 38 74  1  6
 39 75  1  0
 40 41  1  1
 41 76  1  0
M  END
>  <i_m_ct_stereo_status>  (302) 
1

>  <s_m_source_file>  (302) 
/var/tmp/pbs.5076255.sched01/tmpt25ahaql/1236iipj8y0.sdf

>  <i_m_source_file_index>  (302) 
6

>  <i_lp_mmshare_version>  (302) 
48012

>  <i_f3d_flags>  (302) 
0

>  <s_epik_input>  (302) 
W0NIM11PQyg9TylbQ0BIXShbQ0gzXSlbQ0BIXShbQ0BASF0oW09IXSlbQ0gyXTEpW0NAQF0yKFtPSF0pW0NASF0oW09IXSlbQ0BIXShbQ0BASF0zW0NAQF0xMltDSDNdKVtDQEhdKFtPSF0pW0NAQEhdNFtDQF0oW0NIM10pKENcMz1OL241W2NIXW5ubjUpQyg9TylbQ0BIXTRDKD1PKVtDSDJdW0NASF0oW09IXSlbQ0BASF02W0NIMl1PNg==

>  <s_epik_cmdline>  (302) 
J2VwaWtfcHl0aG9uJywgJy1waHQnLCAnMi4wJywgJy1waCcsICc3LjAnLCAnLXRuJywgJzgnLCAnLW1hJywgJzIwMCcsICctaW1hZScsICc8aW5maWxlLm1hZT4nLCAnLW9tYWUnLCAnPG91dGZpbGUubWFlPic=

>  <r_lp_tautomer_probability>  (302) 
1

>  <r_epik_Ionization_Penalty>  (302) 
1.21052

>  <r_epik_Ionization_Penalty_Charging>  (302) 
0

>  <r_epik_Ionization_Penalty_Neutral>  (302) 
1.21052

>  <r_epik_State_Penalty>  (302) 
1.27769

>  <r_epik_Charging_Adjusted_Penalty>  (302) 
1.27769

>  <i_epik_Tot_Q>  (302) 
0

>  <i_epik_Tot_abs_Q>  (302) 
0

>  <s_epik_Chemistry_Notes>  (302) 
This compound has an ester and may undergo hydrolysis at high or low pH. This compound has an imine and may undergo hydrolysis.

>  <s_lp_Force_Field>  (302) 
OPLS3e

>  <r_lp_Energy>  (302) 
44.1212

>  <b_lp_Chiralities_Consistent>  (302) 
1

>  <s_lp_Variant>  (302) 
90:0-3

>  <s_i_glide_gridfile>  (302) 
pfpi4k_grid

>  <i_i_glide_lignum>  (302) 
6

>  <i_i_glide_rotatable_bonds>  (302) 
13

>  <r_i_docking_score>  (302) 
-2.52399

>  <r_i_glide_ligand_efficiency>  (302) 
-0.0615608

>  <r_i_glide_ligand_efficiency_sa>  (302) 
-0.212275

>  <r_i_glide_ligand_efficiency_ln>  (302) 
-0.535473

>  <r_i_glide_gscore>  (302) 
-2.52399

>  <r_i_glide_lipo>  (302) 
-0.196902

>  <r_i_glide_hbond>  (302) 
0

>  <r_i_glide_metal>  (302) 
-0

>  <r_i_glide_rewards>  (302) 
-0.5

>  <r_i_glide_evdw>  (302) 
-23.6769

>  <r_i_glide_ecoul>  (302) 
-5.27457

>  <r_i_glide_erotb>  (302) 
0.215872

>  <r_i_glide_esite>  (302) 
-0.0679349

>  <r_i_glide_emodel>  (302) 
-38.0858

>  <r_i_glide_energy>  (302) 
-28.9514

>  <r_i_glide_einternal>  (302) 
3.69677

>  <r_i_glide_intrahb_reward>  (302) 
-0.5

>  <i_i_glide_confnum>  (302) 
2

>  <i_i_glide_posenum>  (302) 
4

>  <r_i_glide_eff_state_penalty>  (302) 
0

>  <ligand_id>  (302) 
90

>  <original_smiles>  (302) 
COC(=O)C(C)C1C(O)CC2(C)C3C(=Nn4cnnn4)C4(C)C(=O)C(C(=O)CC(O)C5CO5)C4C(O)C3C(O)C12O

>  <smiles>  (302) 
[H]OC([H])(C([H])([H])C(=O)C1([H])C(=O)C2(C([H])([H])[H])C(=Nn3nnnc3[H])C3([H])C([H])(C([H])(O[H])C12[H])C([H])(O[H])C1(O[H])C([H])(C([H])(C(=O)OC([H])([H])[H])C([H])([H])[H])C([H])(O[H])C([H])([H])C31C([H])([H])[H])C1([H])OC1([H])[H]

$$$$
90:3:0
     RDKit          3D

 76 81  0  0  1  0  0  0  0  0999 V2000
    0.9127    5.9636    3.5016 C   0  0  0  0  0  0  0  0  0  0  0  0
    0.5688    4.6334    3.8378 O   0  0  0  0  0  0  0  0  0  0  0  0
   -0.6954    4.1963    3.7860 C   0  0  0  0  0  0  0  0  0  0  0  0
   -1.6811    4.8699    3.3993 O   0  0  0  0  0  0  0  0  0  0  0  0
   -0.8934    2.7607    4.2431 C   0  0  2  0  0  0  0  0  0  0  0  0
   -2.4158    2.4480    4.2221 C   0  0  0  0  0  0  0  0  0  0  0  0
   -0.1900    2.3844    5.6068 C   0  0  2  0  0  0  0  0  0  0  0  0
    1.3490    2.5415    5.6375 C   0  0  1  0  0  0  0  0  0  0  0  0
    1.7927    3.8594    5.8848 O   0  0  0  0  0  0  0  0  0  0  0  0
    1.8663    1.6862    6.7829 C   0  0  0  0  0  0  0  0  0  0  0  0
    0.8094    0.5855    7.0623 C   0  0  2  0  0  0  0  0  0  0  0  0
    0.3225    0.7763    8.5252 C   0  0  0  0  0  0  0  0  0  0  0  0
    1.2612   -0.9040    6.7645 C   0  0  2  0  0  0  0  0  0  0  0  0
    2.7836   -1.2176    6.5600 C   0  0  0  0  0  0  0  0  0  0  0  0
    3.6640   -1.1209    7.4880 N   0  0  0  0  0  0  0  0  0  0  0  0
    3.3875   -0.9495    8.8379 N   0  0  0  0  0  0  0  0  0  0  0  0
    4.2636   -0.4136    9.7130 C   0  0  0  0  0  0  0  0  0  0  0  0
    3.8032   -0.3800   10.9579 N   0  0  0  0  0  0  0  0  0  0  0  0
    2.5596   -1.0153   10.8283 N   0  0  0  0  0  0  0  0  0  0  0  0
    2.3401   -1.3783    9.5914 N   0  0  0  0  0  0  0  0  0  0  0  0
    3.2776   -1.7158    5.1590 C   0  0  2  0  0  0  0  0  0  0  0  0
    4.6267   -2.4811    5.2252 C   0  0  0  0  0  0  0  0  0  0  0  0
    3.2962   -0.5826    4.1033 C   0  0  0  0  0  0  0  0  0  0  0  0
    3.8658    0.5021    4.0351 O   0  0  0  0  0  0  0  0  0  0  0  0
    2.3889   -1.3800    3.1309 C   0  0  1  0  0  0  0  0  0  0  0  0
    3.0739   -1.8391    1.8633 C   0  0  0  0  0  0  0  0  0  0  0  0
    3.3041   -3.0182    1.5814 O   0  0  0  0  0  0  0  0  0  0  0  0
    3.3674   -0.7322    0.8359 C   0  0  0  0  0  0  0  0  0  0  0  0
    3.9434   -1.2261   -0.5114 C   0  0  2  0  0  0  0  0  0  0  0  0
    2.9917   -2.0089   -1.2289 O   0  0  0  0  0  0  0  0  0  0  0  0
    5.2856   -1.9492   -0.3991 C   0  0  2  0  0  0  0  0  0  0  0  0
    5.9994   -2.2045    0.9087 C   0  0  0  0  0  0  0  0  0  0  0  0
    6.4169   -1.1578    0.0185 O   0  0  0  0  0  0  0  0  0  0  0  0
    2.2032   -2.4138    4.2751 C   0  0  2  0  0  0  0  0  0  0  0  0
    0.8003   -2.6027    4.8255 C   0  0  1  0  0  0  0  0  0  0  0  0
    0.7981   -3.7628    5.6424 O   0  0  0  0  0  0  0  0  0  0  0  0
    0.3083   -1.4106    5.6716 C   0  0  2  0  0  0  0  0  0  0  0  0
   -0.1127   -0.1500    4.9253 C   0  0  1  0  0  0  0  0  0  0  0  0
   -1.2184   -0.4569    4.0971 O   0  0  0  0  0  0  0  0  0  0  0  0
   -0.3403    0.8918    6.0443 C   0  0  2  0  0  0  0  0  0  0  0  0
   -1.6262    0.6759    6.6147 O   0  0  0  0  0  0  0  0  0  0  0  0
    1.9538    6.1203    3.7716 H   0  0  0  0  0  0  0  0  0  0  0  0
    0.3271    6.7182    4.0361 H   0  0  0  0  0  0  0  0  0  0  0  0
    0.8218    6.1698    2.4358 H   0  0  0  0  0  0  0  0  0  0  0  0
   -0.4122    2.1906    3.4520 H   0  0  0  0  0  0  0  0  0  0  0  0
   -2.8671    2.7128    3.2650 H   0  0  0  0  0  0  0  0  0  0  0  0
   -2.9515    2.9779    5.0126 H   0  0  0  0  0  0  0  0  0  0  0  0
   -2.5929    1.3927    4.3354 H   0  0  0  0  0  0  0  0  0  0  0  0
   -0.6028    3.0210    6.3978 H   0  0  0  0  0  0  0  0  0  0  0  0
    1.7765    2.1914    4.6954 H   0  0  0  0  0  0  0  0  0  0  0  0
    1.6287    4.3806    5.1022 H   0  0  0  0  0  0  0  0  0  0  0  0
    2.8750    1.3507    6.5428 H   0  0  0  0  0  0  0  0  0  0  0  0
    1.9899    2.3068    7.6744 H   0  0  0  0  0  0  0  0  0  0  0  0
   -0.3468   -0.0260    8.8365 H   0  0  0  0  0  0  0  0  0  0  0  0
   -0.2171    1.7207    8.6458 H   0  0  0  0  0  0  0  0  0  0  0  0
    1.1607    0.8069    9.2222 H   0  0  0  0  0  0  0  0  0  0  0  0
    0.9720   -1.5265    7.6003 H   0  0  0  0  0  0  0  0  0  0  0  0
    5.2413   -0.0416    9.4390 H   0  0  0  0  0  0  0  0  0  0  0  0
    5.4311   -1.8904    5.6655 H   0  0  0  0  0  0  0  0  0  0  0  0
    4.9746   -2.8024    4.2413 H   0  0  0  0  0  0  0  0  0  0  0  0
    4.5328   -3.3940    5.8256 H   0  0  0  0  0  0  0  0  0  0  0  0
    1.4581   -0.8630    2.8876 H   0  0  0  0  0  0  0  0  0  0  0  0
    2.4676   -0.1497    0.6738 H   0  0  0  0  0  0  0  0  0  0  0  0
    4.0792   -0.0667    1.2950 H   0  0  0  0  0  0  0  0  0  0  0  0
    4.1119   -0.3462   -1.1369 H   0  0  0  0  0  0  0  0  0  0  0  0
    2.1032   -1.6154   -1.1257 H   0  0  0  0  0  0  0  0  0  0  0  0
    5.5401   -2.5489   -1.2764 H   0  0  0  0  0  0  0  0  0  0  0  0
    5.5421   -1.8449    1.8470 H   0  0  0  0  0  0  0  0  0  0  0  0
    6.6442   -3.0847    0.9137 H   0  0  0  0  0  0  0  0  0  0  0  0
    2.5831   -3.3842    3.9612 H   0  0  0  0  0  0  0  0  0  0  0  0
    0.1007   -2.7971    4.0087 H   0  0  0  0  0  0  0  0  0  0  0  0
    1.4670   -3.6731    6.3063 H   0  0  0  0  0  0  0  0  0  0  0  0
   -0.5955   -1.7619    6.1744 H   0  0  0  0  0  0  0  0  0  0  0  0
    0.6847    0.2429    4.3046 H   0  0  0  0  0  0  0  0  0  0  0  0
   -1.4769    0.3400    3.6578 H   0  0  0  0  0  0  0  0  0  0  0  0
   -2.2696    1.0305    6.0169 H   0  0  0  0  0  0  0  0  0  0  0  0
  1  2  1  0
  1 42  1  0
  1 43  1  0
  1 44  1  0
  2  3  1  0
  3  4  2  0
  3  5  1  0
  5  6  1  0
  5  7  1  0
  5 45  1  6
  6 46  1  0
  6 47  1  0
  6 48  1  0
  7 40  1  0
  7  8  1  0
  7 49  1  1
  8  9  1  0
  8 10  1  0
  8 50  1  6
  9 51  1  0
 10 11  1  0
 10 52  1  0
 10 53  1  0
 11 40  1  0
 11 12  1  1
 11 13  1  0
 12 54  1  0
 12 55  1  0
 12 56  1  0
 13 37  1  0
 13 14  1  0
 13 57  1  1
 14 15  2  3
 14 21  1  0
 15 16  1  0
 16 20  1  0
 16 17  1  0
 17 18  2  0
 17 58  1  0
 18 19  1  0
 19 20  2  0
 21 34  1  0
 21 22  1  1
 21 23  1  0
 22 59  1  0
 22 60  1  0
 22 61  1  0
 23 24  2  0
 23 25  1  0
 25 26  1  0
 25 34  1  0
 25 62  1  6
 26 27  2  0
 26 28  1  0
 28 29  1  0
 28 63  1  0
 28 64  1  0
 29 30  1  0
 29 31  1  0
 29 65  1  6
 30 66  1  0
 31 33  1  0
 31 32  1  0
 31 67  1  6
 32 33  1  0
 32 68  1  0
 32 69  1  0
 34 35  1  0
 34 70  1  6
 35 36  1  0
 35 37  1  0
 35 71  1  6
 36 72  1  0
 37 38  1  0
 37 73  1  1
 38 39  1  0
 38 40  1  0
 38 74  1  6
 39 75  1  0
 40 41  1  1
 41 76  1  0
M  END
>  <i_m_ct_stereo_status>  (303) 
1

>  <s_m_source_file>  (303) 
/var/tmp/pbs.5076255.sched01/tmpt25ahaql/1236iipj8y0.sdf

>  <i_m_source_file_index>  (303) 
7

>  <i_lp_mmshare_version>  (303) 
48012

>  <i_f3d_flags>  (303) 
0

>  <s_epik_input>  (303) 
W0NIM11PQyg9TylbQ0BIXShbQ0gzXSlbQ0BIXShbQ0BASF0oW09IXSlbQ0gyXTEpW0NAQF0yKFtPSF0pW0NASF0oW09IXSlbQ0BIXShbQ0BASF0zW0NAQF0xMltDSDNdKVtDQEhdKFtPSF0pW0NAQEhdNFtDQF0oW0NIM10pKENcMz1OL241W2NIXW5ubjUpQyg9TylbQ0BIXTRDKD1PKVtDSDJdW0NASF0oW09IXSlbQ0BASF02W0NIMl1PNg==

>  <s_epik_cmdline>  (303) 
J2VwaWtfcHl0aG9uJywgJy1waHQnLCAnMi4wJywgJy1waCcsICc3LjAnLCAnLXRuJywgJzgnLCAnLW1hJywgJzIwMCcsICctaW1hZScsICc8aW5maWxlLm1hZT4nLCAnLW9tYWUnLCAnPG91dGZpbGUubWFlPic=

>  <r_lp_tautomer_probability>  (303) 
1

>  <r_epik_Ionization_Penalty>  (303) 
1.21052

>  <r_epik_Ionization_Penalty_Charging>  (303) 
0

>  <r_epik_Ionization_Penalty_Neutral>  (303) 
1.21052

>  <r_epik_State_Penalty>  (303) 
1.27769

>  <r_epik_Charging_Adjusted_Penalty>  (303) 
1.27769

>  <i_epik_Tot_Q>  (303) 
0

>  <i_epik_Tot_abs_Q>  (303) 
0

>  <s_epik_Chemistry_Notes>  (303) 
This compound has an ester and may undergo hydrolysis at high or low pH. This compound has an imine and may undergo hydrolysis.

>  <s_lp_Force_Field>  (303) 
OPLS3e

>  <r_lp_Energy>  (303) 
47.5727

>  <b_lp_Chiralities_Consistent>  (303) 
1

>  <s_lp_Variant>  (303) 
90:0-4

>  <s_i_glide_gridfile>  (303) 
pfpi4k_grid

>  <i_i_glide_lignum>  (303) 
7

>  <i_i_glide_rotatable_bonds>  (303) 
13

>  <r_i_docking_score>  (303) 
-3.78581

>  <r_i_glide_ligand_efficiency>  (303) 
-0.0923369

>  <r_i_glide_ligand_efficiency_sa>  (303) 
-0.318398

>  <r_i_glide_ligand_efficiency_ln>  (303) 
-0.803173

>  <r_i_glide_gscore>  (303) 
-3.78581

>  <r_i_glide_lipo>  (303) 
-0.124383

>  <r_i_glide_hbond>  (303) 
-0.201146

>  <r_i_glide_metal>  (303) 
-0

>  <r_i_glide_rewards>  (303) 
-0.501559

>  <r_i_glide_evdw>  (303) 
-20.5896

>  <r_i_glide_ecoul>  (303) 
-13.5297

>  <r_i_glide_erotb>  (303) 
0.215872

>  <r_i_glide_esite>  (303) 
-0.115664

>  <r_i_glide_emodel>  (303) 
-44.8104

>  <r_i_glide_energy>  (303) 
-34.1192

>  <r_i_glide_einternal>  (303) 
5.40553

>  <r_i_glide_intrahb_reward>  (303) 
-0.5

>  <i_i_glide_confnum>  (303) 
3

>  <i_i_glide_posenum>  (303) 
30

>  <r_i_glide_eff_state_penalty>  (303) 
0

>  <ligand_id>  (303) 
90

>  <original_smiles>  (303) 
COC(=O)C(C)C1C(O)CC2(C)C3C(=Nn4cnnn4)C4(C)C(=O)C(C(=O)CC(O)C5CO5)C4C(O)C3C(O)C12O

>  <smiles>  (303) 
[H]OC([H])(C([H])([H])C(=O)C1([H])C(=O)C2(C([H])([H])[H])C(=Nn3nnnc3[H])C3([H])C([H])(C([H])(O[H])C12[H])C([H])(O[H])C1(O[H])C([H])(C([H])(C(=O)OC([H])([H])[H])C([H])([H])[H])C([H])(O[H])C([H])([H])C31C([H])([H])[H])C1([H])OC1([H])[H]

$$$$
90:3:1
     RDKit          3D

 76 81  0  0  1  0  0  0  0  0999 V2000
    2.8507   -0.3895   -4.7572 C   0  0  0  0  0  0  0  0  0  0  0  0
    3.3441   -0.4141   -3.4427 O   0  0  0  0  0  0  0  0  0  0  0  0
    3.4209   -1.5867   -2.7927 C   0  0  0  0  0  0  0  0  0  0  0  0
    3.0646   -2.6714   -3.2548 O   0  0  0  0  0  0  0  0  0  0  0  0
    4.1147   -1.4406   -1.4156 C   0  0  2  0  0  0  0  0  0  0  0  0
    5.5227   -0.8656   -1.7050 C   0  0  0  0  0  0  0  0  0  0  0  0
    4.1171   -2.7399   -0.5379 C   0  0  2  0  0  0  0  0  0  0  0  0
    2.7390   -3.2156   -0.0126 C   0  0  1  0  0  0  0  0  0  0  0  0
    1.9205   -3.9189   -0.9296 O   0  0  0  0  0  0  0  0  0  0  0  0
    3.0423   -4.1649    1.1571 C   0  0  0  0  0  0  0  0  0  0  0  0
    4.4540   -3.8101    1.7148 C   0  0  2  0  0  0  0  0  0  0  0  0
    5.3335   -5.0821    1.5497 C   0  0  0  0  0  0  0  0  0  0  0  0
    4.5398   -3.2381    3.2021 C   0  0  2  0  0  0  0  0  0  0  0  0
    3.2979   -3.3679    4.1293 C   0  0  0  0  0  0  0  0  0  0  0  0
    2.8679   -4.4924    4.5587 N   0  0  0  0  0  0  0  0  0  0  0  0
    3.5259   -5.7132    4.3837 N   0  0  0  0  0  0  0  0  0  0  0  0
    4.7742   -6.0178    4.7553 C   0  0  0  0  0  0  0  0  0  0  0  0
    5.0786   -7.2869    4.4977 N   0  0  0  0  0  0  0  0  0  0  0  0
    3.9122   -7.7775    3.9285 N   0  0  0  0  0  0  0  0  0  0  0  0
    2.9973   -6.8498    3.8669 N   0  0  0  0  0  0  0  0  0  0  0  0
    2.5752   -2.0586    4.6201 C   0  0  2  0  0  0  0  0  0  0  0  0
    1.6830   -2.2871    5.8691 C   0  0  0  0  0  0  0  0  0  0  0  0
    1.7422   -1.4302    3.4849 C   0  0  0  0  0  0  0  0  0  0  0  0
    0.8830   -1.8767    2.7419 O   0  0  0  0  0  0  0  0  0  0  0  0
    2.4163   -0.0404    3.6405 C   0  0  1  0  0  0  0  0  0  0  0  0
    1.4552    1.0015    4.1751 C   0  0  0  0  0  0  0  0  0  0  0  0
    1.5482    1.5502    5.2761 O   0  0  0  0  0  0  0  0  0  0  0  0
    0.3077    1.4005    3.2260 C   0  0  0  0  0  0  0  0  0  0  0  0
   -0.9558    1.9438    3.9508 C   0  0  2  0  0  0  0  0  0  0  0  0
   -1.7802    0.8388    4.3140 O   0  0  0  0  0  0  0  0  0  0  0  0
   -1.7431    2.8706    3.0479 C   0  0  2  0  0  0  0  0  0  0  0  0
   -1.4427    4.3524    2.9693 C   0  0  0  0  0  0  0  0  0  0  0  0
   -2.5568    3.8454    3.7138 O   0  0  0  0  0  0  0  0  0  0  0  0
    3.3971   -0.7358    4.6269 C   0  0  2  0  0  0  0  0  0  0  0  0
    4.8503   -0.8320    4.2401 C   0  0  1  0  0  0  0  0  0  0  0  0
    5.4924   -1.2510    5.4233 O   0  0  0  0  0  0  0  0  0  0  0  0
    5.1173   -1.8269    3.0788 C   0  0  2  0  0  0  0  0  0  0  0  0
    4.6653   -1.4090    1.6830 C   0  0  1  0  0  0  0  0  0  0  0  0
    5.4214   -0.2601    1.3820 O   0  0  0  0  0  0  0  0  0  0  0  0
    4.9351   -2.6445    0.7918 C   0  0  2  0  0  0  0  0  0  0  0  0
    6.3276   -2.7732    0.5425 O   0  0  0  0  0  0  0  0  0  0  0  0
    2.9179    0.6171   -5.1695 H   0  0  0  0  0  0  0  0  0  0  0  0
    1.8148   -0.7137   -4.7203 H   0  0  0  0  0  0  0  0  0  0  0  0
    3.4180   -1.0726   -5.3901 H   0  0  0  0  0  0  0  0  0  0  0  0
    3.5400   -0.7104   -0.8456 H   0  0  0  0  0  0  0  0  0  0  0  0
    5.4223    0.0131   -2.3533 H   0  0  0  0  0  0  0  0  0  0  0  0
    6.0602   -1.6060   -2.3208 H   0  0  0  0  0  0  0  0  0  0  0  0
    6.0760   -0.5877   -0.8129 H   0  0  0  0  0  0  0  0  0  0  0  0
    4.5472   -3.5559   -1.1187 H   0  0  0  0  0  0  0  0  0  0  0  0
    2.2110   -2.3491    0.3818 H   0  0  0  0  0  0  0  0  0  0  0  0
    2.4840   -4.4475   -1.4815 H   0  0  0  0  0  0  0  0  0  0  0  0
    2.2311   -4.1401    1.8827 H   0  0  0  0  0  0  0  0  0  0  0  0
    3.0435   -5.1972    0.7957 H   0  0  0  0  0  0  0  0  0  0  0  0
    6.3134   -4.9578    2.0161 H   0  0  0  0  0  0  0  0  0  0  0  0
    5.4887   -5.3459    0.5005 H   0  0  0  0  0  0  0  0  0  0  0  0
    4.8610   -5.9532    2.0008 H   0  0  0  0  0  0  0  0  0  0  0  0
    5.3152   -3.7749    3.7339 H   0  0  0  0  0  0  0  0  0  0  0  0
    5.4443   -5.3349    5.2891 H   0  0  0  0  0  0  0  0  0  0  0  0
    0.9388   -3.0756    5.7235 H   0  0  0  0  0  0  0  0  0  0  0  0
    1.1305   -1.3829    6.1623 H   0  0  0  0  0  0  0  0  0  0  0  0
    2.2894   -2.5689    6.7400 H   0  0  0  0  0  0  0  0  0  0  0  0
    2.9108    0.3227    2.7431 H   0  0  0  0  0  0  0  0  0  0  0  0
    0.7561    2.1823    2.6179 H   0  0  0  0  0  0  0  0  0  0  0  0
    0.0333    0.6010    2.5252 H   0  0  0  0  0  0  0  0  0  0  0  0
   -0.6874    2.5095    4.8488 H   0  0  0  0  0  0  0  0  0  0  0  0
   -2.4018    0.6843    3.6146 H   0  0  0  0  0  0  0  0  0  0  0  0
   -2.1706    2.4123    2.1580 H   0  0  0  0  0  0  0  0  0  0  0  0
   -0.6332    4.7599    3.5763 H   0  0  0  0  0  0  0  0  0  0  0  0
   -1.7379    4.9272    2.0834 H   0  0  0  0  0  0  0  0  0  0  0  0
    3.2828   -0.2594    5.6089 H   0  0  0  0  0  0  0  0  0  0  0  0
    5.2474    0.1422    3.9646 H   0  0  0  0  0  0  0  0  0  0  0  0
    5.2213   -2.1313    5.6306 H   0  0  0  0  0  0  0  0  0  0  0  0
    6.1971   -1.9675    3.0180 H   0  0  0  0  0  0  0  0  0  0  0  0
    3.5875   -1.2267    1.6413 H   0  0  0  0  0  0  0  0  0  0  0  0
    5.1870    0.0403    0.5189 H   0  0  0  0  0  0  0  0  0  0  0  0
    6.4593   -3.5968    0.0988 H   0  0  0  0  0  0  0  0  0  0  0  0
  1  2  1  0
  1 42  1  0
  1 43  1  0
  1 44  1  0
  2  3  1  0
  3  4  2  0
  3  5  1  0
  5  6  1  0
  5  7  1  0
  5 45  1  1
  6 46  1  0
  6 47  1  0
  6 48  1  0
  7 40  1  0
  7  8  1  0
  7 49  1  6
  8  9  1  0
  8 10  1  0
  8 50  1  1
  9 51  1  0
 10 11  1  0
 10 52  1  0
 10 53  1  0
 11 40  1  0
 11 12  1  1
 11 13  1  0
 12 54  1  0
 12 55  1  0
 12 56  1  0
 13 37  1  0
 13 14  1  0
 13 57  1  1
 14 15  2  3
 14 21  1  0
 15 16  1  0
 16 20  1  0
 16 17  1  0
 17 18  2  0
 17 58  1  0
 18 19  1  0
 19 20  2  0
 21 34  1  0
 21 22  1  1
 21 23  1  0
 22 59  1  0
 22 60  1  0
 22 61  1  0
 23 24  2  0
 23 25  1  0
 25 26  1  0
 25 34  1  0
 25 62  1  6
 26 27  2  0
 26 28  1  0
 28 29  1  0
 28 63  1  0
 28 64  1  0
 29 30  1  0
 29 31  1  0
 29 65  1  1
 30 66  1  0
 31 33  1  0
 31 32  1  0
 31 67  1  6
 32 33  1  0
 32 68  1  0
 32 69  1  0
 34 35  1  0
 34 70  1  1
 35 36  1  0
 35 37  1  0
 35 71  1  6
 36 72  1  0
 37 38  1  0
 37 73  1  6
 38 39  1  0
 38 40  1  0
 38 74  1  1
 39 75  1  0
 40 41  1  6
 41 76  1  0
M  END
>  <i_m_ct_stereo_status>  (304) 
1

>  <s_m_source_file>  (304) 
/var/tmp/pbs.5076255.sched01/tmpt25ahaql/1236iipj8y0.sdf

>  <i_m_source_file_index>  (304) 
7

>  <i_lp_mmshare_version>  (304) 
48012

>  <i_f3d_flags>  (304) 
0

>  <s_epik_input>  (304) 
W0NIM11PQyg9TylbQ0BIXShbQ0gzXSlbQ0BIXShbQ0BASF0oW09IXSlbQ0gyXTEpW0NAQF0yKFtPSF0pW0NASF0oW09IXSlbQ0BIXShbQ0BASF0zW0NAQF0xMltDSDNdKVtDQEhdKFtPSF0pW0NAQEhdNFtDQF0oW0NIM10pKENcMz1OL241W2NIXW5ubjUpQyg9TylbQ0BIXTRDKD1PKVtDSDJdW0NASF0oW09IXSlbQ0BASF02W0NIMl1PNg==

>  <s_epik_cmdline>  (304) 
J2VwaWtfcHl0aG9uJywgJy1waHQnLCAnMi4wJywgJy1waCcsICc3LjAnLCAnLXRuJywgJzgnLCAnLW1hJywgJzIwMCcsICctaW1hZScsICc8aW5maWxlLm1hZT4nLCAnLW9tYWUnLCAnPG91dGZpbGUubWFlPic=

>  <r_lp_tautomer_probability>  (304) 
1

>  <r_epik_Ionization_Penalty>  (304) 
1.21052

>  <r_epik_Ionization_Penalty_Charging>  (304) 
0

>  <r_epik_Ionization_Penalty_Neutral>  (304) 
1.21052

>  <r_epik_State_Penalty>  (304) 
1.27769

>  <r_epik_Charging_Adjusted_Penalty>  (304) 
1.27769

>  <i_epik_Tot_Q>  (304) 
0

>  <i_epik_Tot_abs_Q>  (304) 
0

>  <s_epik_Chemistry_Notes>  (304) 
This compound has an ester and may undergo hydrolysis at high or low pH. This compound has an imine and may undergo hydrolysis.

>  <s_lp_Force_Field>  (304) 
OPLS3e

>  <r_lp_Energy>  (304) 
47.5727

>  <b_lp_Chiralities_Consistent>  (304) 
1

>  <s_lp_Variant>  (304) 
90:0-4

>  <s_i_glide_gridfile>  (304) 
pfpi4k_grid

>  <i_i_glide_lignum>  (304) 
7

>  <i_i_glide_rotatable_bonds>  (304) 
13

>  <r_i_docking_score>  (304) 
-2.98574

>  <r_i_glide_ligand_efficiency>  (304) 
-0.0728229

>  <r_i_glide_ligand_efficiency_sa>  (304) 
-0.251109

>  <r_i_glide_ligand_efficiency_ln>  (304) 
-0.633435

>  <r_i_glide_gscore>  (304) 
-2.98574

>  <r_i_glide_lipo>  (304) 
-0.508436

>  <r_i_glide_hbond>  (304) 
0

>  <r_i_glide_metal>  (304) 
-0

>  <r_i_glide_rewards>  (304) 
0

>  <r_i_glide_evdw>  (304) 
-31.6566

>  <r_i_glide_ecoul>  (304) 
-7.14607

>  <r_i_glide_erotb>  (304) 
0.215872

>  <r_i_glide_esite>  (304) 
-0.0384366

>  <r_i_glide_emodel>  (304) 
-40.9991

>  <r_i_glide_energy>  (304) 
-38.8027

>  <r_i_glide_einternal>  (304) 
6.75509

>  <r_i_glide_intrahb_reward>  (304) 
-0

>  <i_i_glide_confnum>  (304) 
4

>  <i_i_glide_posenum>  (304) 
14

>  <r_i_glide_eff_state_penalty>  (304) 
0

>  <ligand_id>  (304) 
90

>  <original_smiles>  (304) 
COC(=O)C(C)C1C(O)CC2(C)C3C(=Nn4cnnn4)C4(C)C(=O)C(C(=O)CC(O)C5CO5)C4C(O)C3C(O)C12O

>  <smiles>  (304) 
[H]OC([H])(C([H])([H])C(=O)C1([H])C(=O)C2(C([H])([H])[H])C(=Nn3nnnc3[H])C3([H])C([H])(C([H])(O[H])C12[H])C([H])(O[H])C1(O[H])C([H])(C([H])(C(=O)OC([H])([H])[H])C([H])([H])[H])C([H])(O[H])C([H])([H])C31C([H])([H])[H])C1([H])OC1([H])[H]

$$$$
90:3:2
     RDKit          3D

 76 81  0  0  1  0  0  0  0  0999 V2000
   -0.5017    5.9982    2.8514 C   0  0  0  0  0  0  0  0  0  0  0  0
   -0.8379    4.7038    3.2995 O   0  0  0  0  0  0  0  0  0  0  0  0
   -0.1244    4.1596    4.2960 C   0  0  0  0  0  0  0  0  0  0  0  0
    0.7687    4.7616    4.9057 O   0  0  0  0  0  0  0  0  0  0  0  0
   -0.5272    2.7025    4.6195 C   0  0  2  0  0  0  0  0  0  0  0  0
   -2.0854    2.6102    4.5553 C   0  0  0  0  0  0  0  0  0  0  0  0
    0.0992    2.0983    5.9450 C   0  0  2  0  0  0  0  0  0  0  0  0
    1.6458    1.9477    5.9699 C   0  0  1  0  0  0  0  0  0  0  0  0
    2.3873    3.0980    6.2734 O   0  0  0  0  0  0  0  0  0  0  0  0
    1.9568    0.9719    7.1104 C   0  0  0  0  0  0  0  0  0  0  0  0
    0.7110    0.0728    7.3264 C   0  0  2  0  0  0  0  0  0  0  0  0
    0.2335    0.2920    8.7924 C   0  0  0  0  0  0  0  0  0  0  0  0
    0.8848   -1.4650    6.9756 C   0  0  2  0  0  0  0  0  0  0  0  0
    2.3188   -2.0505    6.7792 C   0  0  0  0  0  0  0  0  0  0  0  0
    3.1777   -2.1752    7.7359 N   0  0  0  0  0  0  0  0  0  0  0  0
    2.9107   -2.0332    9.0818 N   0  0  0  0  0  0  0  0  0  0  0  0
    3.8599   -1.6871    9.9814 C   0  0  0  0  0  0  0  0  0  0  0  0
    3.3995   -1.6165   11.2259 N   0  0  0  0  0  0  0  0  0  0  0  0
    2.0675   -2.0260   11.0852 N   0  0  0  0  0  0  0  0  0  0  0  0
    1.8043   -2.3172    9.8314 N   0  0  0  0  0  0  0  0  0  0  0  0
    2.7502   -2.5756    5.3622 C   0  0  2  0  0  0  0  0  0  0  0  0
    3.9362   -3.5634    5.4178 C   0  0  0  0  0  0  0  0  0  0  0  0
    3.0388   -1.4332    4.3714 C   0  0  0  0  0  0  0  0  0  0  0  0
    3.7749   -0.4503    4.3969 O   0  0  0  0  0  0  0  0  0  0  0  0
    2.0332   -1.9987    3.3283 C   0  0  1  0  0  0  0  0  0  0  0  0
    2.7187   -2.5138    2.0817 C   0  0  0  0  0  0  0  0  0  0  0  0
    2.6983   -3.6816    1.6918 O   0  0  0  0  0  0  0  0  0  0  0  0
    3.3895   -1.4388    1.2145 C   0  0  0  0  0  0  0  0  0  0  0  0
    4.5593   -1.9528    0.3536 C   0  0  2  0  0  0  0  0  0  0  0  0
    5.6688   -2.1996    1.2131 O   0  0  0  0  0  0  0  0  0  0  0  0
    4.9722   -0.9104   -0.6655 C   0  0  2  0  0  0  0  0  0  0  0  0
    4.2134   -0.7183   -1.9547 C   0  0  0  0  0  0  0  0  0  0  0  0
    5.4801   -1.3971   -1.9202 O   0  0  0  0  0  0  0  0  0  0  0  0
    1.5891   -3.0102    4.4173 C   0  0  2  0  0  0  0  0  0  0  0  0
    0.1620   -2.9476    4.9397 C   0  0  1  0  0  0  0  0  0  0  0  0
   -0.0505   -4.1157    5.7150 O   0  0  0  0  0  0  0  0  0  0  0  0
   -0.1135   -1.7325    5.8438 C   0  0  2  0  0  0  0  0  0  0  0  0
   -0.2544   -0.3880    5.1485 C   0  0  1  0  0  0  0  0  0  0  0  0
   -1.3808   -0.4739    4.3080 O   0  0  0  0  0  0  0  0  0  0  0  0
   -0.3303    0.6339    6.3029 C   0  0  2  0  0  0  0  0  0  0  0  0
   -1.6442    0.6040    6.8485 O   0  0  0  0  0  0  0  0  0  0  0  0
   -1.1773    6.2904    2.0464 H   0  0  0  0  0  0  0  0  0  0  0  0
    0.5254    6.0089    2.4776 H   0  0  0  0  0  0  0  0  0  0  0  0
   -0.5747    6.7144    3.6731 H   0  0  0  0  0  0  0  0  0  0  0  0
   -0.1102    2.1055    3.8095 H   0  0  0  0  0  0  0  0  0  0  0  0
   -2.4712    2.9730    3.6015 H   0  0  0  0  0  0  0  0  0  0  0  0
   -2.5341    3.1964    5.3589 H   0  0  0  0  0  0  0  0  0  0  0  0
   -2.5038    1.6104    4.6114 H   0  0  0  0  0  0  0  0  0  0  0  0
   -0.1956    2.7399    6.7829 H   0  0  0  0  0  0  0  0  0  0  0  0
    1.9990    1.5334    5.0174 H   0  0  0  0  0  0  0  0  0  0  0  0
    2.1719    3.7832    5.6407 H   0  0  0  0  0  0  0  0  0  0  0  0
    2.8920    0.4618    6.9015 H   0  0  0  0  0  0  0  0  0  0  0  0
    2.1655    1.5261    8.0312 H   0  0  0  0  0  0  0  0  0  0  0  0
   -0.5719   -0.3885    9.0728 H   0  0  0  0  0  0  0  0  0  0  0  0
   -0.1352    1.3108    8.9513 H   0  0  0  0  0  0  0  0  0  0  0  0
    1.0441    0.1610    9.5100 H   0  0  0  0  0  0  0  0  0  0  0  0
    0.4647   -2.0686    7.7708 H   0  0  0  0  0  0  0  0  0  0  0  0
    4.8805   -1.4842    9.7413 H   0  0  0  0  0  0  0  0  0  0  0  0
    4.8234   -3.1425    5.8956 H   0  0  0  0  0  0  0  0  0  0  0  0
    4.2388   -3.8940    4.4254 H   0  0  0  0  0  0  0  0  0  0  0  0
    3.6677   -4.4675    5.9675 H   0  0  0  0  0  0  0  0  0  0  0  0
    1.2204   -1.3208    3.0553 H   0  0  0  0  0  0  0  0  0  0  0  0
    2.6143   -1.0692    0.5563 H   0  0  0  0  0  0  0  0  0  0  0  0
    3.7040   -0.5850    1.8149 H   0  0  0  0  0  0  0  0  0  0  0  0
    4.2930   -2.8673   -0.1843 H   0  0  0  0  0  0  0  0  0  0  0  0
    5.9062   -1.3950    1.6466 H   0  0  0  0  0  0  0  0  0  0  0  0
    5.4972   -0.0549   -0.2547 H   0  0  0  0  0  0  0  0  0  0  0  0
    3.3556   -1.3606   -2.1573 H   0  0  0  0  0  0  0  0  0  0  0  0
    4.2345    0.2452   -2.4597 H   0  0  0  0  0  0  0  0  0  0  0  0
    1.8024   -4.0137    4.0626 H   0  0  0  0  0  0  0  0  0  0  0  0
   -0.5427   -2.9643    4.1061 H   0  0  0  0  0  0  0  0  0  0  0  0
   -0.9381   -4.1319    6.0262 H   0  0  0  0  0  0  0  0  0  0  0  0
   -1.0769   -1.9265    6.3180 H   0  0  0  0  0  0  0  0  0  0  0  0
    0.6243   -0.1423    4.5604 H   0  0  0  0  0  0  0  0  0  0  0  0
   -1.4810    0.3509    3.8558 H   0  0  0  0  0  0  0  0  0  0  0  0
   -2.1911    1.1468    6.3040 H   0  0  0  0  0  0  0  0  0  0  0  0
  1  2  1  0
  1 42  1  0
  1 43  1  0
  1 44  1  0
  2  3  1  0
  3  4  2  0
  3  5  1  0
  5  6  1  0
  5  7  1  0
  5 45  1  6
  6 46  1  0
  6 47  1  0
  6 48  1  0
  7 40  1  0
  7  8  1  0
  7 49  1  1
  8  9  1  0
  8 10  1  0
  8 50  1  6
  9 51  1  0
 10 11  1  0
 10 52  1  0
 10 53  1  0
 11 40  1  0
 11 12  1  1
 11 13  1  0
 12 54  1  0
 12 55  1  0
 12 56  1  0
 13 37  1  0
 13 14  1  0
 13 57  1  1
 14 15  2  3
 14 21  1  0
 15 16  1  0
 16 20  1  0
 16 17  1  0
 17 18  2  0
 17 58  1  0
 18 19  1  0
 19 20  2  0
 21 34  1  0
 21 22  1  1
 21 23  1  0
 22 59  1  0
 22 60  1  0
 22 61  1  0
 23 24  2  0
 23 25  1  0
 25 26  1  0
 25 34  1  0
 25 62  1  6
 26 27  2  0
 26 28  1  0
 28 29  1  0
 28 63  1  0
 28 64  1  0
 29 30  1  0
 29 31  1  0
 29 65  1  6
 30 66  1  0
 31 33  1  0
 31 32  1  0
 31 67  1  1
 32 33  1  0
 32 68  1  0
 32 69  1  0
 34 35  1  0
 34 70  1  6
 35 36  1  0
 35 37  1  0
 35 71  1  6
 36 72  1  0
 37 38  1  0
 37 73  1  1
 38 39  1  0
 38 40  1  0
 38 74  1  6
 39 75  1  0
 40 41  1  1
 41 76  1  0
M  END
>  <i_m_ct_stereo_status>  (305) 
1

>  <s_m_source_file>  (305) 
/var/tmp/pbs.5076255.sched01/tmpt25ahaql/1236iipj8y0.sdf

>  <i_m_source_file_index>  (305) 
7

>  <i_lp_mmshare_version>  (305) 
48012

>  <i_f3d_flags>  (305) 
0

>  <s_epik_input>  (305) 
W0NIM11PQyg9TylbQ0BIXShbQ0gzXSlbQ0BIXShbQ0BASF0oW09IXSlbQ0gyXTEpW0NAQF0yKFtPSF0pW0NASF0oW09IXSlbQ0BIXShbQ0BASF0zW0NAQF0xMltDSDNdKVtDQEhdKFtPSF0pW0NAQEhdNFtDQF0oW0NIM10pKENcMz1OL241W2NIXW5ubjUpQyg9TylbQ0BIXTRDKD1PKVtDSDJdW0NASF0oW09IXSlbQ0BASF02W0NIMl1PNg==

>  <s_epik_cmdline>  (305) 
J2VwaWtfcHl0aG9uJywgJy1waHQnLCAnMi4wJywgJy1waCcsICc3LjAnLCAnLXRuJywgJzgnLCAnLW1hJywgJzIwMCcsICctaW1hZScsICc8aW5maWxlLm1hZT4nLCAnLW9tYWUnLCAnPG91dGZpbGUubWFlPic=

>  <r_lp_tautomer_probability>  (305) 
1

>  <r_epik_Ionization_Penalty>  (305) 
1.21052

>  <r_epik_Ionization_Penalty_Charging>  (305) 
0

>  <r_epik_Ionization_Penalty_Neutral>  (305) 
1.21052

>  <r_epik_State_Penalty>  (305) 
1.27769

>  <r_epik_Charging_Adjusted_Penalty>  (305) 
1.27769

>  <i_epik_Tot_Q>  (305) 
0

>  <i_epik_Tot_abs_Q>  (305) 
0

>  <s_epik_Chemistry_Notes>  (305) 
This compound has an ester and may undergo hydrolysis at high or low pH. This compound has an imine and may undergo hydrolysis.

>  <s_lp_Force_Field>  (305) 
OPLS3e

>  <r_lp_Energy>  (305) 
47.5727

>  <b_lp_Chiralities_Consistent>  (305) 
1

>  <s_lp_Variant>  (305) 
90:0-4

>  <s_i_glide_gridfile>  (305) 
pfpi4k_grid

>  <i_i_glide_lignum>  (305) 
7

>  <i_i_glide_rotatable_bonds>  (305) 
13

>  <r_i_docking_score>  (305) 
-2.8192

>  <r_i_glide_ligand_efficiency>  (305) 
-0.068761

>  <r_i_glide_ligand_efficiency_sa>  (305) 
-0.237103

>  <r_i_glide_ligand_efficiency_ln>  (305) 
-0.598103

>  <r_i_glide_gscore>  (305) 
-2.8192

>  <r_i_glide_lipo>  (305) 
-0.0149642

>  <r_i_glide_hbond>  (305) 
-0.0348698

>  <r_i_glide_metal>  (305) 
-0

>  <r_i_glide_rewards>  (305) 
-0.5

>  <r_i_glide_evdw>  (305) 
-24.1516

>  <r_i_glide_ecoul>  (305) 
-8.07428

>  <r_i_glide_erotb>  (305) 
0.215872

>  <r_i_glide_esite>  (305) 
-0.0665149

>  <r_i_glide_emodel>  (305) 
-41.3678

>  <r_i_glide_energy>  (305) 
-32.2259

>  <r_i_glide_einternal>  (305) 
4.19193

>  <r_i_glide_intrahb_reward>  (305) 
-0.5

>  <i_i_glide_confnum>  (305) 
4

>  <i_i_glide_posenum>  (305) 
39

>  <r_i_glide_eff_state_penalty>  (305) 
0

>  <ligand_id>  (305) 
90

>  <original_smiles>  (305) 
COC(=O)C(C)C1C(O)CC2(C)C3C(=Nn4cnnn4)C4(C)C(=O)C(C(=O)CC(O)C5CO5)C4C(O)C3C(O)C12O

>  <smiles>  (305) 
[H]OC([H])(C([H])([H])C(=O)C1([H])C(=O)C2(C([H])([H])[H])C(=Nn3nnnc3[H])C3([H])C([H])(C([H])(O[H])C12[H])C([H])(O[H])C1(O[H])C([H])(C([H])(C(=O)OC([H])([H])[H])C([H])([H])[H])C([H])(O[H])C([H])([H])C31C([H])([H])[H])C1([H])OC1([H])[H]

$$$$
91:0:0
     RDKit          3D

 89 97  0  0  1  0  0  0  0  0999 V2000
    6.0073    1.5325    6.2683 C   0  0  0  0  0  0  0  0  0  0  0  0
    4.6300    1.1755    6.3118 O   0  0  0  0  0  0  0  0  0  0  0  0
    4.2636   -0.1721    5.9730 C   0  0  2  0  0  0  0  0  0  0  0  0
    5.3662   -1.2241    6.1865 C   0  0  0  0  0  0  0  0  0  0  0  0
    4.7295   -2.5907    5.9659 C   0  0  0  0  0  0  0  0  0  0  0  0
    3.2867   -2.5222    5.3391 C   0  0  1  0  0  0  0  0  0  0  0  0
    2.9342   -4.0816    5.1448 C   0  0  1  0  0  0  0  0  0  0  0  0
    2.1725   -4.7264    6.3464 C   0  0  0  0  0  0  0  0  0  0  0  0
    2.8714   -4.5717    7.5611 O   0  0  0  0  0  0  0  0  0  0  0  0
    2.3658   -4.4713    3.7337 C   0  0  1  0  0  0  0  0  0  0  0  0
    1.5196   -5.7511    3.6268 C   0  0  0  0  0  0  0  0  0  0  0  0
    0.2669   -5.6395    4.3001 O   0  0  0  0  0  0  0  0  0  0  0  0
   -0.6824   -6.6441    4.0614 C   0  0  2  0  0  0  0  0  0  0  0  0
   -0.2848   -8.0141    4.6304 C   0  0  0  0  0  0  0  0  0  0  0  0
   -0.9990   -8.9375    3.6642 C   0  0  0  0  0  0  0  0  0  0  0  0
   -0.8892   -8.1754    2.3496 C   0  0  0  0  0  0  0  0  0  0  0  0
   -1.0083   -6.8047    2.7106 O   0  0  0  0  0  0  0  0  0  0  0  0
    1.7159   -3.3252    2.9539 C   0  0  0  0  0  0  0  0  0  0  0  0
    1.9618   -1.9650    3.6000 C   0  0  1  0  0  0  0  0  0  0  0  0
    1.2081   -1.9817    4.8965 C   0  0  0  0  0  0  0  0  0  0  0  0
    2.0986   -1.6710    6.1981 C   0  0  1  0  0  0  0  0  0  0  0  0
    1.0903   -0.3530    6.1743 C   0  0  0  0  0  0  0  0  0  0  0  0
    1.3867    1.0284    5.4345 C   0  0  0  0  0  0  0  0  0  0  0  0
    1.6663    0.9881    3.9689 N   0  0  1  0  0  0  0  0  0  0  0  0
    1.0301    2.1162    3.2346 C   0  0  0  0  0  0  0  0  0  0  0  0
   -0.4883    2.0318    3.1068 C   0  0  0  0  0  0  0  0  0  0  0  0
   -1.3273    0.8500    3.5646 C   0  0  0  0  0  0  0  0  0  0  0  0
   -1.1132    1.0523    2.0966 C   0  0  0  0  0  0  0  0  0  0  0  0
    3.1126    0.8125    3.6331 C   0  0  2  0  0  0  0  0  0  0  0  0
    3.3565    0.4265    2.1140 C   0  0  0  0  0  0  0  0  0  0  0  0
    4.2452   -0.8375    1.8448 C   0  0  0  0  0  0  0  0  0  0  0  0
    5.0184   -0.9155    0.6649 C   0  0  0  0  0  0  0  0  0  0  0  0
    5.8284   -2.0558    0.4489 C   0  0  0  0  0  0  0  0  0  0  0  0
    5.8706   -3.0901    1.3875 C   0  0  0  0  0  0  0  0  0  0  0  0
    6.6725   -4.1761    1.1612 O   0  0  0  0  0  0  0  0  0  0  0  0
    5.1118   -3.0264    2.5721 C   0  0  0  0  0  0  0  0  0  0  0  0
    4.2831   -1.9025    2.7903 C   0  0  0  0  0  0  0  0  0  0  0  0
    3.3987   -1.6960    4.0196 C   0  0  2  0  0  0  0  0  0  0  0  0
    3.8420   -0.2605    4.4670 C   0  0  2  0  0  0  0  0  0  0  0  0
    3.1019   -0.6134    6.8753 C   0  0  1  0  0  0  0  0  0  0  0  0
    3.4678   -1.1981    8.1124 O   0  0  0  0  0  0  0  0  0  0  0  0
    6.1188    2.5747    6.5601 H   0  0  0  0  0  0  0  0  0  0  0  0
    6.4160    1.4067    5.2694 H   0  0  0  0  0  0  0  0  0  0  0  0
    6.6234    0.9634    6.9634 H   0  0  0  0  0  0  0  0  0  0  0  0
    6.1970   -1.0755    5.4999 H   0  0  0  0  0  0  0  0  0  0  0  0
    5.7858   -1.1814    7.1890 H   0  0  0  0  0  0  0  0  0  0  0  0
    5.4022   -3.1543    5.3289 H   0  0  0  0  0  0  0  0  0  0  0  0
    4.7158   -3.1264    6.9112 H   0  0  0  0  0  0  0  0  0  0  0  0
    3.8686   -4.6352    5.1382 H   0  0  0  0  0  0  0  0  0  0  0  0
    1.1538   -4.3653    6.4864 H   0  0  0  0  0  0  0  0  0  0  0  0
    2.0819   -5.7990    6.1925 H   0  0  0  0  0  0  0  0  0  0  0  0
    3.6666   -5.0787    7.5024 H   0  0  0  0  0  0  0  0  0  0  0  0
    3.2346   -4.7373    3.1341 H   0  0  0  0  0  0  0  0  0  0  0  0
    1.3432   -5.9185    2.5675 H   0  0  0  0  0  0  0  0  0  0  0  0
    2.1071   -6.5903    3.9899 H   0  0  0  0  0  0  0  0  0  0  0  0
   -1.6152   -6.3346    4.5191 H   0  0  0  0  0  0  0  0  0  0  0  0
    0.7885   -8.2135    4.6041 H   0  0  0  0  0  0  0  0  0  0  0  0
   -0.6252   -8.1060    5.6646 H   0  0  0  0  0  0  0  0  0  0  0  0
   -0.5445   -9.9284    3.6252 H   0  0  0  0  0  0  0  0  0  0  0  0
   -2.0505   -9.0446    3.9321 H   0  0  0  0  0  0  0  0  0  0  0  0
    0.0924   -8.3290    1.9037 H   0  0  0  0  0  0  0  0  0  0  0  0
   -1.6556   -8.4633    1.6265 H   0  0  0  0  0  0  0  0  0  0  0  0
    2.0775   -3.3274    1.9306 H   0  0  0  0  0  0  0  0  0  0  0  0
    0.6383   -3.4936    2.8987 H   0  0  0  0  0  0  0  0  0  0  0  0
    1.5538   -1.2515    2.8933 H   0  0  0  0  0  0  0  0  0  0  0  0
    0.2234   -1.6045    4.5973 H   0  0  0  0  0  0  0  0  0  0  0  0
    0.7686   -2.9498    5.0828 H   0  0  0  0  0  0  0  0  0  0  0  0
    0.0127   -0.5539    6.1434 H   0  0  0  0  0  0  0  0  0  0  0  0
    0.8918   -0.0801    7.2186 H   0  0  0  0  0  0  0  0  0  0  0  0
    0.4836    1.6071    5.5952 H   0  0  0  0  0  0  0  0  0  0  0  0
    2.1075    1.6679    5.9512 H   0  0  0  0  0  0  0  0  0  0  0  0
    1.2668    3.0647    3.7200 H   0  0  0  0  0  0  0  0  0  0  0  0
    1.3784    2.2270    2.2095 H   0  0  0  0  0  0  0  0  0  0  0  0
   -0.9716    3.0052    3.1485 H   0  0  0  0  0  0  0  0  0  0  0  0
   -0.8115    0.0162    4.0242 H   0  0  0  0  0  0  0  0  0  0  0  0
   -2.2973    1.0845    4.0004 H   0  0  0  0  0  0  0  0  0  0  0  0
   -2.0061    1.3348    1.5468 H   0  0  0  0  0  0  0  0  0  0  0  0
   -0.4376    0.3759    1.5773 H   0  0  0  0  0  0  0  0  0  0  0  0
    3.6097    1.7638    3.8303 H   0  0  0  0  0  0  0  0  0  0  0  0
    2.4165    0.2565    1.5927 H   0  0  0  0  0  0  0  0  0  0  0  0
    3.7687    1.2884    1.5971 H   0  0  0  0  0  0  0  0  0  0  0  0
    4.9889   -0.1168   -0.0627 H   0  0  0  0  0  0  0  0  0  0  0  0
    6.4256   -2.1227   -0.4482 H   0  0  0  0  0  0  0  0  0  0  0  0
    6.6212   -4.8376    1.8322 H   0  0  0  0  0  0  0  0  0  0  0  0
    5.1569   -3.8220    3.2877 H   0  0  0  0  0  0  0  0  0  0  0  0
    4.8582   -0.0819    4.1012 H   0  0  0  0  0  0  0  0  0  0  0  0
    2.7992    0.3199    7.3548 H   0  0  0  0  0  0  0  0  0  0  0  0
    3.8081   -2.0586    7.9269 H   0  0  0  0  0  0  0  0  0  0  0  0
    1.2087    0.1546    3.6216 H   0  0  0  0  0  0  0  0  0  0  0  0
  1  2  1  0
  1 42  1  0
  1 43  1  0
  1 44  1  0
  3  2  1  1
  3 39  1  0
  3 40  1  0
  3  4  1  0
  4  5  1  0
  4 45  1  0
  4 46  1  0
  6  5  1  1
  5 47  1  0
  5 48  1  0
  6 21  1  0
  6 38  1  0
  6  7  1  0
  7  8  1  0
  7 10  1  0
  7 49  1  6
  8  9  1  0
  8 50  1  0
  8 51  1  0
  9 52  1  0
 10 11  1  0
 10 18  1  0
 10 53  1  6
 11 12  1  0
 11 54  1  0
 11 55  1  0
 12 13  1  0
 13 17  1  0
 13 14  1  0
 13 56  1  1
 14 15  1  0
 14 57  1  0
 14 58  1  0
 15 16  1  0
 15 59  1  0
 15 60  1  0
 16 17  1  0
 16 61  1  0
 16 62  1  0
 18 19  1  0
 18 63  1  0
 18 64  1  0
 19 38  1  0
 19 20  1  0
 19 65  1  6
 21 20  1  1
 20 66  1  0
 20 67  1  0
 21 22  1  0
 21 40  1  0
 22 23  1  0
 22 68  1  0
 22 69  1  0
 23 24  1  0
 23 70  1  0
 23 71  1  0
 24 25  1  0
 24 29  1  0
 24 89  1  6
 25 26  1  0
 25 72  1  0
 25 73  1  0
 26 28  1  0
 26 27  1  0
 26 74  1  0
 27 28  1  0
 27 75  1  0
 27 76  1  0
 28 77  1  0
 28 78  1  0
 29 39  1  0
 29 30  1  0
 29 79  1  6
 30 31  1  0
 30 80  1  0
 30 81  1  0
 31 37  2  0
 31 32  1  0
 32 33  2  0
 32 82  1  0
 33 34  1  0
 33 83  1  0
 34 35  1  0
 34 36  2  0
 35 84  1  0
 36 37  1  0
 36 85  1  0
 38 37  1  6
 38 39  1  0
 39 86  1  6
 40 41  1  0
 40 87  1  1
 41 88  1  0
M  CHG  1  24   1
M  END
>  <i_m_ct_stereo_status>  (306) 
1

>  <s_m_source_file>  (306) 
/var/tmp/pbs.5076255.sched01/tmpt25ahaql/1236iipj8y0.sdf

>  <i_m_source_file_index>  (306) 
8

>  <i_lp_mmshare_version>  (306) 
48012

>  <i_f3d_flags>  (306) 
0

>  <s_epik_input>  (306) 
W0NIMl0xW0NIMl1bQ0hdMVtDSDJdTihbQ0gyXVtDSDJdMilbQ0BASF0oW0NASF0zW0NAXShPW0NIM10pKFtDSDJdW0NIMl00KVtDQEBIXTVbT0hdKVtDSDJdYyhbY0hdW2NIXWMoW09IXSlbY0hdNiljNltDQF0zN1tDQEhdKFtDSDJdQzI1W0NAXTQ3OClbQ0gyXVtDQEBIXShbQ0BASF04W0NIMl1bT0hdKVtDSDJdT1tDQEBIXTlbQ0gyXVtDSDJdW0NIMl1POQ==

>  <s_epik_cmdline>  (306) 
J2VwaWtfcHl0aG9uJywgJy1waHQnLCAnMi4wJywgJy1waCcsICc3LjAnLCAnLXRuJywgJzgnLCAnLW1hJywgJzIwMCcsICctaW1hZScsICc8aW5maWxlLm1hZT4nLCAnLW9tYWUnLCAnPG91dGZpbGUubWFlPic=

>  <r_lp_tautomer_probability>  (306) 
1

>  <r_epik_Ionization_Penalty>  (306) 
0.00579986

>  <r_epik_Ionization_Penalty_Charging>  (306) 
0.00523158

>  <r_epik_Ionization_Penalty_Neutral>  (306) 
0.000568275

>  <r_epik_State_Penalty>  (306) 
-0

>  <r_epik_Charging_Adjusted_Penalty>  (306) 
0.00523158

>  <i_epik_Tot_Q>  (306) 
1

>  <i_epik_Tot_abs_Q>  (306) 
1

>  <s_epik_Chemistry_Notes>  (306) 
This compound contains an acetal/aminal-like group ( X-CH(R)-Y where X, Y are N, S, or O) that may be acid/base labile, releasing an aldehyde.

>  <s_lp_Force_Field>  (306) 
OPLS3e

>  <r_lp_Energy>  (306) 
308.04

>  <b_lp_Chiralities_Consistent>  (306) 
1

>  <s_lp_Variant>  (306) 
91:0-1

>  <s_i_glide_gridfile>  (306) 
pfpi4k_grid

>  <i_i_glide_lignum>  (306) 
8

>  <i_i_glide_rotatable_bonds>  (306) 
10

>  <r_i_docking_score>  (306) 
-2.71884

>  <r_i_glide_ligand_efficiency>  (306) 
-0.0663133

>  <r_i_glide_ligand_efficiency_sa>  (306) 
-0.228663

>  <r_i_glide_ligand_efficiency_ln>  (306) 
-0.576812

>  <r_i_glide_gscore>  (306) 
-2.71884

>  <r_i_glide_lipo>  (306) 
-0.537382

>  <r_i_glide_hbond>  (306) 
-0.16

>  <r_i_glide_metal>  (306) 
-0

>  <r_i_glide_rewards>  (306) 
0

>  <r_i_glide_evdw>  (306) 
-26.2954

>  <r_i_glide_ecoul>  (306) 
-6.26362

>  <r_i_glide_erotb>  (306) 
0.302461

>  <r_i_glide_esite>  (306) 
-0.0696095

>  <r_i_glide_emodel>  (306) 
-32.9413

>  <r_i_glide_energy>  (306) 
-32.5591

>  <r_i_glide_einternal>  (306) 
12.3383

>  <r_i_glide_intrahb_reward>  (306) 
-0

>  <i_i_glide_confnum>  (306) 
8

>  <i_i_glide_posenum>  (306) 
21

>  <r_i_glide_eff_state_penalty>  (306) 
0

>  <ligand_id>  (306) 
91

>  <original_smiles>  (306) 
COC12CCC34C(CO)C(COC5CCCO5)CC5CC3(CCN(CC3CC3)C3Cc6ccc(O)cc6C54C31)C2O

>  <smiles>  (306) 
[H]Oc1c([H])c([H])c2c(c1[H])C13C4([H])C([H])([H])C([H])(C([H])([H])OC5([H])OC([H])([H])C([H])([H])C5([H])[H])C([H])(C([H])([H])O[H])C15C([H])([H])C([H])([H])C1(OC([H])([H])[H])C([H])(O[H])C5(C4([H])[H])C([H])([H])C([H])([H])[N+]([H])(C([H])([H])C4([H])C([H])([H])C4([H])[H])C([H])(C2([H])[H])C13[H]

$$$$
91:0:1
     RDKit          3D

 89 97  0  0  1  0  0  0  0  0999 V2000
    0.1420    1.1301    7.8363 C   0  0  0  0  0  0  0  0  0  0  0  0
   -0.2539    0.7286    6.5270 O   0  0  0  0  0  0  0  0  0  0  0  0
    0.6525   -0.0656    5.7386 C   0  0  2  0  0  0  0  0  0  0  0  0
    1.0844   -1.3634    6.4330 C   0  0  0  0  0  0  0  0  0  0  0  0
    1.8268   -2.2008    5.3754 C   0  0  0  0  0  0  0  0  0  0  0  0
    2.1738   -1.3949    4.0545 C   0  0  1  0  0  0  0  0  0  0  0  0
    3.0344   -2.4770    3.2103 C   0  0  1  0  0  0  0  0  0  0  0  0
    2.1545   -3.3568    2.2778 C   0  0  0  0  0  0  0  0  0  0  0  0
    2.7646   -4.6117    2.0292 O   0  0  0  0  0  0  0  0  0  0  0  0
    4.3834   -1.9540    2.5833 C   0  0  1  0  0  0  0  0  0  0  0  0
    4.9626   -2.6797    1.3433 C   0  0  0  0  0  0  0  0  0  0  0  0
    4.0784   -2.5946    0.2323 O   0  0  0  0  0  0  0  0  0  0  0  0
    4.6871   -2.3466   -0.9858 C   0  0  2  0  0  0  0  0  0  0  0  0
    3.6235   -2.3786   -2.0893 C   0  0  0  0  0  0  0  0  0  0  0  0
    4.4517   -2.7756   -3.2918 C   0  0  0  0  0  0  0  0  0  0  0  0
    5.4338   -3.7591   -2.6622 C   0  0  0  0  0  0  0  0  0  0  0  0
    5.6425   -3.2958   -1.3342 O   0  0  0  0  0  0  0  0  0  0  0  0
    4.4558   -0.4309    2.3951 C   0  0  0  0  0  0  0  0  0  0  0  0
    3.2831    0.3051    3.0474 C   0  0  1  0  0  0  0  0  0  0  0  0
    2.0364   -0.0296    2.2808 C   0  0  0  0  0  0  0  0  0  0  0  0
    0.8741   -0.7255    3.1764 C   0  0  1  0  0  0  0  0  0  0  0  0
    0.1123    0.6406    2.6600 C   0  0  0  0  0  0  0  0  0  0  0  0
    0.1846    2.0473    3.4098 C   0  0  0  0  0  0  0  0  0  0  0  0
    1.5186    2.6258    3.7546 N   0  0  1  0  0  0  0  0  0  0  0  0
    1.5702    4.0983    3.5355 C   0  0  0  0  0  0  0  0  0  0  0  0
    0.7237    4.9121    4.5074 C   0  0  0  0  0  0  0  0  0  0  0  0
   -0.7836    5.0199    4.3659 C   0  0  0  0  0  0  0  0  0  0  0  0
    0.0795    6.2040    4.0508 C   0  0  0  0  0  0  0  0  0  0  0  0
    2.0964    2.1991    5.0686 C   0  0  2  0  0  0  0  0  0  0  0  0
    3.6377    2.5451    5.2403 C   0  0  0  0  0  0  0  0  0  0  0  0
    4.5781    1.3699    5.6442 C   0  0  0  0  0  0  0  0  0  0  0  0
    5.7398    1.6290    6.3975 C   0  0  0  0  0  0  0  0  0  0  0  0
    6.5648    0.5582    6.8079 C   0  0  0  0  0  0  0  0  0  0  0  0
    6.2203   -0.7675    6.4869 C   0  0  0  0  0  0  0  0  0  0  0  0
    7.0068   -1.7957    6.8990 O   0  0  0  0  0  0  0  0  0  0  0  0
    5.0653   -1.0401    5.7342 C   0  0  0  0  0  0  0  0  0  0  0  0
    4.2542    0.0241    5.2888 C   0  0  0  0  0  0  0  0  0  0  0  0
    2.9632   -0.1221    4.4796 C   0  0  2  0  0  0  0  0  0  0  0  0
    1.9649    0.6965    5.3651 C   0  0  2  0  0  0  0  0  0  0  0  0
   -0.0855   -0.5142    4.4629 C   0  0  1  0  0  0  0  0  0  0  0  0
   -0.8491   -1.7074    4.5859 O   0  0  0  0  0  0  0  0  0  0  0  0
   -0.6617    1.7236    8.2744 H   0  0  0  0  0  0  0  0  0  0  0  0
    1.0288    1.7621    7.8324 H   0  0  0  0  0  0  0  0  0  0  0  0
    0.3169    0.2844    8.5010 H   0  0  0  0  0  0  0  0  0  0  0  0
    1.7310   -1.1688    7.2904 H   0  0  0  0  0  0  0  0  0  0  0  0
    0.2304   -1.9120    6.8378 H   0  0  0  0  0  0  0  0  0  0  0  0
    2.7262   -2.5687    5.8619 H   0  0  0  0  0  0  0  0  0  0  0  0
    1.2556   -3.0958    5.1310 H   0  0  0  0  0  0  0  0  0  0  0  0
    3.3956   -3.2048    3.9338 H   0  0  0  0  0  0  0  0  0  0  0  0
    1.2021   -3.5861    2.7516 H   0  0  0  0  0  0  0  0  0  0  0  0
    1.9183   -2.8743    1.3289 H   0  0  0  0  0  0  0  0  0  0  0  0
    3.5490   -4.4639    1.5200 H   0  0  0  0  0  0  0  0  0  0  0  0
    5.1315   -2.1618    3.3433 H   0  0  0  0  0  0  0  0  0  0  0  0
    5.9381   -2.2461    1.1124 H   0  0  0  0  0  0  0  0  0  0  0  0
    5.1613   -3.7296    1.5563 H   0  0  0  0  0  0  0  0  0  0  0  0
    5.1784   -1.3705   -0.9621 H   0  0  0  0  0  0  0  0  0  0  0  0
    2.8730   -3.1374   -1.8663 H   0  0  0  0  0  0  0  0  0  0  0  0
    3.1374   -1.4074   -2.1874 H   0  0  0  0  0  0  0  0  0  0  0  0
    3.8606   -3.2224   -4.0959 H   0  0  0  0  0  0  0  0  0  0  0  0
    4.9908   -1.9134   -3.6902 H   0  0  0  0  0  0  0  0  0  0  0  0
    5.0052   -4.7588   -2.6204 H   0  0  0  0  0  0  0  0  0  0  0  0
    6.3730   -3.8165   -3.2093 H   0  0  0  0  0  0  0  0  0  0  0  0
    5.3960   -0.0650    2.8102 H   0  0  0  0  0  0  0  0  0  0  0  0
    4.4940   -0.1800    1.3359 H   0  0  0  0  0  0  0  0  0  0  0  0
    3.5238    1.3569    2.9487 H   0  0  0  0  0  0  0  0  0  0  0  0
    1.9899    0.8436    1.6168 H   0  0  0  0  0  0  0  0  0  0  0  0
    2.2399   -0.7487    1.4874 H   0  0  0  0  0  0  0  0  0  0  0  0
    0.0831    0.8075    1.5738 H   0  0  0  0  0  0  0  0  0  0  0  0
   -0.9508    0.4219    2.5474 H   0  0  0  0  0  0  0  0  0  0  0  0
   -0.2879    2.7104    2.6866 H   0  0  0  0  0  0  0  0  0  0  0  0
   -0.4763    2.1117    4.2782 H   0  0  0  0  0  0  0  0  0  0  0  0
    2.5934    4.4678    3.6133 H   0  0  0  0  0  0  0  0  0  0  0  0
    1.2702    4.3373    2.5231 H   0  0  0  0  0  0  0  0  0  0  0  0
    1.1227    4.9525    5.5252 H   0  0  0  0  0  0  0  0  0  0  0  0
   -1.2724    4.5469    3.5176 H   0  0  0  0  0  0  0  0  0  0  0  0
   -1.3476    5.0165    5.2982 H   0  0  0  0  0  0  0  0  0  0  0  0
    0.0554    7.0437    4.7494 H   0  0  0  0  0  0  0  0  0  0  0  0
    0.1691    6.4812    3.0008 H   0  0  0  0  0  0  0  0  0  0  0  0
    1.5481    2.7222    5.8523 H   0  0  0  0  0  0  0  0  0  0  0  0
    4.0516    2.9560    4.3175 H   0  0  0  0  0  0  0  0  0  0  0  0
    3.7331    3.3427    5.9714 H   0  0  0  0  0  0  0  0  0  0  0  0
    6.0050    2.6412    6.6688 H   0  0  0  0  0  0  0  0  0  0  0  0
    7.4551    0.7699    7.3805 H   0  0  0  0  0  0  0  0  0  0  0  0
    7.7207   -1.5317    7.4568 H   0  0  0  0  0  0  0  0  0  0  0  0
    4.8212   -2.0613    5.5007 H   0  0  0  0  0  0  0  0  0  0  0  0
    2.3476    0.6888    6.3813 H   0  0  0  0  0  0  0  0  0  0  0  0
   -0.9874    0.0996    4.4725 H   0  0  0  0  0  0  0  0  0  0  0  0
   -0.2408   -2.4257    4.5637 H   0  0  0  0  0  0  0  0  0  0  0  0
    2.1366    2.2486    3.0433 H   0  0  0  0  0  0  0  0  0  0  0  0
  1  2  1  0
  1 42  1  0
  1 43  1  0
  1 44  1  0
  3  2  1  1
  3 39  1  0
  3 40  1  0
  3  4  1  0
  4  5  1  0
  4 45  1  0
  4 46  1  0
  6  5  1  1
  5 47  1  0
  5 48  1  0
  6 21  1  0
  6 38  1  0
  6  7  1  0
  7  8  1  0
  7 10  1  0
  7 49  1  1
  8  9  1  0
  8 50  1  0
  8 51  1  0
  9 52  1  0
 10 11  1  0
 10 18  1  0
 10 53  1  1
 11 12  1  0
 11 54  1  0
 11 55  1  0
 12 13  1  0
 13 17  1  0
 13 14  1  0
 13 56  1  1
 14 15  1  0
 14 57  1  0
 14 58  1  0
 15 16  1  0
 15 59  1  0
 15 60  1  0
 16 17  1  0
 16 61  1  0
 16 62  1  0
 18 19  1  0
 18 63  1  0
 18 64  1  0
 19 38  1  0
 19 20  1  0
 19 65  1  1
 21 20  1  6
 20 66  1  0
 20 67  1  0
 21 22  1  0
 21 40  1  0
 22 23  1  0
 22 68  1  0
 22 69  1  0
 23 24  1  0
 23 70  1  0
 23 71  1  0
 24 25  1  0
 24 29  1  0
 24 89  1  6
 25 26  1  0
 25 72  1  0
 25 73  1  0
 26 28  1  0
 26 27  1  0
 26 74  1  0
 27 28  1  0
 27 75  1  0
 27 76  1  0
 28 77  1  0
 28 78  1  0
 29 39  1  0
 29 30  1  0
 29 79  1  1
 30 31  1  0
 30 80  1  0
 30 81  1  0
 31 37  2  0
 31 32  1  0
 32 33  2  0
 32 82  1  0
 33 34  1  0
 33 83  1  0
 34 35  1  0
 34 36  2  0
 35 84  1  0
 36 37  1  0
 36 85  1  0
 38 37  1  1
 38 39  1  0
 39 86  1  1
 40 41  1  0
 40 87  1  6
 41 88  1  0
M  CHG  1  24   1
M  END
>  <i_m_ct_stereo_status>  (307) 
1

>  <s_m_source_file>  (307) 
/var/tmp/pbs.5076255.sched01/tmpt25ahaql/1236iipj8y0.sdf

>  <i_m_source_file_index>  (307) 
8

>  <i_lp_mmshare_version>  (307) 
48012

>  <i_f3d_flags>  (307) 
0

>  <s_epik_input>  (307) 
W0NIMl0xW0NIMl1bQ0hdMVtDSDJdTihbQ0gyXVtDSDJdMilbQ0BASF0oW0NASF0zW0NAXShPW0NIM10pKFtDSDJdW0NIMl00KVtDQEBIXTVbT0hdKVtDSDJdYyhbY0hdW2NIXWMoW09IXSlbY0hdNiljNltDQF0zN1tDQEhdKFtDSDJdQzI1W0NAXTQ3OClbQ0gyXVtDQEBIXShbQ0BASF04W0NIMl1bT0hdKVtDSDJdT1tDQEBIXTlbQ0gyXVtDSDJdW0NIMl1POQ==

>  <s_epik_cmdline>  (307) 
J2VwaWtfcHl0aG9uJywgJy1waHQnLCAnMi4wJywgJy1waCcsICc3LjAnLCAnLXRuJywgJzgnLCAnLW1hJywgJzIwMCcsICctaW1hZScsICc8aW5maWxlLm1hZT4nLCAnLW9tYWUnLCAnPG91dGZpbGUubWFlPic=

>  <r_lp_tautomer_probability>  (307) 
1

>  <r_epik_Ionization_Penalty>  (307) 
0.00579986

>  <r_epik_Ionization_Penalty_Charging>  (307) 
0.00523158

>  <r_epik_Ionization_Penalty_Neutral>  (307) 
0.000568275

>  <r_epik_State_Penalty>  (307) 
-0

>  <r_epik_Charging_Adjusted_Penalty>  (307) 
0.00523158

>  <i_epik_Tot_Q>  (307) 
1

>  <i_epik_Tot_abs_Q>  (307) 
1

>  <s_epik_Chemistry_Notes>  (307) 
This compound contains an acetal/aminal-like group ( X-CH(R)-Y where X, Y are N, S, or O) that may be acid/base labile, releasing an aldehyde.

>  <s_lp_Force_Field>  (307) 
OPLS3e

>  <r_lp_Energy>  (307) 
308.04

>  <b_lp_Chiralities_Consistent>  (307) 
1

>  <s_lp_Variant>  (307) 
91:0-1

>  <s_i_glide_gridfile>  (307) 
pfpi4k_grid

>  <i_i_glide_lignum>  (307) 
8

>  <i_i_glide_rotatable_bonds>  (307) 
10

>  <r_i_docking_score>  (307) 
-2.53758

>  <r_i_glide_ligand_efficiency>  (307) 
-0.0618921

>  <r_i_glide_ligand_efficiency_sa>  (307) 
-0.213417

>  <r_i_glide_ligand_efficiency_ln>  (307) 
-0.538355

>  <r_i_glide_gscore>  (307) 
-2.53758

>  <r_i_glide_lipo>  (307) 
-0.583518

>  <r_i_glide_hbond>  (307) 
0

>  <r_i_glide_metal>  (307) 
-0

>  <r_i_glide_rewards>  (307) 
0

>  <r_i_glide_evdw>  (307) 
-28.066

>  <r_i_glide_ecoul>  (307) 
-5.37155

>  <r_i_glide_erotb>  (307) 
0.302461

>  <r_i_glide_esite>  (307) 
-0.0474855

>  <r_i_glide_emodel>  (307) 
-38.1178

>  <r_i_glide_energy>  (307) 
-33.4376

>  <r_i_glide_einternal>  (307) 
4.20974

>  <r_i_glide_intrahb_reward>  (307) 
-0

>  <i_i_glide_confnum>  (307) 
10

>  <i_i_glide_posenum>  (307) 
34

>  <r_i_glide_eff_state_penalty>  (307) 
0

>  <ligand_id>  (307) 
91

>  <original_smiles>  (307) 
COC12CCC34C(CO)C(COC5CCCO5)CC5CC3(CCN(CC3CC3)C3Cc6ccc(O)cc6C54C31)C2O

>  <smiles>  (307) 
[H]Oc1c([H])c([H])c2c(c1[H])C13C4([H])C([H])([H])C([H])(C([H])([H])OC5([H])OC([H])([H])C([H])([H])C5([H])[H])C([H])(C([H])([H])O[H])C15C([H])([H])C([H])([H])C1(OC([H])([H])[H])C([H])(O[H])C5(C4([H])[H])C([H])([H])C([H])([H])[N+]([H])(C([H])([H])C4([H])C([H])([H])C4([H])[H])C([H])(C2([H])[H])C13[H]

$$$$
91:0:2
     RDKit          3D

 89 97  0  0  1  0  0  0  0  0999 V2000
   -0.0552    0.9014    8.2289 C   0  0  0  0  0  0  0  0  0  0  0  0
   -0.4497    0.4860    6.9181 O   0  0  0  0  0  0  0  0  0  0  0  0
    0.5081   -0.1711    6.0636 C   0  0  2  0  0  0  0  0  0  0  0  0
    1.1344   -1.4130    6.7074 C   0  0  0  0  0  0  0  0  0  0  0  0
    1.9268   -2.1167    5.5917 C   0  0  0  0  0  0  0  0  0  0  0  0
    2.1123   -1.2518    4.2662 C   0  0  1  0  0  0  0  0  0  0  0  0
    3.0513   -2.1933    3.3596 C   0  0  1  0  0  0  0  0  0  0  0  0
    2.2538   -3.1605    2.4337 C   0  0  0  0  0  0  0  0  0  0  0  0
    2.9774   -4.3340    2.0980 O   0  0  0  0  0  0  0  0  0  0  0  0
    4.2928   -1.4815    2.7004 C   0  0  1  0  0  0  0  0  0  0  0  0
    4.8957   -2.0867    1.4149 C   0  0  0  0  0  0  0  0  0  0  0  0
    3.9671   -2.0324    0.3345 O   0  0  0  0  0  0  0  0  0  0  0  0
    4.5144   -1.6951   -0.9034 C   0  0  2  0  0  0  0  0  0  0  0  0
    3.4200   -1.7604   -1.9650 C   0  0  0  0  0  0  0  0  0  0  0  0
    4.2243   -2.0591   -3.2124 C   0  0  0  0  0  0  0  0  0  0  0  0
    5.2920   -2.9978   -2.6654 C   0  0  0  0  0  0  0  0  0  0  0  0
    5.5289   -2.5687   -1.3237 O   0  0  0  0  0  0  0  0  0  0  0  0
    4.1709    0.0431    2.5570 C   0  0  0  0  0  0  0  0  0  0  0  0
    2.9496    0.6094    3.2806 C   0  0  1  0  0  0  0  0  0  0  0  0
    1.7219    0.1380    2.5600 C   0  0  0  0  0  0  0  0  0  0  0  0
    0.7015   -0.7389    3.4691 C   0  0  1  0  0  0  0  0  0  0  0  0
   -0.2494    0.5245    2.9794 C   0  0  0  0  0  0  0  0  0  0  0  0
   -0.3458    1.9121    3.7849 C   0  0  0  0  0  0  0  0  0  0  0  0
    0.9250    2.6420    4.1274 N   0  0  1  0  0  0  0  0  0  0  0  0
    0.7740    4.1338    3.9847 C   0  0  0  0  0  0  0  0  0  0  0  0
   -0.3571    4.7493    4.8384 C   0  0  0  0  0  0  0  0  0  0  0  0
   -0.2086    5.0093    6.3317 C   0  0  0  0  0  0  0  0  0  0  0  0
   -1.1961    3.9760    5.8531 C   0  0  0  0  0  0  0  0  0  0  0  0
    1.6435    2.2510    5.4051 C   0  0  2  0  0  0  0  0  0  0  0  0
    3.1270    2.8067    5.5079 C   0  0  0  0  0  0  0  0  0  0  0  0
    4.2280    1.7565    5.8508 C   0  0  0  0  0  0  0  0  0  0  0  0
    5.3827    2.1622    6.5683 C   0  0  0  0  0  0  0  0  0  0  0  0
    6.3468    1.1876    6.8976 C   0  0  0  0  0  0  0  0  0  0  0  0
    6.1619   -0.1474    6.5444 C   0  0  0  0  0  0  0  0  0  0  0  0
    7.0943   -1.0857    6.8857 O   0  0  0  0  0  0  0  0  0  0  0  0
    5.0139   -0.5686    5.8394 C   0  0  0  0  0  0  0  0  0  0  0  0
    4.0591    0.4014    5.4727 C   0  0  0  0  0  0  0  0  0  0  0  0
    2.7638    0.0938    4.7011 C   0  0  2  0  0  0  0  0  0  0  0  0
    1.7037    0.7460    5.6475 C   0  0  2  0  0  0  0  0  0  0  0  0
   -0.2139   -0.6799    4.8016 C   0  0  1  0  0  0  0  0  0  0  0  0
   -0.8246   -1.9533    4.9241 O   0  0  0  0  0  0  0  0  0  0  0  0
   -0.8976    1.3823    8.7260 H   0  0  0  0  0  0  0  0  0  0  0  0
    0.7451    1.6372    8.2180 H   0  0  0  0  0  0  0  0  0  0  0  0
    0.2537    0.0719    8.8639 H   0  0  0  0  0  0  0  0  0  0  0  0
    1.7838   -1.1543    7.5423 H   0  0  0  0  0  0  0  0  0  0  0  0
    0.3775   -2.0697    7.1286 H   0  0  0  0  0  0  0  0  0  0  0  0
    2.8859   -2.3743    6.0278 H   0  0  0  0  0  0  0  0  0  0  0  0
    1.4606   -3.0707    5.3477 H   0  0  0  0  0  0  0  0  0  0  0  0
    3.5398   -2.8747    4.0514 H   0  0  0  0  0  0  0  0  0  0  0  0
    1.3480   -3.5028    2.9257 H   0  0  0  0  0  0  0  0  0  0  0  0
    1.9266   -2.6756    1.5150 H   0  0  0  0  0  0  0  0  0  0  0  0
    3.3405   -4.7282    2.8731 H   0  0  0  0  0  0  0  0  0  0  0  0
    5.1030   -1.6107    3.4207 H   0  0  0  0  0  0  0  0  0  0  0  0
    5.8175   -1.5557    1.1722 H   0  0  0  0  0  0  0  0  0  0  0  0
    5.2043   -3.1161    1.5691 H   0  0  0  0  0  0  0  0  0  0  0  0
    4.9415   -0.6980   -0.8442 H   0  0  0  0  0  0  0  0  0  0  0  0
    2.7217   -2.5746   -1.7370 H   0  0  0  0  0  0  0  0  0  0  0  0
    2.8722   -0.8184   -2.0065 H   0  0  0  0  0  0  0  0  0  0  0  0
    3.6214   -2.5017   -4.0054 H   0  0  0  0  0  0  0  0  0  0  0  0
    4.6782   -1.1439   -3.5878 H   0  0  0  0  0  0  0  0  0  0  0  0
    4.9274   -4.0239   -2.6541 H   0  0  0  0  0  0  0  0  0  0  0  0
    6.2156   -2.9707   -3.2474 H   0  0  0  0  0  0  0  0  0  0  0  0
    5.0678    0.5145    2.9432 H   0  0  0  0  0  0  0  0  0  0  0  0
    4.1234    0.3375    1.5045 H   0  0  0  0  0  0  0  0  0  0  0  0
    3.0562    1.6875    3.2053 H   0  0  0  0  0  0  0  0  0  0  0  0
    1.5455    1.0196    1.9225 H   0  0  0  0  0  0  0  0  0  0  0  0
    1.9808   -0.5233    1.7387 H   0  0  0  0  0  0  0  0  0  0  0  0
   -0.3446    0.6813    1.8819 H   0  0  0  0  0  0  0  0  0  0  0  0
   -1.2782    0.1692    2.9377 H   0  0  0  0  0  0  0  0  0  0  0  0
   -0.9192    2.5508    3.0934 H   0  0  0  0  0  0  0  0  0  0  0  0
   -0.9813    1.8867    4.6476 H   0  0  0  0  0  0  0  0  0  0  0  0
    1.6998    4.6614    4.1736 H   0  0  0  0  0  0  0  0  0  0  0  0
    0.5636    4.3449    2.9424 H   0  0  0  0  0  0  0  0  0  0  0  0
   -0.7578    5.6192    4.2859 H   0  0  0  0  0  0  0  0  0  0  0  0
    0.6852    4.6140    6.8110 H   0  0  0  0  0  0  0  0  0  0  0  0
   -0.6521    5.9015    6.8187 H   0  0  0  0  0  0  0  0  0  0  0  0
   -2.2505    4.2135    5.7800 H   0  0  0  0  0  0  0  0  0  0  0  0
   -1.0214    2.9468    6.1378 H   0  0  0  0  0  0  0  0  0  0  0  0
    1.1015    2.6571    6.2619 H   0  0  0  0  0  0  0  0  0  0  0  0
    3.4424    3.3103    4.5902 H   0  0  0  0  0  0  0  0  0  0  0  0
    3.1341    3.5966    6.2622 H   0  0  0  0  0  0  0  0  0  0  0  0
    5.5192    3.1867    6.8577 H   0  0  0  0  0  0  0  0  0  0  0  0
    7.2214    1.4950    7.4444 H   0  0  0  0  0  0  0  0  0  0  0  0
    7.7950   -0.7427    7.4209 H   0  0  0  0  0  0  0  0  0  0  0  0
    4.8857   -1.5962    5.5856 H   0  0  0  0  0  0  0  0  0  0  0  0
    2.1325    0.7827    6.6494 H   0  0  0  0  0  0  0  0  0  0  0  0
   -1.1936   -0.2167    4.8419 H   0  0  0  0  0  0  0  0  0  0  0  0
   -0.1378   -2.5962    4.8719 H   0  0  0  0  0  0  0  0  0  0  0  0
    1.5860    2.4019    3.3704 H   0  0  0  0  0  0  0  0  0  0  0  0
  1  2  1  0
  1 42  1  0
  1 43  1  0
  1 44  1  0
  3  2  1  1
  3 39  1  0
  3 40  1  0
  3  4  1  0
  4  5  1  0
  4 45  1  0
  4 46  1  0
  6  5  1  1
  5 47  1  0
  5 48  1  0
  6 21  1  0
  6 38  1  0
  6  7  1  0
  7  8  1  0
  7 10  1  0
  7 49  1  1
  8  9  1  0
  8 50  1  0
  8 51  1  0
  9 52  1  0
 10 11  1  0
 10 18  1  0
 10 53  1  1
 11 12  1  0
 11 54  1  0
 11 55  1  0
 12 13  1  0
 13 17  1  0
 13 14  1  0
 13 56  1  1
 14 15  1  0
 14 57  1  0
 14 58  1  0
 15 16  1  0
 15 59  1  0
 15 60  1  0
 16 17  1  0
 16 61  1  0
 16 62  1  0
 18 19  1  0
 18 63  1  0
 18 64  1  0
 19 38  1  0
 19 20  1  0
 19 65  1  1
 21 20  1  6
 20 66  1  0
 20 67  1  0
 21 22  1  0
 21 40  1  0
 22 23  1  0
 22 68  1  0
 22 69  1  0
 23 24  1  0
 23 70  1  0
 23 71  1  0
 24 25  1  0
 24 29  1  0
 24 89  1  6
 25 26  1  0
 25 72  1  0
 25 73  1  0
 26 28  1  0
 26 27  1  0
 26 74  1  0
 27 28  1  0
 27 75  1  0
 27 76  1  0
 28 77  1  0
 28 78  1  0
 29 39  1  0
 29 30  1  0
 29 79  1  1
 30 31  1  0
 30 80  1  0
 30 81  1  0
 31 37  2  0
 31 32  1  0
 32 33  2  0
 32 82  1  0
 33 34  1  0
 33 83  1  0
 34 35  1  0
 34 36  2  0
 35 84  1  0
 36 37  1  0
 36 85  1  0
 38 37  1  1
 38 39  1  0
 39 86  1  1
 40 41  1  0
 40 87  1  6
 41 88  1  0
M  CHG  1  24   1
M  END
>  <i_m_ct_stereo_status>  (308) 
1

>  <s_m_source_file>  (308) 
/var/tmp/pbs.5076255.sched01/tmpt25ahaql/1236iipj8y0.sdf

>  <i_m_source_file_index>  (308) 
8

>  <i_lp_mmshare_version>  (308) 
48012

>  <i_f3d_flags>  (308) 
0

>  <s_epik_input>  (308) 
W0NIMl0xW0NIMl1bQ0hdMVtDSDJdTihbQ0gyXVtDSDJdMilbQ0BASF0oW0NASF0zW0NAXShPW0NIM10pKFtDSDJdW0NIMl00KVtDQEBIXTVbT0hdKVtDSDJdYyhbY0hdW2NIXWMoW09IXSlbY0hdNiljNltDQF0zN1tDQEhdKFtDSDJdQzI1W0NAXTQ3OClbQ0gyXVtDQEBIXShbQ0BASF04W0NIMl1bT0hdKVtDSDJdT1tDQEBIXTlbQ0gyXVtDSDJdW0NIMl1POQ==

>  <s_epik_cmdline>  (308) 
J2VwaWtfcHl0aG9uJywgJy1waHQnLCAnMi4wJywgJy1waCcsICc3LjAnLCAnLXRuJywgJzgnLCAnLW1hJywgJzIwMCcsICctaW1hZScsICc8aW5maWxlLm1hZT4nLCAnLW9tYWUnLCAnPG91dGZpbGUubWFlPic=

>  <r_lp_tautomer_probability>  (308) 
1

>  <r_epik_Ionization_Penalty>  (308) 
0.00579986

>  <r_epik_Ionization_Penalty_Charging>  (308) 
0.00523158

>  <r_epik_Ionization_Penalty_Neutral>  (308) 
0.000568275

>  <r_epik_State_Penalty>  (308) 
-0

>  <r_epik_Charging_Adjusted_Penalty>  (308) 
0.00523158

>  <i_epik_Tot_Q>  (308) 
1

>  <i_epik_Tot_abs_Q>  (308) 
1

>  <s_epik_Chemistry_Notes>  (308) 
This compound contains an acetal/aminal-like group ( X-CH(R)-Y where X, Y are N, S, or O) that may be acid/base labile, releasing an aldehyde.

>  <s_lp_Force_Field>  (308) 
OPLS3e

>  <r_lp_Energy>  (308) 
308.04

>  <b_lp_Chiralities_Consistent>  (308) 
1

>  <s_lp_Variant>  (308) 
91:0-1

>  <s_i_glide_gridfile>  (308) 
pfpi4k_grid

>  <i_i_glide_lignum>  (308) 
8

>  <i_i_glide_rotatable_bonds>  (308) 
10

>  <r_i_docking_score>  (308) 
-2.36656

>  <r_i_glide_ligand_efficiency>  (308) 
-0.0577209

>  <r_i_glide_ligand_efficiency_sa>  (308) 
-0.199034

>  <r_i_glide_ligand_efficiency_ln>  (308) 
-0.502073

>  <r_i_glide_gscore>  (308) 
-2.36656

>  <r_i_glide_lipo>  (308) 
-0.53241

>  <r_i_glide_hbond>  (308) 
0

>  <r_i_glide_metal>  (308) 
-0

>  <r_i_glide_rewards>  (308) 
0

>  <r_i_glide_evdw>  (308) 
-28.3487

>  <r_i_glide_ecoul>  (308) 
-4.38978

>  <r_i_glide_erotb>  (308) 
0.302461

>  <r_i_glide_esite>  (308) 
-0.0607036

>  <r_i_glide_emodel>  (308) 
-31.3379

>  <r_i_glide_energy>  (308) 
-32.7385

>  <r_i_glide_einternal>  (308) 
12.1736

>  <r_i_glide_intrahb_reward>  (308) 
-0

>  <i_i_glide_confnum>  (308) 
9

>  <i_i_glide_posenum>  (308) 
24

>  <r_i_glide_eff_state_penalty>  (308) 
0

>  <ligand_id>  (308) 
91

>  <original_smiles>  (308) 
COC12CCC34C(CO)C(COC5CCCO5)CC5CC3(CCN(CC3CC3)C3Cc6ccc(O)cc6C54C31)C2O

>  <smiles>  (308) 
[H]Oc1c([H])c([H])c2c(c1[H])C13C4([H])C([H])([H])C([H])(C([H])([H])OC5([H])OC([H])([H])C([H])([H])C5([H])[H])C([H])(C([H])([H])O[H])C15C([H])([H])C([H])([H])C1(OC([H])([H])[H])C([H])(O[H])C5(C4([H])[H])C([H])([H])C([H])([H])[N+]([H])(C([H])([H])C4([H])C([H])([H])C4([H])[H])C([H])(C2([H])[H])C13[H]

$$$$
92:0:0
     RDKit          3D

 55 59  0  0  1  0  0  0  0  0999 V2000
    3.2318   -0.7852   -3.7170 C   0  0  0  0  0  0  0  0  0  0  0  0
    3.7471   -1.6732   -2.8705 C   0  0  0  0  0  0  0  0  0  0  0  0
    4.8301   -1.4005   -1.8438 C   0  0  0  0  0  0  0  0  0  0  0  0
    5.0638   -2.7697   -1.1353 C   0  0  2  0  0  0  0  0  0  0  0  0
    4.7195   -3.7417   -2.2812 C   0  0  0  0  0  0  0  0  0  0  0  0
    3.4255   -3.1501   -2.8323 C   0  0  1  0  0  0  0  0  0  0  0  0
    2.2867   -3.4501   -1.8260 C   0  0  0  0  0  0  0  0  0  0  0  0
    2.6208   -2.9704   -0.4073 C   0  0  0  0  0  0  0  0  0  0  0  0
    4.0641   -2.9846    0.0605 C   0  0  2  0  0  0  0  0  0  0  0  0
    4.2055   -1.8235    1.0510 C   0  0  0  0  0  0  0  0  0  0  0  0
    5.0290   -1.8389    2.0919 C   0  0  0  0  0  0  0  0  0  0  0  0
    5.1855   -0.6867    3.0711 C   0  0  0  0  0  0  0  0  0  0  0  0
    5.8854   -3.0349    2.3416 C   0  0  0  0  0  0  0  0  0  0  0  0
    5.8162   -4.2514    1.3592 C   0  0  2  0  0  0  0  0  0  0  0  0
    6.7672   -3.8908    0.3190 O   0  0  0  0  0  0  0  0  0  0  0  0
    6.5424   -3.0002   -0.7091 C   0  0  0  0  0  0  0  0  0  0  0  0
    7.4488   -2.4689   -1.3488 O   0  0  0  0  0  0  0  0  0  0  0  0
    4.4414   -4.3160    0.7185 C   0  0  0  0  0  0  0  0  0  0  0  0
    3.7376   -5.4548    0.5532 C   0  0  0  0  0  0  0  0  0  0  0  0
    4.2963   -6.8259    0.8376 C   0  0  0  0  0  0  0  0  0  0  0  0
    5.8214   -6.7564    1.0610 C   0  0  0  0  0  0  0  0  0  0  0  0
    6.2839   -5.6461    2.0297 C   0  0  1  0  0  0  0  0  0  0  0  0
    7.8342   -5.7455    2.0994 C   0  0  0  0  0  0  0  0  0  0  0  0
    5.7431   -5.9785    3.4654 C   0  0  0  0  0  0  0  0  0  0  0  0
    5.8668   -5.2391    4.4368 O   0  0  0  0  0  0  0  0  0  0  0  0
    5.1850   -7.2137    3.5849 O   0  0  0  0  0  0  0  0  0  0  0  0
    4.4744   -7.5795    4.7425 C   0  0  0  0  0  0  0  0  0  0  0  0
    2.4727   -1.0785   -4.4340 H   0  0  0  0  0  0  0  0  0  0  0  0
    3.5235    0.2585   -3.7037 H   0  0  0  0  0  0  0  0  0  0  0  0
    5.7147   -1.0669   -2.3776 H   0  0  0  0  0  0  0  0  0  0  0  0
    4.5356   -0.5793   -1.1925 H   0  0  0  0  0  0  0  0  0  0  0  0
    5.4959   -3.7164   -3.0548 H   0  0  0  0  0  0  0  0  0  0  0  0
    4.6189   -4.7713   -1.9604 H   0  0  0  0  0  0  0  0  0  0  0  0
    3.1835   -3.5223   -3.8291 H   0  0  0  0  0  0  0  0  0  0  0  0
    1.3675   -2.9922   -2.1790 H   0  0  0  0  0  0  0  0  0  0  0  0
    2.0299   -4.5065   -1.7384 H   0  0  0  0  0  0  0  0  0  0  0  0
    2.4278   -1.9123   -0.4156 H   0  0  0  0  0  0  0  0  0  0  0  0
    1.9383   -3.3946    0.3312 H   0  0  0  0  0  0  0  0  0  0  0  0
    3.5928   -0.9438    0.9119 H   0  0  0  0  0  0  0  0  0  0  0  0
    4.9865   -1.0179    4.0927 H   0  0  0  0  0  0  0  0  0  0  0  0
    4.5009    0.1268    2.8419 H   0  0  0  0  0  0  0  0  0  0  0  0
    6.2036   -0.2947    3.0509 H   0  0  0  0  0  0  0  0  0  0  0  0
    6.8906   -2.6326    2.2026 H   0  0  0  0  0  0  0  0  0  0  0  0
    5.6775   -3.2370    3.3718 H   0  0  0  0  0  0  0  0  0  0  0  0
    2.7781   -5.4740    0.0721 H   0  0  0  0  0  0  0  0  0  0  0  0
    3.7162   -7.2505    1.6500 H   0  0  0  0  0  0  0  0  0  0  0  0
    4.1142   -7.4606   -0.0284 H   0  0  0  0  0  0  0  0  0  0  0  0
    6.1953   -7.7364    1.3592 H   0  0  0  0  0  0  0  0  0  0  0  0
    6.2975   -6.5414    0.0999 H   0  0  0  0  0  0  0  0  0  0  0  0
    8.2997   -5.6913    1.1140 H   0  0  0  0  0  0  0  0  0  0  0  0
    8.1629   -6.6779    2.5634 H   0  0  0  0  0  0  0  0  0  0  0  0
    8.2946   -4.9532    2.6733 H   0  0  0  0  0  0  0  0  0  0  0  0
    4.0052   -8.5533    4.5835 H   0  0  0  0  0  0  0  0  0  0  0  0
    3.6833   -6.8587    4.9654 H   0  0  0  0  0  0  0  0  0  0  0  0
    5.1545   -7.6424    5.5954 H   0  0  0  0  0  0  0  0  0  0  0  0
  1  2  2  0
  1 28  1  0
  1 29  1  0
  2  6  1  0
  2  3  1  0
  4  3  1  6
  3 30  1  0
  3 31  1  0
  4  9  1  0
  4 16  1  0
  4  5  1  0
  5  6  1  0
  5 32  1  0
  5 33  1  0
  6  7  1  0
  6 34  1  6
  7  8  1  0
  7 35  1  0
  7 36  1  0
  9  8  1  6
  8 37  1  0
  8 38  1  0
  9 18  1  0
  9 10  1  0
 10 11  2  0
 10 39  1  0
 11 12  1  0
 11 13  1  0
 12 40  1  0
 12 41  1  0
 12 42  1  0
 13 14  1  0
 13 43  1  0
 13 44  1  0
 14 22  1  0
 14 15  1  6
 14 18  1  0
 15 16  1  0
 16 17  2  0
 18 19  2  0
 19 20  1  0
 19 45  1  0
 20 21  1  0
 20 46  1  0
 20 47  1  0
 21 22  1  0
 21 48  1  0
 21 49  1  0
 22 23  1  1
 22 24  1  0
 23 50  1  0
 23 51  1  0
 23 52  1  0
 24 25  2  0
 24 26  1  0
 26 27  1  0
 27 53  1  0
 27 54  1  0
 27 55  1  0
M  END
>  <i_m_ct_stereo_status>  (309) 
1

>  <s_m_source_file>  (309) 
/var/tmp/pbs.5076255.sched01/tmpt25ahaql/1236iipj8y0.sdf

>  <i_m_source_file_index>  (309) 
9

>  <i_lp_mmshare_version>  (309) 
48012

>  <i_f3d_flags>  (309) 
0

>  <s_epik_input>  (309) 
W0NIMl09QyhbQ0gyXTEpW0NAQEhdKFtDSDJdMilbQ0gyXVtDSDJdW0NAXTMoW0NAXTEyNClDPTVbQ0BAXShPQzQ9TykoW0NIMl1DKD1bQ0hdMylbQ0gzXSlbQ0BdKFtDSDNdKShbQ0gyXVtDSDJdW0NIXTUpQyg9TylPW0NIM10=

>  <s_epik_cmdline>  (309) 
J2VwaWtfcHl0aG9uJywgJy1waHQnLCAnMi4wJywgJy1waCcsICc3LjAnLCAnLXRuJywgJzgnLCAnLW1hJywgJzIwMCcsICctaW1hZScsICc8aW5maWxlLm1hZT4nLCAnLW9tYWUnLCAnPG91dGZpbGUubWFlPic=

>  <r_lp_tautomer_probability>  (309) 
1

>  <r_epik_Ionization_Penalty>  (309) 
0

>  <r_epik_Ionization_Penalty_Charging>  (309) 
0

>  <r_epik_Ionization_Penalty_Neutral>  (309) 
0

>  <r_epik_State_Penalty>  (309) 
-0

>  <r_epik_Charging_Adjusted_Penalty>  (309) 
0

>  <i_epik_Tot_Q>  (309) 
0

>  <i_epik_Tot_abs_Q>  (309) 
0

>  <s_epik_Chemistry_Notes>  (309) 
This compound has an ester and may undergo hydrolysis at high or low pH.

>  <s_lp_Force_Field>  (309) 
OPLS3e

>  <r_lp_Energy>  (309) 
53.0783

>  <b_lp_Chiralities_Consistent>  (309) 
1

>  <s_lp_Variant>  (309) 
92:0-1

>  <s_i_glide_gridfile>  (309) 
pfpi4k_grid

>  <i_i_glide_lignum>  (309) 
9

>  <i_i_glide_rotatable_bonds>  (309) 
2

>  <r_i_docking_score>  (309) 
-3.33726

>  <r_i_glide_ligand_efficiency>  (309) 
-0.123602

>  <r_i_glide_ligand_efficiency_sa>  (309) 
-0.370807

>  <r_i_glide_ligand_efficiency_ln>  (309) 
-0.77686

>  <r_i_glide_gscore>  (309) 
-3.33726

>  <r_i_glide_lipo>  (309) 
-0.964689

>  <r_i_glide_hbond>  (309) 
-0.16

>  <r_i_glide_metal>  (309) 
-0

>  <r_i_glide_rewards>  (309) 
-0.951511

>  <r_i_glide_evdw>  (309) 
-19.6153

>  <r_i_glide_ecoul>  (309) 
-2.8149

>  <r_i_glide_erotb>  (309) 
0.141935

>  <r_i_glide_esite>  (309) 
0

>  <r_i_glide_emodel>  (309) 
-17.0006

>  <r_i_glide_energy>  (309) 
-22.4302

>  <r_i_glide_einternal>  (309) 
11.3588

>  <r_i_glide_intrahb_reward>  (309) 
-0

>  <i_i_glide_confnum>  (309) 
3

>  <i_i_glide_posenum>  (309) 
34

>  <r_i_glide_eff_state_penalty>  (309) 
0

>  <ligand_id>  (309) 
92

>  <original_smiles>  (309) 
C=C1CC23CC1CCC21C=C(C)CC2(OC3=O)C1=CCCC2(C)C(=O)OC

>  <smiles>  (309) 
[H]C([H])=C1C([H])([H])C23C(=O)OC45C(=C([H])C([H])([H])C([H])([H])C4(C(=O)OC([H])([H])[H])C([H])([H])[H])C2(C([H])=C(C([H])([H])[H])C5([H])[H])C([H])([H])C([H])([H])C1([H])C3([H])[H]

$$$$
92:0:1
     RDKit          3D

 55 59  0  0  1  0  0  0  0  0999 V2000
    4.1469   -0.4419   -4.4695 C   0  0  0  0  0  0  0  0  0  0  0  0
    4.3692   -1.3089   -3.5118 C   0  0  0  0  0  0  0  0  0  0  0  0
    4.9563   -0.9956   -2.1329 C   0  0  0  0  0  0  0  0  0  0  0  0
    4.9995   -2.3455   -1.3575 C   0  0  2  0  0  0  0  0  0  0  0  0
    5.2025   -3.3200   -2.5499 C   0  0  0  0  0  0  0  0  0  0  0  0
    4.2158   -2.8084   -3.5944 C   0  0  1  0  0  0  0  0  0  0  0  0
    2.8214   -3.1907   -3.1765 C   0  0  0  0  0  0  0  0  0  0  0  0
    2.5215   -2.6541   -1.7621 C   0  0  0  0  0  0  0  0  0  0  0  0
    3.6523   -2.5954   -0.6693 C   0  0  2  0  0  0  0  0  0  0  0  0
    3.3513   -1.4604    0.3149 C   0  0  0  0  0  0  0  0  0  0  0  0
    3.6878   -1.4377    1.6255 C   0  0  0  0  0  0  0  0  0  0  0  0
    3.3139   -0.2762    2.5205 C   0  0  0  0  0  0  0  0  0  0  0  0
    4.4457   -2.5820    2.2520 C   0  0  0  0  0  0  0  0  0  0  0  0
    4.8349   -3.7385    1.2740 C   0  0  2  0  0  0  0  0  0  0  0  0
    6.0890   -3.3104    0.6980 O   0  0  0  0  0  0  0  0  0  0  0  0
    6.2067   -2.4533   -0.3978 C   0  0  0  0  0  0  0  0  0  0  0  0
    7.2665   -1.8848   -0.6411 O   0  0  0  0  0  0  0  0  0  0  0  0
    3.7989   -3.8585    0.1530 C   0  0  0  0  0  0  0  0  0  0  0  0
    3.2485   -5.0306   -0.1784 C   0  0  0  0  0  0  0  0  0  0  0  0
    3.7519   -6.3650    0.2803 C   0  0  0  0  0  0  0  0  0  0  0  0
    5.0674   -6.2663    1.0282 C   0  0  0  0  0  0  0  0  0  0  0  0
    5.0313   -5.1260    2.0370 C   0  0  1  0  0  0  0  0  0  0  0  0
    6.3732   -5.1433    2.7461 C   0  0  0  0  0  0  0  0  0  0  0  0
    3.9152   -5.4493    3.1004 C   0  0  0  0  0  0  0  0  0  0  0  0
    4.1883   -5.9276    4.2055 O   0  0  0  0  0  0  0  0  0  0  0  0
    2.6637   -5.1698    2.6902 O   0  0  0  0  0  0  0  0  0  0  0  0
    1.5504   -5.5065    3.4953 C   0  0  0  0  0  0  0  0  0  0  0  0
    3.7881   -0.7613   -5.4531 H   0  0  0  0  0  0  0  0  0  0  0  0
    4.3611    0.6082   -4.3705 H   0  0  0  0  0  0  0  0  0  0  0  0
    5.9435   -0.6313   -2.3133 H   0  0  0  0  0  0  0  0  0  0  0  0
    4.4047   -0.1830   -1.6535 H   0  0  0  0  0  0  0  0  0  0  0  0
    6.2098   -3.2364   -2.9434 H   0  0  0  0  0  0  0  0  0  0  0  0
    5.0265   -4.3716   -2.2908 H   0  0  0  0  0  0  0  0  0  0  0  0
    4.4273   -3.1727   -4.6039 H   0  0  0  0  0  0  0  0  0  0  0  0
    2.0647   -2.7987   -3.8499 H   0  0  0  0  0  0  0  0  0  0  0  0
    2.6882   -4.2438   -3.2375 H   0  0  0  0  0  0  0  0  0  0  0  0
    2.2113   -1.6468   -2.0115 H   0  0  0  0  0  0  0  0  0  0  0  0
    1.6222   -3.0789   -1.3788 H   0  0  0  0  0  0  0  0  0  0  0  0
    2.7674   -0.6565   -0.0762 H   0  0  0  0  0  0  0  0  0  0  0  0
    2.7235   -0.6047    3.3772 H   0  0  0  0  0  0  0  0  0  0  0  0
    2.7394    0.4811    1.9877 H   0  0  0  0  0  0  0  0  0  0  0  0
    4.2192    0.1998    2.8939 H   0  0  0  0  0  0  0  0  0  0  0  0
    5.3530   -2.1682    2.6968 H   0  0  0  0  0  0  0  0  0  0  0  0
    3.8061   -2.9034    3.0738 H   0  0  0  0  0  0  0  0  0  0  0  0
    2.5014   -5.0541   -0.9526 H   0  0  0  0  0  0  0  0  0  0  0  0
    2.9749   -6.8714    0.8480 H   0  0  0  0  0  0  0  0  0  0  0  0
    3.9657   -6.9498   -0.6036 H   0  0  0  0  0  0  0  0  0  0  0  0
    5.2727   -7.2221    1.5075 H   0  0  0  0  0  0  0  0  0  0  0  0
    5.8644   -6.0952    0.2973 H   0  0  0  0  0  0  0  0  0  0  0  0
    7.2203   -4.9996    2.0671 H   0  0  0  0  0  0  0  0  0  0  0  0
    6.5617   -6.0540    3.3154 H   0  0  0  0  0  0  0  0  0  0  0  0
    6.2853   -4.3229    3.4453 H   0  0  0  0  0  0  0  0  0  0  0  0
    0.6372   -5.2339    2.9693 H   0  0  0  0  0  0  0  0  0  0  0  0
    1.5882   -4.9534    4.4325 H   0  0  0  0  0  0  0  0  0  0  0  0
    1.5127   -6.5775    3.7032 H   0  0  0  0  0  0  0  0  0  0  0  0
  1  2  2  0
  1 28  1  0
  1 29  1  0
  2  6  1  0
  2  3  1  0
  4  3  1  6
  3 30  1  0
  3 31  1  0
  4  9  1  0
  4 16  1  0
  4  5  1  0
  5  6  1  0
  5 32  1  0
  5 33  1  0
  6  7  1  0
  6 34  1  6
  7  8  1  0
  7 35  1  0
  7 36  1  0
  9  8  1  6
  8 37  1  0
  8 38  1  0
  9 18  1  0
  9 10  1  0
 10 11  2  0
 10 39  1  0
 11 12  1  0
 11 13  1  0
 12 40  1  0
 12 41  1  0
 12 42  1  0
 13 14  1  0
 13 43  1  0
 13 44  1  0
 14 22  1  0
 14 15  1  6
 14 18  1  0
 15 16  1  0
 16 17  2  0
 18 19  2  0
 19 20  1  0
 19 45  1  0
 20 21  1  0
 20 46  1  0
 20 47  1  0
 21 22  1  0
 21 48  1  0
 21 49  1  0
 22 23  1  1
 22 24  1  0
 23 50  1  0
 23 51  1  0
 23 52  1  0
 24 25  2  0
 24 26  1  0
 26 27  1  0
 27 53  1  0
 27 54  1  0
 27 55  1  0
M  END
>  <i_m_ct_stereo_status>  (310) 
1

>  <s_m_source_file>  (310) 
/var/tmp/pbs.5076255.sched01/tmpt25ahaql/1236iipj8y0.sdf

>  <i_m_source_file_index>  (310) 
9

>  <i_lp_mmshare_version>  (310) 
48012

>  <i_f3d_flags>  (310) 
0

>  <s_epik_input>  (310) 
W0NIMl09QyhbQ0gyXTEpW0NAQEhdKFtDSDJdMilbQ0gyXVtDSDJdW0NAXTMoW0NAXTEyNClDPTVbQ0BAXShPQzQ9TykoW0NIMl1DKD1bQ0hdMylbQ0gzXSlbQ0BdKFtDSDNdKShbQ0gyXVtDSDJdW0NIXTUpQyg9TylPW0NIM10=

>  <s_epik_cmdline>  (310) 
J2VwaWtfcHl0aG9uJywgJy1waHQnLCAnMi4wJywgJy1waCcsICc3LjAnLCAnLXRuJywgJzgnLCAnLW1hJywgJzIwMCcsICctaW1hZScsICc8aW5maWxlLm1hZT4nLCAnLW9tYWUnLCAnPG91dGZpbGUubWFlPic=

>  <r_lp_tautomer_probability>  (310) 
1

>  <r_epik_Ionization_Penalty>  (310) 
0

>  <r_epik_Ionization_Penalty_Charging>  (310) 
0

>  <r_epik_Ionization_Penalty_Neutral>  (310) 
0

>  <r_epik_State_Penalty>  (310) 
-0

>  <r_epik_Charging_Adjusted_Penalty>  (310) 
0

>  <i_epik_Tot_Q>  (310) 
0

>  <i_epik_Tot_abs_Q>  (310) 
0

>  <s_epik_Chemistry_Notes>  (310) 
This compound has an ester and may undergo hydrolysis at high or low pH.

>  <s_lp_Force_Field>  (310) 
OPLS3e

>  <r_lp_Energy>  (310) 
53.0783

>  <b_lp_Chiralities_Consistent>  (310) 
1

>  <s_lp_Variant>  (310) 
92:0-1

>  <s_i_glide_gridfile>  (310) 
pfpi4k_grid

>  <i_i_glide_lignum>  (310) 
9

>  <i_i_glide_rotatable_bonds>  (310) 
2

>  <r_i_docking_score>  (310) 
-3.27368

>  <r_i_glide_ligand_efficiency>  (310) 
-0.121247

>  <r_i_glide_ligand_efficiency_sa>  (310) 
-0.363742

>  <r_i_glide_ligand_efficiency_ln>  (310) 
-0.762058

>  <r_i_glide_gscore>  (310) 
-3.27368

>  <r_i_glide_lipo>  (310) 
-1.18701

>  <r_i_glide_hbond>  (310) 
-0.16

>  <r_i_glide_metal>  (310) 
-0

>  <r_i_glide_rewards>  (310) 
-0.896823

>  <r_i_glide_evdw>  (310) 
-13.1091

>  <r_i_glide_ecoul>  (310) 
-3.35994

>  <r_i_glide_erotb>  (310) 
0.141935

>  <r_i_glide_esite>  (310) 
-0.012331

>  <r_i_glide_emodel>  (310) 
-16.4929

>  <r_i_glide_energy>  (310) 
-16.469

>  <r_i_glide_einternal>  (310) 
0.177922

>  <r_i_glide_intrahb_reward>  (310) 
-0

>  <i_i_glide_confnum>  (310) 
3

>  <i_i_glide_posenum>  (310) 
27

>  <r_i_glide_eff_state_penalty>  (310) 
0

>  <ligand_id>  (310) 
92

>  <original_smiles>  (310) 
C=C1CC23CC1CCC21C=C(C)CC2(OC3=O)C1=CCCC2(C)C(=O)OC

>  <smiles>  (310) 
[H]C([H])=C1C([H])([H])C23C(=O)OC45C(=C([H])C([H])([H])C([H])([H])C4(C(=O)OC([H])([H])[H])C([H])([H])[H])C2(C([H])=C(C([H])([H])[H])C5([H])[H])C([H])([H])C([H])([H])C1([H])C3([H])[H]

$$$$
93:0:0
     RDKit          3D

 57 60  0  0  1  0  0  0  0  0999 V2000
    4.1213   -5.0458    4.4021 C   0  0  0  0  0  0  0  0  0  0  0  0
    4.2121   -3.7948    3.5052 C   0  0  0  0  0  0  0  0  0  0  0  0
    2.7638   -3.3304    3.2342 C   0  0  0  0  0  0  0  0  0  0  0  0
    4.8917   -2.6929    4.3298 C   0  0  0  0  0  0  0  0  0  0  0  0
    5.0084   -1.3991    3.5246 C   0  0  0  0  0  0  0  0  0  0  0  0
    5.8473   -1.5566    2.2471 C   0  0  0  0  0  0  0  0  0  0  0  0
    5.6366   -2.8661    1.3942 C   0  0  1  0  0  0  0  0  0  0  0  0
    7.0529   -3.2473    0.8559 C   0  0  0  0  0  0  0  0  0  0  0  0
    5.1248   -4.0815    2.2502 C   0  0  2  0  0  0  0  0  0  0  0  0
    4.7227   -5.2845    1.3539 C   0  0  0  0  0  0  0  0  0  0  0  0
    3.7396   -4.9986    0.2189 C   0  0  1  0  0  0  0  0  0  0  0  0
    2.4412   -4.8776    0.7564 O   0  0  0  0  0  0  0  0  0  0  0  0
    4.1153   -3.7703   -0.6473 C   0  0  1  0  0  0  0  0  0  0  0  0
    2.9024   -3.3288   -1.5346 C   0  0  0  0  0  0  0  0  0  0  0  0
    3.4527   -2.9951   -2.9345 C   0  0  1  0  0  0  0  0  0  0  0  0
    2.8737   -1.7242   -3.5786 C   0  0  0  0  0  0  0  0  0  0  0  0
    3.6174   -1.3198   -4.7120 O   0  0  0  0  0  0  0  0  0  0  0  0
    4.9611   -3.0335   -2.7489 C   0  0  1  0  0  0  0  0  0  0  0  0
    5.5883   -1.7713   -2.1639 C   0  0  0  0  0  0  0  0  0  0  0  0
    5.2315   -1.4482   -0.7025 C   0  0  1  0  0  0  0  0  0  0  0  0
    4.2758   -0.4597   -0.7145 O   0  0  0  0  0  0  0  0  0  0  0  0
    4.6583   -2.5655    0.2108 C   0  0  2  0  0  0  0  0  0  0  0  0
    5.1456   -4.1319   -1.7352 C   0  0  0  0  0  0  0  0  0  0  0  0
    3.6309   -4.7956    5.3432 H   0  0  0  0  0  0  0  0  0  0  0  0
    5.1112   -5.4517    4.6275 H   0  0  0  0  0  0  0  0  0  0  0  0
    3.5251   -5.8256    3.9272 H   0  0  0  0  0  0  0  0  0  0  0  0
    2.7055   -2.6243    2.4056 H   0  0  0  0  0  0  0  0  0  0  0  0
    2.3774   -2.8204    4.1197 H   0  0  0  0  0  0  0  0  0  0  0  0
    2.0947   -4.1725    3.0609 H   0  0  0  0  0  0  0  0  0  0  0  0
    4.3528   -2.5145    5.2640 H   0  0  0  0  0  0  0  0  0  0  0  0
    5.8878   -3.0161    4.6271 H   0  0  0  0  0  0  0  0  0  0  0  0
    4.0242   -0.9907    3.2867 H   0  0  0  0  0  0  0  0  0  0  0  0
    5.4894   -0.6498    4.1458 H   0  0  0  0  0  0  0  0  0  0  0  0
    5.6241   -0.6532    1.6766 H   0  0  0  0  0  0  0  0  0  0  0  0
    6.9131   -1.4216    2.4325 H   0  0  0  0  0  0  0  0  0  0  0  0
    7.0953   -4.1944    0.3330 H   0  0  0  0  0  0  0  0  0  0  0  0
    7.7477   -3.3895    1.6747 H   0  0  0  0  0  0  0  0  0  0  0  0
    7.4869   -2.5007    0.1926 H   0  0  0  0  0  0  0  0  0  0  0  0
    6.0353   -4.4536    2.7228 H   0  0  0  0  0  0  0  0  0  0  0  0
    5.6253   -5.6725    0.8848 H   0  0  0  0  0  0  0  0  0  0  0  0
    4.3431   -6.1126    1.9462 H   0  0  0  0  0  0  0  0  0  0  0  0
    3.7207   -5.8939   -0.4017 H   0  0  0  0  0  0  0  0  0  0  0  0
    2.4482   -4.1190    1.3150 H   0  0  0  0  0  0  0  0  0  0  0  0
    2.1501   -4.1161   -1.6471 H   0  0  0  0  0  0  0  0  0  0  0  0
    2.3970   -2.4755   -1.0847 H   0  0  0  0  0  0  0  0  0  0  0  0
    3.2075   -3.8248   -3.6035 H   0  0  0  0  0  0  0  0  0  0  0  0
    1.8680   -1.9496   -3.9211 H   0  0  0  0  0  0  0  0  0  0  0  0
    2.7974   -0.8923   -2.8785 H   0  0  0  0  0  0  0  0  0  0  0  0
    3.0798   -0.7173   -5.2094 H   0  0  0  0  0  0  0  0  0  0  0  0
    5.4389   -3.3007   -3.6892 H   0  0  0  0  0  0  0  0  0  0  0  0
    6.6613   -1.9126   -2.2653 H   0  0  0  0  0  0  0  0  0  0  0  0
    5.3572   -0.9073   -2.7766 H   0  0  0  0  0  0  0  0  0  0  0  0
    6.1228   -0.9762   -0.2942 H   0  0  0  0  0  0  0  0  0  0  0  0
    4.7170    0.3239   -1.0219 H   0  0  0  0  0  0  0  0  0  0  0  0
    3.7834   -2.1258    0.6875 H   0  0  0  0  0  0  0  0  0  0  0  0
    6.1738   -4.1416   -1.4153 H   0  0  0  0  0  0  0  0  0  0  0  0
    4.9507   -5.0879   -2.2109 H   0  0  0  0  0  0  0  0  0  0  0  0
  1  2  1  0
  1 24  1  0
  1 25  1  0
  1 26  1  0
  2  9  1  0
  2  3  1  0
  2  4  1  0
  3 27  1  0
  3 28  1  0
  3 29  1  0
  4  5  1  0
  4 30  1  0
  4 31  1  0
  5  6  1  0
  5 32  1  0
  5 33  1  0
  6  7  1  0
  6 34  1  0
  6 35  1  0
  7 22  1  0
  7  8  1  6
  7  9  1  0
  8 36  1  0
  8 37  1  0
  8 38  1  0
  9 10  1  0
  9 39  1  1
 10 11  1  0
 10 40  1  0
 10 41  1  0
 11 12  1  0
 11 13  1  0
 11 42  1  6
 12 43  1  0
 13 22  1  0
 13 23  1  0
 13 14  1  6
 14 15  1  0
 14 44  1  0
 14 45  1  0
 15 16  1  0
 15 18  1  0
 15 46  1  6
 16 17  1  0
 16 47  1  0
 16 48  1  0
 17 49  1  0
 18 19  1  0
 18 23  1  0
 18 50  1  6
 19 20  1  0
 19 51  1  0
 19 52  1  0
 20 21  1  0
 20 22  1  0
 20 53  1  1
 21 54  1  0
 22 55  1  1
 23 56  1  0
 23 57  1  0
M  END
>  <i_m_ct_stereo_status>  (311) 
1

>  <s_m_source_file>  (311) 
/var/tmp/pbs.5076255.sched01/tmpt25ahaql/1236iipj8y0.sdf

>  <i_m_source_file_index>  (311) 
10

>  <i_lp_mmshare_version>  (311) 
48012

>  <i_f3d_flags>  (311) 
0

>  <s_epik_input>  (311) 
W0NIMl0xW0NIMl1bQ0gyXUMoW0NIM10pKFtDSDNdKVtDQEBIXShbQ0gyXVtDQEhdMltPSF0pW0NAQF0xKFtDSDNdKVtDQEhdKFtDQEBdMjM0KVtDQEhdKFtPSF0pW0NIMl1bQ0BASF0oW0NIMl00KVtDQEBIXShbQ0gyXTMpW0NIMl1bT0hd

>  <s_epik_cmdline>  (311) 
J2VwaWtfcHl0aG9uJywgJy1waHQnLCAnMi4wJywgJy1waCcsICc3LjAnLCAnLXRuJywgJzgnLCAnLW1hJywgJzIwMCcsICctaW1hZScsICc8aW5maWxlLm1hZT4nLCAnLW9tYWUnLCAnPG91dGZpbGUubWFlPic=

>  <r_lp_tautomer_probability>  (311) 
1

>  <r_epik_Ionization_Penalty>  (311) 
5.86058e-06

>  <r_epik_Ionization_Penalty_Charging>  (311) 
0

>  <r_epik_Ionization_Penalty_Neutral>  (311) 
5.86058e-06

>  <r_epik_State_Penalty>  (311) 
-0

>  <r_epik_Charging_Adjusted_Penalty>  (311) 
0

>  <i_epik_Tot_Q>  (311) 
0

>  <i_epik_Tot_abs_Q>  (311) 
0

>  <s_lp_Force_Field>  (311) 
OPLS3e

>  <r_lp_Energy>  (311) 
68.9679

>  <b_lp_Chiralities_Consistent>  (311) 
1

>  <s_lp_Variant>  (311) 
93:0-1

>  <s_i_glide_gridfile>  (311) 
pfpi4k_grid

>  <i_i_glide_lignum>  (311) 
10

>  <i_i_glide_rotatable_bonds>  (311) 
4

>  <r_i_docking_score>  (311) 
-4.27658

>  <r_i_glide_ligand_efficiency>  (311) 
-0.185938

>  <r_i_glide_ligand_efficiency_sa>  (311) 
-0.528784

>  <r_i_glide_ligand_efficiency_ln>  (311) 
-1.03412

>  <r_i_glide_gscore>  (311) 
-4.27658

>  <r_i_glide_lipo>  (311) 
-0.947683

>  <r_i_glide_hbond>  (311) 
-0.610218

>  <r_i_glide_metal>  (311) 
-0

>  <r_i_glide_rewards>  (311) 
-1.21035

>  <r_i_glide_evdw>  (311) 
-13.5674

>  <r_i_glide_ecoul>  (311) 
-6.73192

>  <r_i_glide_erotb>  (311) 
0.179826

>  <r_i_glide_esite>  (311) 
0

>  <r_i_glide_emodel>  (311) 
-24.7152

>  <r_i_glide_energy>  (311) 
-20.2993

>  <r_i_glide_einternal>  (311) 
2.41553

>  <r_i_glide_intrahb_reward>  (311) 
-0

>  <i_i_glide_confnum>  (311) 
1

>  <i_i_glide_posenum>  (311) 
10

>  <r_i_glide_eff_state_penalty>  (311) 
0

>  <ligand_id>  (311) 
93

>  <original_smiles>  (311) 
CC1(C)CCCC2(C)C1CC(O)C13CC(CO)C(CC(O)C21)C3

>  <smiles>  (311) 
[H]OC([H])([H])C1([H])C([H])([H])C23C([H])([H])C1([H])C([H])([H])C([H])(O[H])C2([H])C1(C([H])([H])[H])C([H])([H])C([H])([H])C([H])([H])C(C([H])([H])[H])(C([H])([H])[H])C1([H])C([H])([H])C3([H])O[H]

$$$$
93:0:1
     RDKit          3D

 57 60  0  0  1  0  0  0  0  0999 V2000
    1.8169   -6.6668    4.8099 C   0  0  0  0  0  0  0  0  0  0  0  0
    2.0475   -5.2481    4.2421 C   0  0  0  0  0  0  0  0  0  0  0  0
    0.7267   -4.8165    3.5702 C   0  0  0  0  0  0  0  0  0  0  0  0
    2.2800   -4.3147    5.4414 C   0  0  0  0  0  0  0  0  0  0  0  0
    2.4842   -2.8780    4.9814 C   0  0  0  0  0  0  0  0  0  0  0  0
    3.7348   -2.7598    4.1118 C   0  0  0  0  0  0  0  0  0  0  0  0
    3.9491   -3.8045    2.9510 C   0  0  1  0  0  0  0  0  0  0  0  0
    5.4942   -3.9726    2.8946 C   0  0  0  0  0  0  0  0  0  0  0  0
    3.3491   -5.2091    3.3426 C   0  0  2  0  0  0  0  0  0  0  0  0
    3.4187   -6.2155    2.1644 C   0  0  0  0  0  0  0  0  0  0  0  0
    2.8272   -5.7443    0.8296 C   0  0  1  0  0  0  0  0  0  0  0  0
    1.4151   -5.8639    0.8599 O   0  0  0  0  0  0  0  0  0  0  0  0
    3.3195   -4.3439    0.3716 C   0  0  1  0  0  0  0  0  0  0  0  0
    2.4270   -3.7920   -0.7828 C   0  0  0  0  0  0  0  0  0  0  0  0
    3.3571   -3.1593   -1.8379 C   0  0  1  0  0  0  0  0  0  0  0  0
    2.8644   -1.8297   -2.4386 C   0  0  0  0  0  0  0  0  0  0  0  0
    3.6493   -1.4361   -3.5466 O   0  0  0  0  0  0  0  0  0  0  0  0
    4.7288   -3.1501   -1.1555 C   0  0  1  0  0  0  0  0  0  0  0  0
    4.9685   -1.9885   -0.1691 C   0  0  0  0  0  0  0  0  0  0  0  0
    4.0179   -1.9372    1.0607 C   0  0  1  0  0  0  0  0  0  0  0  0
    3.0160   -0.9466    0.8717 O   0  0  0  0  0  0  0  0  0  0  0  0
    3.3895   -3.2937    1.5510 C   0  0  2  0  0  0  0  0  0  0  0  0
    4.6770   -4.4493   -0.3663 C   0  0  0  0  0  0  0  0  0  0  0  0
    1.0160   -6.6612    5.5526 H   0  0  0  0  0  0  0  0  0  0  0  0
    2.7152   -7.0547    5.2900 H   0  0  0  0  0  0  0  0  0  0  0  0
    1.5143   -7.3705    4.0322 H   0  0  0  0  0  0  0  0  0  0  0  0
    0.8553   -3.9650    2.9041 H   0  0  0  0  0  0  0  0  0  0  0  0
   -0.0067   -4.5191    4.3246 H   0  0  0  0  0  0  0  0  0  0  0  0
    0.2660   -5.6311    3.0119 H   0  0  0  0  0  0  0  0  0  0  0  0
    1.4468   -4.3694    6.1431 H   0  0  0  0  0  0  0  0  0  0  0  0
    3.1624   -4.6335    5.9967 H   0  0  0  0  0  0  0  0  0  0  0  0
    1.6170   -2.4883    4.4553 H   0  0  0  0  0  0  0  0  0  0  0  0
    2.6024   -2.2417    5.8576 H   0  0  0  0  0  0  0  0  0  0  0  0
    3.7548   -1.7424    3.7375 H   0  0  0  0  0  0  0  0  0  0  0  0
    4.5712   -2.7969    4.8112 H   0  0  0  0  0  0  0  0  0  0  0  0
    5.8360   -4.8003    2.2836 H   0  0  0  0  0  0  0  0  0  0  0  0
    5.8890   -4.1986    3.8855 H   0  0  0  0  0  0  0  0  0  0  0  0
    6.0068   -3.0730    2.5544 H   0  0  0  0  0  0  0  0  0  0  0  0
    4.0829   -5.6193    4.0384 H   0  0  0  0  0  0  0  0  0  0  0  0
    4.4690   -6.4401    1.9776 H   0  0  0  0  0  0  0  0  0  0  0  0
    3.0010   -7.1821    2.4400 H   0  0  0  0  0  0  0  0  0  0  0  0
    3.1334   -6.4710    0.0812 H   0  0  0  0  0  0  0  0  0  0  0  0
    1.2203   -6.7648    1.0673 H   0  0  0  0  0  0  0  0  0  0  0  0
    1.8461   -4.5761   -1.2717 H   0  0  0  0  0  0  0  0  0  0  0  0
    1.7099   -3.0661   -0.4138 H   0  0  0  0  0  0  0  0  0  0  0  0
    3.4191   -3.8588   -2.6730 H   0  0  0  0  0  0  0  0  0  0  0  0
    1.8355   -1.9582   -2.7720 H   0  0  0  0  0  0  0  0  0  0  0  0
    2.8678   -1.0186   -1.7139 H   0  0  0  0  0  0  0  0  0  0  0  0
    3.2879   -0.6263   -3.8716 H   0  0  0  0  0  0  0  0  0  0  0  0
    5.5204   -3.1709   -1.9078 H   0  0  0  0  0  0  0  0  0  0  0  0
    5.9881   -2.1060    0.1954 H   0  0  0  0  0  0  0  0  0  0  0  0
    4.9720   -1.0301   -0.6914 H   0  0  0  0  0  0  0  0  0  0  0  0
    4.6257   -1.5038    1.8486 H   0  0  0  0  0  0  0  0  0  0  0  0
    2.3940   -1.2190    0.2016 H   0  0  0  0  0  0  0  0  0  0  0  0
    2.3546   -3.0548    1.7722 H   0  0  0  0  0  0  0  0  0  0  0  0
    5.5480   -4.5786    0.2620 H   0  0  0  0  0  0  0  0  0  0  0  0
    4.6819   -5.2917   -1.0615 H   0  0  0  0  0  0  0  0  0  0  0  0
  1  2  1  0
  1 24  1  0
  1 25  1  0
  1 26  1  0
  2  9  1  0
  2  3  1  0
  2  4  1  0
  3 27  1  0
  3 28  1  0
  3 29  1  0
  4  5  1  0
  4 30  1  0
  4 31  1  0
  5  6  1  0
  5 32  1  0
  5 33  1  0
  6  7  1  0
  6 34  1  0
  6 35  1  0
  7 22  1  0
  7  8  1  6
  7  9  1  0
  8 36  1  0
  8 37  1  0
  8 38  1  0
  9 10  1  0
  9 39  1  1
 10 11  1  0
 10 40  1  0
 10 41  1  0
 11 12  1  0
 11 13  1  0
 11 42  1  6
 12 43  1  0
 13 22  1  0
 13 23  1  0
 13 14  1  6
 14 15  1  0
 14 44  1  0
 14 45  1  0
 15 16  1  0
 15 18  1  0
 15 46  1  6
 16 17  1  0
 16 47  1  0
 16 48  1  0
 17 49  1  0
 18 19  1  0
 18 23  1  0
 18 50  1  6
 19 20  1  0
 19 51  1  0
 19 52  1  0
 20 21  1  0
 20 22  1  0
 20 53  1  1
 21 54  1  0
 22 55  1  1
 23 56  1  0
 23 57  1  0
M  END
>  <i_m_ct_stereo_status>  (312) 
1

>  <s_m_source_file>  (312) 
/var/tmp/pbs.5076255.sched01/tmpt25ahaql/1236iipj8y0.sdf

>  <i_m_source_file_index>  (312) 
10

>  <i_lp_mmshare_version>  (312) 
48012

>  <i_f3d_flags>  (312) 
0

>  <s_epik_input>  (312) 
W0NIMl0xW0NIMl1bQ0gyXUMoW0NIM10pKFtDSDNdKVtDQEBIXShbQ0gyXVtDQEhdMltPSF0pW0NAQF0xKFtDSDNdKVtDQEhdKFtDQEBdMjM0KVtDQEhdKFtPSF0pW0NIMl1bQ0BASF0oW0NIMl00KVtDQEBIXShbQ0gyXTMpW0NIMl1bT0hd

>  <s_epik_cmdline>  (312) 
J2VwaWtfcHl0aG9uJywgJy1waHQnLCAnMi4wJywgJy1waCcsICc3LjAnLCAnLXRuJywgJzgnLCAnLW1hJywgJzIwMCcsICctaW1hZScsICc8aW5maWxlLm1hZT4nLCAnLW9tYWUnLCAnPG91dGZpbGUubWFlPic=

>  <r_lp_tautomer_probability>  (312) 
1

>  <r_epik_Ionization_Penalty>  (312) 
5.86058e-06

>  <r_epik_Ionization_Penalty_Charging>  (312) 
0

>  <r_epik_Ionization_Penalty_Neutral>  (312) 
5.86058e-06

>  <r_epik_State_Penalty>  (312) 
-0

>  <r_epik_Charging_Adjusted_Penalty>  (312) 
0

>  <i_epik_Tot_Q>  (312) 
0

>  <i_epik_Tot_abs_Q>  (312) 
0

>  <s_lp_Force_Field>  (312) 
OPLS3e

>  <r_lp_Energy>  (312) 
68.9679

>  <b_lp_Chiralities_Consistent>  (312) 
1

>  <s_lp_Variant>  (312) 
93:0-1

>  <s_i_glide_gridfile>  (312) 
pfpi4k_grid

>  <i_i_glide_lignum>  (312) 
10

>  <i_i_glide_rotatable_bonds>  (312) 
4

>  <r_i_docking_score>  (312) 
-3.27969

>  <r_i_glide_ligand_efficiency>  (312) 
-0.142595

>  <r_i_glide_ligand_efficiency_sa>  (312) 
-0.405522

>  <r_i_glide_ligand_efficiency_ln>  (312) 
-0.79306

>  <r_i_glide_gscore>  (312) 
-3.27969

>  <r_i_glide_lipo>  (312) 
-0.0524444

>  <r_i_glide_hbond>  (312) 
-0.315366

>  <r_i_glide_metal>  (312) 
-0

>  <r_i_glide_rewards>  (312) 
-1.21035

>  <r_i_glide_evdw>  (312) 
-16.6689

>  <r_i_glide_ecoul>  (312) 
-6.98609

>  <r_i_glide_erotb>  (312) 
0.179826

>  <r_i_glide_esite>  (312) 
0

>  <r_i_glide_emodel>  (312) 
-28.2785

>  <r_i_glide_energy>  (312) 
-23.655

>  <r_i_glide_einternal>  (312) 
0.716281

>  <r_i_glide_intrahb_reward>  (312) 
-0

>  <i_i_glide_confnum>  (312) 
4

>  <i_i_glide_posenum>  (312) 
32

>  <r_i_glide_eff_state_penalty>  (312) 
0

>  <ligand_id>  (312) 
93

>  <original_smiles>  (312) 
CC1(C)CCCC2(C)C1CC(O)C13CC(CO)C(CC(O)C21)C3

>  <smiles>  (312) 
[H]OC([H])([H])C1([H])C([H])([H])C23C([H])([H])C1([H])C([H])([H])C([H])(O[H])C2([H])C1(C([H])([H])[H])C([H])([H])C([H])([H])C([H])([H])C(C([H])([H])[H])(C([H])([H])[H])C1([H])C([H])([H])C3([H])O[H]

$$$$
93:0:2
     RDKit          3D

 57 60  0  0  1  0  0  0  0  0999 V2000
    2.1196   -6.8215    4.3492 C   0  0  0  0  0  0  0  0  0  0  0  0
    2.3395   -5.3568    3.9077 C   0  0  0  0  0  0  0  0  0  0  0  0
    1.0237   -4.8939    3.2442 C   0  0  0  0  0  0  0  0  0  0  0  0
    2.5386   -4.5221    5.1847 C   0  0  0  0  0  0  0  0  0  0  0  0
    2.7336   -3.0494    4.8466 C   0  0  0  0  0  0  0  0  0  0  0  0
    3.9954   -2.8415    4.0097 C   0  0  0  0  0  0  0  0  0  0  0  0
    4.2440   -3.7919    2.7737 C   0  0  1  0  0  0  0  0  0  0  0  0
    5.7873   -3.9409    2.7334 C   0  0  0  0  0  0  0  0  0  0  0  0
    3.6571   -5.2294    3.0426 C   0  0  2  0  0  0  0  0  0  0  0  0
    3.7664   -6.1375    1.7875 C   0  0  0  0  0  0  0  0  0  0  0  0
    3.2062   -5.5612    0.4825 C   0  0  1  0  0  0  0  0  0  0  0  0
    1.8027   -5.6775    0.4527 O   0  0  0  0  0  0  0  0  0  0  0  0
    3.6765   -4.1212    0.1486 C   0  0  1  0  0  0  0  0  0  0  0  0
    2.7904   -3.4882   -0.9712 C   0  0  0  0  0  0  0  0  0  0  0  0
    3.7206   -2.7515   -1.9498 C   0  0  1  0  0  0  0  0  0  0  0  0
    3.2069   -1.3852   -2.4429 C   0  0  0  0  0  0  0  0  0  0  0  0
    4.0638   -0.8472   -3.4295 O   0  0  0  0  0  0  0  0  0  0  0  0
    5.0814   -2.7787   -1.2462 C   0  0  1  0  0  0  0  0  0  0  0  0
    5.2929   -1.7043   -0.1592 C   0  0  0  0  0  0  0  0  0  0  0  0
    4.3207   -1.7624    1.0494 C   0  0  1  0  0  0  0  0  0  0  0  0
    3.2943   -0.7978    0.8928 O   0  0  0  0  0  0  0  0  0  0  0  0
    3.7056   -3.1679    1.4120 C   0  0  2  0  0  0  0  0  0  0  0  0
    5.0402   -4.1414   -0.5706 C   0  0  0  0  0  0  0  0  0  0  0  0
    1.3055   -6.8940    5.0731 H   0  0  0  0  0  0  0  0  0  0  0  0
    3.0188   -7.2404    4.8116 H   0  0  0  0  0  0  0  0  0  0  0  0
    1.8453   -7.4638    3.5073 H   0  0  0  0  0  0  0  0  0  0  0  0
    1.1489   -3.9868    2.6611 H   0  0  0  0  0  0  0  0  0  0  0  0
    0.2641   -4.6814    3.9985 H   0  0  0  0  0  0  0  0  0  0  0  0
    0.5991   -5.6614    2.6019 H   0  0  0  0  0  0  0  0  0  0  0  0
    1.6881   -4.6459    5.8594 H   0  0  0  0  0  0  0  0  0  0  0  0
    3.4122   -4.8821    5.7313 H   0  0  0  0  0  0  0  0  0  0  0  0
    1.8726   -2.6338    4.3280 H   0  0  0  0  0  0  0  0  0  0  0  0
    2.8188   -2.4867    5.7767 H   0  0  0  0  0  0  0  0  0  0  0  0
    4.0097   -1.7979    3.7264 H   0  0  0  0  0  0  0  0  0  0  0  0
    4.8136   -2.9298    4.7206 H   0  0  0  0  0  0  0  0  0  0  0  0
    6.1520   -4.6958    2.0497 H   0  0  0  0  0  0  0  0  0  0  0  0
    6.1742   -4.2618    3.7002 H   0  0  0  0  0  0  0  0  0  0  0  0
    6.2759   -3.0039    2.4819 H   0  0  0  0  0  0  0  0  0  0  0  0
    4.3831   -5.6878    3.7192 H   0  0  0  0  0  0  0  0  0  0  0  0
    4.8218   -6.3341    1.6088 H   0  0  0  0  0  0  0  0  0  0  0  0
    3.3444   -7.1233    1.9693 H   0  0  0  0  0  0  0  0  0  0  0  0
    3.5310   -6.2276   -0.3191 H   0  0  0  0  0  0  0  0  0  0  0  0
    1.5544   -5.5761   -0.4538 H   0  0  0  0  0  0  0  0  0  0  0  0
    2.2497   -4.2393   -1.5445 H   0  0  0  0  0  0  0  0  0  0  0  0
    2.0309   -2.8323   -0.5506 H   0  0  0  0  0  0  0  0  0  0  0  0
    3.8147   -3.3859   -2.8340 H   0  0  0  0  0  0  0  0  0  0  0  0
    2.2136   -1.5028   -2.8753 H   0  0  0  0  0  0  0  0  0  0  0  0
    3.1111   -0.6601   -1.6367 H   0  0  0  0  0  0  0  0  0  0  0  0
    3.7102   -0.0059   -3.6853 H   0  0  0  0  0  0  0  0  0  0  0  0
    5.8877   -2.7275   -1.9791 H   0  0  0  0  0  0  0  0  0  0  0  0
    6.3083   -1.8345    0.2135 H   0  0  0  0  0  0  0  0  0  0  0  0
    5.2900   -0.7084   -0.6036 H   0  0  0  0  0  0  0  0  0  0  0  0
    4.8999   -1.3745    1.8862 H   0  0  0  0  0  0  0  0  0  0  0  0
    2.6815   -1.0750    0.2227 H   0  0  0  0  0  0  0  0  0  0  0  0
    2.6621   -2.9644    1.6379 H   0  0  0  0  0  0  0  0  0  0  0  0
    5.9053   -4.3122    0.0586 H   0  0  0  0  0  0  0  0  0  0  0  0
    5.0620   -4.9248   -1.3305 H   0  0  0  0  0  0  0  0  0  0  0  0
  1  2  1  0
  1 24  1  0
  1 25  1  0
  1 26  1  0
  2  9  1  0
  2  3  1  0
  2  4  1  0
  3 27  1  0
  3 28  1  0
  3 29  1  0
  4  5  1  0
  4 30  1  0
  4 31  1  0
  5  6  1  0
  5 32  1  0
  5 33  1  0
  6  7  1  0
  6 34  1  0
  6 35  1  0
  7 22  1  0
  7  8  1  6
  7  9  1  0
  8 36  1  0
  8 37  1  0
  8 38  1  0
  9 10  1  0
  9 39  1  1
 10 11  1  0
 10 40  1  0
 10 41  1  0
 11 12  1  0
 11 13  1  0
 11 42  1  6
 12 43  1  0
 13 22  1  0
 13 23  1  0
 13 14  1  6
 14 15  1  0
 14 44  1  0
 14 45  1  0
 15 16  1  0
 15 18  1  0
 15 46  1  6
 16 17  1  0
 16 47  1  0
 16 48  1  0
 17 49  1  0
 18 19  1  0
 18 23  1  0
 18 50  1  6
 19 20  1  0
 19 51  1  0
 19 52  1  0
 20 21  1  0
 20 22  1  0
 20 53  1  1
 21 54  1  0
 22 55  1  1
 23 56  1  0
 23 57  1  0
M  END
>  <i_m_ct_stereo_status>  (313) 
1

>  <s_m_source_file>  (313) 
/var/tmp/pbs.5076255.sched01/tmpt25ahaql/1236iipj8y0.sdf

>  <i_m_source_file_index>  (313) 
10

>  <i_lp_mmshare_version>  (313) 
48012

>  <i_f3d_flags>  (313) 
0

>  <s_epik_input>  (313) 
W0NIMl0xW0NIMl1bQ0gyXUMoW0NIM10pKFtDSDNdKVtDQEBIXShbQ0gyXVtDQEhdMltPSF0pW0NAQF0xKFtDSDNdKVtDQEhdKFtDQEBdMjM0KVtDQEhdKFtPSF0pW0NIMl1bQ0BASF0oW0NIMl00KVtDQEBIXShbQ0gyXTMpW0NIMl1bT0hd

>  <s_epik_cmdline>  (313) 
J2VwaWtfcHl0aG9uJywgJy1waHQnLCAnMi4wJywgJy1waCcsICc3LjAnLCAnLXRuJywgJzgnLCAnLW1hJywgJzIwMCcsICctaW1hZScsICc8aW5maWxlLm1hZT4nLCAnLW9tYWUnLCAnPG91dGZpbGUubWFlPic=

>  <r_lp_tautomer_probability>  (313) 
1

>  <r_epik_Ionization_Penalty>  (313) 
5.86058e-06

>  <r_epik_Ionization_Penalty_Charging>  (313) 
0

>  <r_epik_Ionization_Penalty_Neutral>  (313) 
5.86058e-06

>  <r_epik_State_Penalty>  (313) 
-0

>  <r_epik_Charging_Adjusted_Penalty>  (313) 
0

>  <i_epik_Tot_Q>  (313) 
0

>  <i_epik_Tot_abs_Q>  (313) 
0

>  <s_lp_Force_Field>  (313) 
OPLS3e

>  <r_lp_Energy>  (313) 
68.9679

>  <b_lp_Chiralities_Consistent>  (313) 
1

>  <s_lp_Variant>  (313) 
93:0-1

>  <s_i_glide_gridfile>  (313) 
pfpi4k_grid

>  <i_i_glide_lignum>  (313) 
10

>  <i_i_glide_rotatable_bonds>  (313) 
4

>  <r_i_docking_score>  (313) 
-2.99556

>  <r_i_glide_ligand_efficiency>  (313) 
-0.130242

>  <r_i_glide_ligand_efficiency_sa>  (313) 
-0.37039

>  <r_i_glide_ligand_efficiency_ln>  (313) 
-0.724354

>  <r_i_glide_gscore>  (313) 
-2.99556

>  <r_i_glide_lipo>  (313) 
-0.12343

>  <r_i_glide_hbond>  (313) 
-0.177059

>  <r_i_glide_metal>  (313) 
-0

>  <r_i_glide_rewards>  (313) 
-1.21035

>  <r_i_glide_evdw>  (313) 
-17.6879

>  <r_i_glide_ecoul>  (313) 
-5.20105

>  <r_i_glide_erotb>  (313) 
0.179826

>  <r_i_glide_esite>  (313) 
0

>  <r_i_glide_emodel>  (313) 
-26.9835

>  <r_i_glide_energy>  (313) 
-22.8889

>  <r_i_glide_einternal>  (313) 
0.74923

>  <r_i_glide_intrahb_reward>  (313) 
-0

>  <i_i_glide_confnum>  (313) 
4

>  <i_i_glide_posenum>  (313) 
1

>  <r_i_glide_eff_state_penalty>  (313) 
0

>  <ligand_id>  (313) 
93

>  <original_smiles>  (313) 
CC1(C)CCCC2(C)C1CC(O)C13CC(CO)C(CC(O)C21)C3

>  <smiles>  (313) 
[H]OC([H])([H])C1([H])C([H])([H])C23C([H])([H])C1([H])C([H])([H])C([H])(O[H])C2([H])C1(C([H])([H])[H])C([H])([H])C([H])([H])C([H])([H])C(C([H])([H])[H])(C([H])([H])[H])C1([H])C([H])([H])C3([H])O[H]

$$$$
94:0:0
     RDKit          3D

 66 70  0  0  1  0  0  0  0  0999 V2000
    1.0109  -11.2736    3.2806 C   0  0  0  0  0  0  0  0  0  0  0  0
    1.4201  -10.1464    3.8780 C   0  0  0  0  0  0  0  0  0  0  0  0
    0.4712   -8.9655    4.0437 C   0  0  1  0  0  0  0  0  0  0  0  0
   -0.1991   -9.0215    5.2844 O   0  0  0  0  0  0  0  0  0  0  0  0
    1.1223   -7.5732    3.7451 C   0  0  2  0  0  0  0  0  0  0  0  0
    0.9413   -7.2704    2.2260 C   0  0  1  0  0  0  0  0  0  0  0  0
   -0.3937   -6.7939    2.0518 O   0  0  0  0  0  0  0  0  0  0  0  0
    1.9624   -6.3035    1.5680 C   0  0  1  0  0  0  0  0  0  0  0  0
    1.4135   -5.8636    0.3327 O   0  0  0  0  0  0  0  0  0  0  0  0
    2.5447   -5.2121    2.5191 C   0  0  1  0  0  0  0  0  0  0  0  0
    1.4163   -4.4652    2.9482 O   0  0  0  0  0  0  0  0  0  0  0  0
    3.2085   -5.9493    3.7914 C   0  0  2  0  0  0  0  0  0  0  0  0
    3.0250   -5.0221    4.8489 O   0  0  0  0  0  0  0  0  0  0  0  0
    4.7503   -6.0082    3.6256 C   0  0  0  0  0  0  0  0  0  0  0  0
    5.5022   -6.0544    4.6001 O   0  0  0  0  0  0  0  0  0  0  0  0
    5.3089   -6.0115    2.2016 C   0  0  0  0  0  0  0  0  0  0  0  0
    4.9087   -4.7726    1.3592 C   0  0  2  0  0  0  0  0  0  0  0  0
    5.0094   -5.2008   -0.1204 C   0  0  0  0  0  0  0  0  0  0  0  0
    5.8915   -3.6440    1.6011 C   0  0  0  0  0  0  0  0  0  0  0  0
    5.3779   -2.6442    2.3178 C   0  0  0  0  0  0  0  0  0  0  0  0
    3.9854   -2.9626    2.7733 C   0  0  1  0  0  0  0  0  0  0  0  0
    3.1619   -1.8102    2.8201 O   0  0  0  0  0  0  0  0  0  0  0  0
    3.5185   -4.1351    1.8093 C   0  0  2  0  0  0  0  0  0  0  0  0
    2.8729   -3.3816    0.5915 C   0  0  0  0  0  0  0  0  0  0  0  0
    2.5912   -7.3909    4.2809 C   0  0  1  0  0  0  0  0  0  0  0  0
    2.6284   -7.5066    5.8920 C   0  0  1  0  0  0  0  0  0  0  0  0
    1.5731   -6.6791    6.6922 C   0  0  0  0  0  0  0  0  0  0  0  0
    2.6097   -8.9210    6.5595 C   0  0  0  0  0  0  0  0  0  0  0  0
    3.1755  -10.0890    5.7575 C   0  0  0  0  0  0  0  0  0  0  0  0
    2.8821   -9.9643    4.2677 C   0  0  2  0  0  0  0  0  0  0  0  0
    3.4415   -8.6292    3.7739 C   0  0  1  0  0  0  0  0  0  0  0  0
    3.5622   -8.7795    2.3763 O   0  0  0  0  0  0  0  0  0  0  0  0
    1.6686  -12.1152    3.1101 H   0  0  0  0  0  0  0  0  0  0  0  0
   -0.0112  -11.3583    2.9588 H   0  0  0  0  0  0  0  0  0  0  0  0
   -0.3501   -9.1182    3.3437 H   0  0  0  0  0  0  0  0  0  0  0  0
   -0.7963   -9.7663    5.2794 H   0  0  0  0  0  0  0  0  0  0  0  0
    0.5277   -6.8153    4.2530 H   0  0  0  0  0  0  0  0  0  0  0  0
    1.0074   -8.1989    1.6566 H   0  0  0  0  0  0  0  0  0  0  0  0
   -0.9786   -7.5254    2.1849 H   0  0  0  0  0  0  0  0  0  0  0  0
    2.8071   -6.8860    1.2268 H   0  0  0  0  0  0  0  0  0  0  0  0
    2.1325   -5.5846   -0.2107 H   0  0  0  0  0  0  0  0  0  0  0  0
    1.7526   -3.7781    3.5091 H   0  0  0  0  0  0  0  0  0  0  0  0
    3.4319   -5.3895    5.6191 H   0  0  0  0  0  0  0  0  0  0  0  0
    6.3958   -6.1004    2.2466 H   0  0  0  0  0  0  0  0  0  0  0  0
    4.9601   -6.9170    1.7092 H   0  0  0  0  0  0  0  0  0  0  0  0
    4.2305   -5.9118   -0.3901 H   0  0  0  0  0  0  0  0  0  0  0  0
    5.9626   -5.6918   -0.3167 H   0  0  0  0  0  0  0  0  0  0  0  0
    4.9520   -4.3601   -0.8112 H   0  0  0  0  0  0  0  0  0  0  0  0
    6.8913   -3.6464    1.1876 H   0  0  0  0  0  0  0  0  0  0  0  0
    5.8992   -1.7394    2.5947 H   0  0  0  0  0  0  0  0  0  0  0  0
    4.1423   -3.2622    3.8032 H   0  0  0  0  0  0  0  0  0  0  0  0
    2.9919   -1.5158    1.9358 H   0  0  0  0  0  0  0  0  0  0  0  0
    3.4781   -2.5277    0.2793 H   0  0  0  0  0  0  0  0  0  0  0  0
    1.8870   -2.9880    0.8378 H   0  0  0  0  0  0  0  0  0  0  0  0
    2.7584   -3.9744   -0.3124 H   0  0  0  0  0  0  0  0  0  0  0  0
    3.6041   -7.1215    6.1821 H   0  0  0  0  0  0  0  0  0  0  0  0
    0.6555   -7.2408    6.8582 H   0  0  0  0  0  0  0  0  0  0  0  0
    1.2468   -5.7549    6.2220 H   0  0  0  0  0  0  0  0  0  0  0  0
    1.9593   -6.4274    7.6823 H   0  0  0  0  0  0  0  0  0  0  0  0
    3.1695   -8.8689    7.4934 H   0  0  0  0  0  0  0  0  0  0  0  0
    1.6138   -9.2024    6.8916 H   0  0  0  0  0  0  0  0  0  0  0  0
    4.2563  -10.1381    5.9022 H   0  0  0  0  0  0  0  0  0  0  0  0
    2.7834  -11.0332    6.1433 H   0  0  0  0  0  0  0  0  0  0  0  0
    3.4370  -10.7808    3.7977 H   0  0  0  0  0  0  0  0  0  0  0  0
    4.4609   -8.5687    4.1560 H   0  0  0  0  0  0  0  0  0  0  0  0
    3.9619   -9.6201    2.1914 H   0  0  0  0  0  0  0  0  0  0  0  0
  1  2  2  0
  1 33  1  0
  1 34  1  0
  2 30  1  0
  2  3  1  0
  3  4  1  0
  3  5  1  0
  3 35  1  6
  4 36  1  0
  5 25  1  0
  5  6  1  0
  5 37  1  1
  6  7  1  0
  6  8  1  0
  6 38  1  6
  7 39  1  0
  8  9  1  0
  8 10  1  0
  8 40  1  6
  9 41  1  0
 10 23  1  0
 10 11  1  1
 10 12  1  0
 11 42  1  0
 12 13  1  1
 12 14  1  0
 25 12  1  1
 13 43  1  0
 14 15  2  0
 14 16  1  0
 16 17  1  0
 16 44  1  0
 16 45  1  0
 17 23  1  0
 17 18  1  6
 17 19  1  0
 18 46  1  0
 18 47  1  0
 18 48  1  0
 19 20  2  0
 19 49  1  0
 20 21  1  0
 20 50  1  0
 21 22  1  0
 21 23  1  0
 21 51  1  1
 22 52  1  0
 23 24  1  6
 24 53  1  0
 24 54  1  0
 24 55  1  0
 25 31  1  0
 25 26  1  0
 26 27  1  0
 26 28  1  0
 26 56  1  1
 27 57  1  0
 27 58  1  0
 27 59  1  0
 28 29  1  0
 28 60  1  0
 28 61  1  0
 29 30  1  0
 29 62  1  0
 29 63  1  0
 30 31  1  0
 30 64  1  6
 31 32  1  0
 31 65  1  1
 32 66  1  0
M  END
>  <i_m_ct_stereo_status>  (314) 
1

>  <s_m_source_file>  (314) 
/var/tmp/pbs.5076255.sched01/tmpt25ahaql/1236iipj8y0.sdf

>  <i_m_source_file_index>  (314) 
11

>  <i_lp_mmshare_version>  (314) 
48012

>  <i_f3d_flags>  (314) 
0

>  <s_epik_input>  (314) 
W0NIM11bQ0BIXTFbQ0gyXVtDSDJdW0NASF0oW0NASF0yW09IXSlDKD1bQ0gyXSlbQ0BASF0oW09IXSlbQ0BASF0oW0NAQF0xMjMpW0NAQEhdKFtPSF0pW0NAQEhdKFtPSF0pW0NAQF00KFtPSF0pW0NAXTMoW09IXSlDKD1PKVtDSDJdW0NAQF01KFtDSDNdKVtDQF00KFtDSDNdKVtDQEhdKFtPSF0pW0NIXT1bQ0hdNQ==

>  <s_epik_cmdline>  (314) 
J2VwaWtfcHl0aG9uJywgJy1waHQnLCAnMi4wJywgJy1waCcsICc3LjAnLCAnLXRuJywgJzgnLCAnLW1hJywgJzIwMCcsICctaW1hZScsICc8aW5maWxlLm1hZT4nLCAnLW9tYWUnLCAnPG91dGZpbGUubWFlPic=

>  <r_lp_tautomer_probability>  (314) 
1

>  <r_epik_Ionization_Penalty>  (314) 
4.08985e-07

>  <r_epik_Ionization_Penalty_Charging>  (314) 
0

>  <r_epik_Ionization_Penalty_Neutral>  (314) 
4.08985e-07

>  <r_epik_State_Penalty>  (314) 
-0

>  <r_epik_Charging_Adjusted_Penalty>  (314) 
0

>  <i_epik_Tot_Q>  (314) 
0

>  <i_epik_Tot_abs_Q>  (314) 
0

>  <s_lp_Force_Field>  (314) 
OPLS3e

>  <r_lp_Energy>  (314) 
98.4989

>  <b_lp_Chiralities_Consistent>  (314) 
1

>  <s_lp_Variant>  (314) 
94:0-1

>  <s_i_glide_gridfile>  (314) 
pfpi4k_grid

>  <i_i_glide_lignum>  (314) 
11

>  <i_i_glide_rotatable_bonds>  (314) 
7

>  <r_i_docking_score>  (314) 
-3.84654

>  <r_i_glide_ligand_efficiency>  (314) 
-0.120204

>  <r_i_glide_ligand_efficiency_sa>  (314) 
-0.381625

>  <r_i_glide_ligand_efficiency_ln>  (314) 
-0.861346

>  <r_i_glide_gscore>  (314) 
-3.84654

>  <r_i_glide_lipo>  (314) 
-0.381992

>  <r_i_glide_hbond>  (314) 
-0.16

>  <r_i_glide_metal>  (314) 
-0

>  <r_i_glide_rewards>  (314) 
-0.33735

>  <r_i_glide_evdw>  (314) 
-25.8961

>  <r_i_glide_ecoul>  (314) 
-11.1493

>  <r_i_glide_erotb>  (314) 
0

>  <r_i_glide_esite>  (314) 
0

>  <r_i_glide_emodel>  (314) 
-46.4535

>  <r_i_glide_energy>  (314) 
-37.0454

>  <r_i_glide_einternal>  (314) 
3.55117

>  <r_i_glide_intrahb_reward>  (314) 
-0

>  <i_i_glide_confnum>  (314) 
1

>  <i_i_glide_posenum>  (314) 
27

>  <r_i_glide_eff_state_penalty>  (314) 
0

>  <ligand_id>  (314) 
94

>  <original_smiles>  (314) 
C=C1C(O)C2C(O)C(O)C3(O)C(O)(C(=O)CC4(C)C=CC(O)C43C)C23C(C)CCC1C3O

>  <smiles>  (314) 
[H]OC1([H])C(=C([H])[H])C2([H])C([H])([H])C([H])([H])C([H])(C([H])([H])[H])C3(C2([H])O[H])C2(O[H])C(=O)C([H])([H])C4(C([H])([H])[H])C([H])=C([H])C([H])(O[H])C4(C([H])([H])[H])C2(O[H])C([H])(O[H])C([H])(O[H])C13[H]

$$$$
94:0:1
     RDKit          3D

 66 70  0  0  1  0  0  0  0  0999 V2000
   -0.2544   -6.3818    4.1230 C   0  0  0  0  0  0  0  0  0  0  0  0
    1.0703   -6.2364    3.9570 C   0  0  0  0  0  0  0  0  0  0  0  0
    1.8235   -5.1127    4.6586 C   0  0  1  0  0  0  0  0  0  0  0  0
    2.3212   -5.5422    5.9020 O   0  0  0  0  0  0  0  0  0  0  0  0
    2.9027   -4.4066    3.7807 C   0  0  2  0  0  0  0  0  0  0  0  0
    2.2127   -3.2354    3.0277 C   0  0  1  0  0  0  0  0  0  0  0  0
    2.1191   -2.1720    3.9641 O   0  0  0  0  0  0  0  0  0  0  0  0
    2.8651   -2.7533    1.6990 C   0  0  1  0  0  0  0  0  0  0  0  0
    2.3647   -1.4510    1.4262 O   0  0  0  0  0  0  0  0  0  0  0  0
    4.4163   -2.9356    1.6399 C   0  0  1  0  0  0  0  0  0  0  0  0
    4.9048   -2.1402    2.7187 O   0  0  0  0  0  0  0  0  0  0  0  0
    4.7511   -4.4894    1.9087 C   0  0  2  0  0  0  0  0  0  0  0  0
    6.0117   -4.4586    2.5472 O   0  0  0  0  0  0  0  0  0  0  0  0
    5.0421   -5.2132    0.5668 C   0  0  0  0  0  0  0  0  0  0  0  0
    5.7496   -6.2153    0.5073 O   0  0  0  0  0  0  0  0  0  0  0  0
    4.3918   -4.6428   -0.6934 C   0  0  0  0  0  0  0  0  0  0  0  0
    4.7450   -3.1743   -1.0088 C   0  0  2  0  0  0  0  0  0  0  0  0
    3.5885   -2.6216   -1.8728 C   0  0  0  0  0  0  0  0  0  0  0  0
    6.0200   -3.1193   -1.8306 C   0  0  0  0  0  0  0  0  0  0  0  0
    7.0637   -2.6830   -1.1364 C   0  0  0  0  0  0  0  0  0  0  0  0
    6.6989   -2.4445    0.2971 C   0  0  1  0  0  0  0  0  0  0  0  0
    7.4055   -1.3495    0.8287 O   0  0  0  0  0  0  0  0  0  0  0  0
    5.1168   -2.3453    0.2992 C   0  0  2  0  0  0  0  0  0  0  0  0
    4.8171   -0.8270    0.0553 C   0  0  0  0  0  0  0  0  0  0  0  0
    3.7509   -5.3640    2.8670 C   0  0  1  0  0  0  0  0  0  0  0  0
    4.5923   -6.4142    3.7696 C   0  0  1  0  0  0  0  0  0  0  0  0
    5.4043   -5.8407    4.9727 C   0  0  0  0  0  0  0  0  0  0  0  0
    3.8761   -7.6849    4.3357 C   0  0  0  0  0  0  0  0  0  0  0  0
    2.6647   -8.2151    3.5730 C   0  0  0  0  0  0  0  0  0  0  0  0
    1.8322   -7.0990    2.9525 C   0  0  2  0  0  0  0  0  0  0  0  0
    2.7363   -6.2638    2.0462 C   0  0  1  0  0  0  0  0  0  0  0  0
    1.8469   -5.6021    1.1740 O   0  0  0  0  0  0  0  0  0  0  0  0
   -0.8116   -7.1399    3.5935 H   0  0  0  0  0  0  0  0  0  0  0  0
   -0.7940   -5.7420    4.8020 H   0  0  0  0  0  0  0  0  0  0  0  0
    1.0806   -4.3698    4.9565 H   0  0  0  0  0  0  0  0  0  0  0  0
    2.9884   -6.1951    5.7295 H   0  0  0  0  0  0  0  0  0  0  0  0
    3.6221   -3.9396    4.4577 H   0  0  0  0  0  0  0  0  0  0  0  0
    1.1860   -3.5183    2.7922 H   0  0  0  0  0  0  0  0  0  0  0  0
    2.9960   -1.8094    4.0581 H   0  0  0  0  0  0  0  0  0  0  0  0
    2.4603   -3.3413    0.8860 H   0  0  0  0  0  0  0  0  0  0  0  0
    1.9241   -1.4327    0.5786 H   0  0  0  0  0  0  0  0  0  0  0  0
    5.8501   -2.2222    2.7250 H   0  0  0  0  0  0  0  0  0  0  0  0
    6.6522   -4.0849    1.9640 H   0  0  0  0  0  0  0  0  0  0  0  0
    4.6706   -5.2877   -1.5251 H   0  0  0  0  0  0  0  0  0  0  0  0
    3.3124   -4.7401   -0.5980 H   0  0  0  0  0  0  0  0  0  0  0  0
    2.6672   -2.5011   -1.3006 H   0  0  0  0  0  0  0  0  0  0  0  0
    3.3576   -3.2998   -2.6977 H   0  0  0  0  0  0  0  0  0  0  0  0
    3.8247   -1.6583   -2.3262 H   0  0  0  0  0  0  0  0  0  0  0  0
    6.0542   -3.4000   -2.8762 H   0  0  0  0  0  0  0  0  0  0  0  0
    8.0721   -2.5846   -1.5133 H   0  0  0  0  0  0  0  0  0  0  0  0
    7.1006   -3.3294    0.7752 H   0  0  0  0  0  0  0  0  0  0  0  0
    6.8331   -0.5917    0.8714 H   0  0  0  0  0  0  0  0  0  0  0  0
    5.4595   -0.4198   -0.7273 H   0  0  0  0  0  0  0  0  0  0  0  0
    4.9742   -0.2269    0.9504 H   0  0  0  0  0  0  0  0  0  0  0  0
    3.8084   -0.6145   -0.2892 H   0  0  0  0  0  0  0  0  0  0  0  0
    5.3328   -6.8382    3.0846 H   0  0  0  0  0  0  0  0  0  0  0  0
    4.8208   -5.8162    5.8875 H   0  0  0  0  0  0  0  0  0  0  0  0
    5.7625   -4.8249    4.8487 H   0  0  0  0  0  0  0  0  0  0  0  0
    6.2697   -6.4715    5.1730 H   0  0  0  0  0  0  0  0  0  0  0  0
    4.6066   -8.4913    4.3846 H   0  0  0  0  0  0  0  0  0  0  0  0
    3.5940   -7.5631    5.3795 H   0  0  0  0  0  0  0  0  0  0  0  0
    3.0105   -8.8800    2.7815 H   0  0  0  0  0  0  0  0  0  0  0  0
    2.0532   -8.8327    4.2278 H   0  0  0  0  0  0  0  0  0  0  0  0
    1.0862   -7.6054    2.3306 H   0  0  0  0  0  0  0  0  0  0  0  0
    3.2851   -6.9793    1.4281 H   0  0  0  0  0  0  0  0  0  0  0  0
    2.3271   -5.3307    0.4042 H   0  0  0  0  0  0  0  0  0  0  0  0
  1  2  2  0
  1 33  1  0
  1 34  1  0
  2 30  1  0
  2  3  1  0
  3  4  1  0
  3  5  1  0
  3 35  1  1
  4 36  1  0
  5 25  1  0
  5  6  1  0
  5 37  1  1
  6  7  1  0
  6  8  1  0
  6 38  1  6
  7 39  1  0
  8  9  1  0
  8 10  1  0
  8 40  1  6
  9 41  1  0
 10 23  1  0
 10 11  1  1
 10 12  1  0
 11 42  1  0
 12 13  1  1
 12 14  1  0
 25 12  1  6
 13 43  1  0
 14 15  2  0
 14 16  1  0
 16 17  1  0
 16 44  1  0
 16 45  1  0
 17 23  1  0
 17 18  1  6
 17 19  1  0
 18 46  1  0
 18 47  1  0
 18 48  1  0
 19 20  2  0
 19 49  1  0
 20 21  1  0
 20 50  1  0
 21 22  1  0
 21 23  1  0
 21 51  1  1
 22 52  1  0
 23 24  1  6
 24 53  1  0
 24 54  1  0
 24 55  1  0
 25 31  1  0
 25 26  1  0
 26 27  1  0
 26 28  1  0
 26 56  1  6
 27 57  1  0
 27 58  1  0
 27 59  1  0
 28 29  1  0
 28 60  1  0
 28 61  1  0
 29 30  1  0
 29 62  1  0
 29 63  1  0
 30 31  1  0
 30 64  1  6
 31 32  1  0
 31 65  1  6
 32 66  1  0
M  END
>  <i_m_ct_stereo_status>  (315) 
1

>  <s_m_source_file>  (315) 
/var/tmp/pbs.5076255.sched01/tmpt25ahaql/1236iipj8y0.sdf

>  <i_m_source_file_index>  (315) 
11

>  <i_lp_mmshare_version>  (315) 
48012

>  <i_f3d_flags>  (315) 
0

>  <s_epik_input>  (315) 
W0NIM11bQ0BIXTFbQ0gyXVtDSDJdW0NASF0oW0NASF0yW09IXSlDKD1bQ0gyXSlbQ0BASF0oW09IXSlbQ0BASF0oW0NAQF0xMjMpW0NAQEhdKFtPSF0pW0NAQEhdKFtPSF0pW0NAQF00KFtPSF0pW0NAXTMoW09IXSlDKD1PKVtDSDJdW0NAQF01KFtDSDNdKVtDQF00KFtDSDNdKVtDQEhdKFtPSF0pW0NIXT1bQ0hdNQ==

>  <s_epik_cmdline>  (315) 
J2VwaWtfcHl0aG9uJywgJy1waHQnLCAnMi4wJywgJy1waCcsICc3LjAnLCAnLXRuJywgJzgnLCAnLW1hJywgJzIwMCcsICctaW1hZScsICc8aW5maWxlLm1hZT4nLCAnLW9tYWUnLCAnPG91dGZpbGUubWFlPic=

>  <r_lp_tautomer_probability>  (315) 
1

>  <r_epik_Ionization_Penalty>  (315) 
4.08985e-07

>  <r_epik_Ionization_Penalty_Charging>  (315) 
0

>  <r_epik_Ionization_Penalty_Neutral>  (315) 
4.08985e-07

>  <r_epik_State_Penalty>  (315) 
-0

>  <r_epik_Charging_Adjusted_Penalty>  (315) 
0

>  <i_epik_Tot_Q>  (315) 
0

>  <i_epik_Tot_abs_Q>  (315) 
0

>  <s_lp_Force_Field>  (315) 
OPLS3e

>  <r_lp_Energy>  (315) 
98.4989

>  <b_lp_Chiralities_Consistent>  (315) 
1

>  <s_lp_Variant>  (315) 
94:0-1

>  <s_i_glide_gridfile>  (315) 
pfpi4k_grid

>  <i_i_glide_lignum>  (315) 
11

>  <i_i_glide_rotatable_bonds>  (315) 
7

>  <r_i_docking_score>  (315) 
-3.72227

>  <r_i_glide_ligand_efficiency>  (315) 
-0.116321

>  <r_i_glide_ligand_efficiency_sa>  (315) 
-0.369296

>  <r_i_glide_ligand_efficiency_ln>  (315) 
-0.833518

>  <r_i_glide_gscore>  (315) 
-3.72227

>  <r_i_glide_lipo>  (315) 
-0.31765

>  <r_i_glide_hbond>  (315) 
-0.0690899

>  <r_i_glide_metal>  (315) 
-0

>  <r_i_glide_rewards>  (315) 
-0.946763

>  <r_i_glide_evdw>  (315) 
-26.1899

>  <r_i_glide_ecoul>  (315) 
-7.19515

>  <r_i_glide_erotb>  (315) 
0

>  <r_i_glide_esite>  (315) 
0

>  <r_i_glide_emodel>  (315) 
-46.9763

>  <r_i_glide_energy>  (315) 
-33.385

>  <r_i_glide_einternal>  (315) 
3.92731

>  <r_i_glide_intrahb_reward>  (315) 
-0.5

>  <i_i_glide_confnum>  (315) 
1

>  <i_i_glide_posenum>  (315) 
34

>  <r_i_glide_eff_state_penalty>  (315) 
0

>  <ligand_id>  (315) 
94

>  <original_smiles>  (315) 
C=C1C(O)C2C(O)C(O)C3(O)C(O)(C(=O)CC4(C)C=CC(O)C43C)C23C(C)CCC1C3O

>  <smiles>  (315) 
[H]OC1([H])C(=C([H])[H])C2([H])C([H])([H])C([H])([H])C([H])(C([H])([H])[H])C3(C2([H])O[H])C2(O[H])C(=O)C([H])([H])C4(C([H])([H])[H])C([H])=C([H])C([H])(O[H])C4(C([H])([H])[H])C2(O[H])C([H])(O[H])C([H])(O[H])C13[H]

$$$$
94:0:2
     RDKit          3D

 66 70  0  0  1  0  0  0  0  0999 V2000
    2.5989  -10.2208    2.3593 C   0  0  0  0  0  0  0  0  0  0  0  0
    3.2861   -9.1647    2.8192 C   0  0  0  0  0  0  0  0  0  0  0  0
    2.5480   -8.0023    3.4597 C   0  0  1  0  0  0  0  0  0  0  0  0
    2.4368   -8.1763    4.8516 O   0  0  0  0  0  0  0  0  0  0  0  0
    3.0802   -6.5934    3.0569 C   0  0  2  0  0  0  0  0  0  0  0  0
    2.3205   -6.1589    1.7742 C   0  0  1  0  0  0  0  0  0  0  0  0
    1.0556   -5.6821    2.2153 O   0  0  0  0  0  0  0  0  0  0  0  0
    3.0410   -5.1288    0.8629 C   0  0  1  0  0  0  0  0  0  0  0  0
    2.0953   -4.5989   -0.0260 O   0  0  0  0  0  0  0  0  0  0  0  0
    3.9765   -4.1255    1.6047 C   0  0  1  0  0  0  0  0  0  0  0  0
    3.1136   -3.4773    2.5315 O   0  0  0  0  0  0  0  0  0  0  0  0
    5.0757   -4.9808    2.4128 C   0  0  2  0  0  0  0  0  0  0  0  0
    5.3693   -4.1749    3.5350 O   0  0  0  0  0  0  0  0  0  0  0  0
    6.3988   -5.0275    1.5968 C   0  0  0  0  0  0  0  0  0  0  0  0
    7.4912   -5.2653    2.1076 O   0  0  0  0  0  0  0  0  0  0  0  0
    6.2977   -4.8436    0.0829 C   0  0  0  0  0  0  0  0  0  0  0  0
    5.6518   -3.5237   -0.3817 C   0  0  2  0  0  0  0  0  0  0  0  0
    5.1264   -3.7707   -1.8104 C   0  0  0  0  0  0  0  0  0  0  0  0
    6.7080   -2.4419   -0.4451 C   0  0  0  0  0  0  0  0  0  0  0  0
    6.5833   -1.5305    0.5168 C   0  0  0  0  0  0  0  0  0  0  0  0
    5.4770   -1.8891    1.4692 C   0  0  1  0  0  0  0  0  0  0  0  0
    4.8081   -0.7259    1.9360 O   0  0  0  0  0  0  0  0  0  0  0  0
    4.6077   -2.9533    0.6702 C   0  0  2  0  0  0  0  0  0  0  0  0
    3.5377   -2.0875   -0.0826 C   0  0  0  0  0  0  0  0  0  0  0  0
    4.6487   -6.4638    2.9659 C   0  0  1  0  0  0  0  0  0  0  0  0
    5.3329   -6.7500    4.4010 C   0  0  1  0  0  0  0  0  0  0  0  0
    4.7261   -6.0202    5.6384 C   0  0  0  0  0  0  0  0  0  0  0  0
    5.5295   -8.2301    4.8642 C   0  0  0  0  0  0  0  0  0  0  0  0
    5.6670   -9.3038    3.7880 C   0  0  0  0  0  0  0  0  0  0  0  0
    4.7896   -9.0203    2.5755 C   0  0  2  0  0  0  0  0  0  0  0  0
    5.1564   -7.6387    2.0358 C   0  0  1  0  0  0  0  0  0  0  0  0
    4.6661   -7.6648    0.7176 O   0  0  0  0  0  0  0  0  0  0  0  0
    3.0947  -11.0368    1.8599 H   0  0  0  0  0  0  0  0  0  0  0  0
    1.5269  -10.2863    2.4728 H   0  0  0  0  0  0  0  0  0  0  0  0
    1.5101   -8.0870    3.1391 H   0  0  0  0  0  0  0  0  0  0  0  0
    2.1257   -9.0563    5.0129 H   0  0  0  0  0  0  0  0  0  0  0  0
    2.7687   -5.9029    3.8437 H   0  0  0  0  0  0  0  0  0  0  0  0
    2.1176   -7.0277    1.1510 H   0  0  0  0  0  0  0  0  0  0  0  0
    1.2239   -4.9686    2.8215 H   0  0  0  0  0  0  0  0  0  0  0  0
    3.6625   -5.6515    0.1563 H   0  0  0  0  0  0  0  0  0  0  0  0
    2.5611   -4.2020   -0.7507 H   0  0  0  0  0  0  0  0  0  0  0  0
    2.5716   -2.8800    2.0317 H   0  0  0  0  0  0  0  0  0  0  0  0
    4.5500   -4.0424    3.9965 H   0  0  0  0  0  0  0  0  0  0  0  0
    7.3164   -4.8963   -0.3016 H   0  0  0  0  0  0  0  0  0  0  0  0
    5.7626   -5.6980   -0.3364 H   0  0  0  0  0  0  0  0  0  0  0  0
    4.2940   -4.4709   -1.8042 H   0  0  0  0  0  0  0  0  0  0  0  0
    5.8934   -4.2236   -2.4402 H   0  0  0  0  0  0  0  0  0  0  0  0
    4.8002   -2.8604   -2.3114 H   0  0  0  0  0  0  0  0  0  0  0  0
    7.4545   -2.4220   -1.2233 H   0  0  0  0  0  0  0  0  0  0  0  0
    7.2191   -0.6657    0.6591 H   0  0  0  0  0  0  0  0  0  0  0  0
    6.0263   -2.2936    2.3146 H   0  0  0  0  0  0  0  0  0  0  0  0
    4.2186   -0.4219    1.2596 H   0  0  0  0  0  0  0  0  0  0  0  0
    4.0082   -1.2083   -0.5338 H   0  0  0  0  0  0  0  0  0  0  0  0
    2.7450   -1.7229    0.5723 H   0  0  0  0  0  0  0  0  0  0  0  0
    3.0464   -2.5784   -0.9190 H   0  0  0  0  0  0  0  0  0  0  0  0
    6.3564   -6.3829    4.2989 H   0  0  0  0  0  0  0  0  0  0  0  0
    3.9359   -6.6079    6.1008 H   0  0  0  0  0  0  0  0  0  0  0  0
    4.2722   -5.0545    5.4380 H   0  0  0  0  0  0  0  0  0  0  0  0
    5.4946   -5.8786    6.4006 H   0  0  0  0  0  0  0  0  0  0  0  0
    6.4244   -8.2750    5.4845 H   0  0  0  0  0  0  0  0  0  0  0  0
    4.7457   -8.5429    5.5510 H   0  0  0  0  0  0  0  0  0  0  0  0
    6.7099   -9.3577    3.4712 H   0  0  0  0  0  0  0  0  0  0  0  0
    5.4319  -10.2828    4.2047 H   0  0  0  0  0  0  0  0  0  0  0  0
    5.0683   -9.7695    1.8290 H   0  0  0  0  0  0  0  0  0  0  0  0
    6.2461   -7.6149    1.9623 H   0  0  0  0  0  0  0  0  0  0  0  0
    5.0039   -6.9191    0.2480 H   0  0  0  0  0  0  0  0  0  0  0  0
  1  2  2  0
  1 33  1  0
  1 34  1  0
  2 30  1  0
  2  3  1  0
  3  4  1  0
  3  5  1  0
  3 35  1  6
  4 36  1  0
  5 25  1  0
  5  6  1  0
  5 37  1  1
  6  7  1  0
  6  8  1  0
  6 38  1  6
  7 39  1  0
  8  9  1  0
  8 10  1  0
  8 40  1  6
  9 41  1  0
 10 23  1  0
 10 11  1  1
 10 12  1  0
 11 42  1  0
 12 13  1  1
 12 14  1  0
 25 12  1  6
 13 43  1  0
 14 15  2  0
 14 16  1  0
 16 17  1  0
 16 44  1  0
 16 45  1  0
 17 23  1  0
 17 18  1  6
 17 19  1  0
 18 46  1  0
 18 47  1  0
 18 48  1  0
 19 20  2  0
 19 49  1  0
 20 21  1  0
 20 50  1  0
 21 22  1  0
 21 23  1  0
 21 51  1  1
 22 52  1  0
 23 24  1  6
 24 53  1  0
 24 54  1  0
 24 55  1  0
 25 31  1  0
 25 26  1  0
 26 27  1  0
 26 28  1  0
 26 56  1  6
 27 57  1  0
 27 58  1  0
 27 59  1  0
 28 29  1  0
 28 60  1  0
 28 61  1  0
 29 30  1  0
 29 62  1  0
 29 63  1  0
 30 31  1  0
 30 64  1  6
 31 32  1  0
 31 65  1  6
 32 66  1  0
M  END
>  <i_m_ct_stereo_status>  (316) 
1

>  <s_m_source_file>  (316) 
/var/tmp/pbs.5076255.sched01/tmpt25ahaql/1236iipj8y0.sdf

>  <i_m_source_file_index>  (316) 
11

>  <i_lp_mmshare_version>  (316) 
48012

>  <i_f3d_flags>  (316) 
0

>  <s_epik_input>  (316) 
W0NIM11bQ0BIXTFbQ0gyXVtDSDJdW0NASF0oW0NASF0yW09IXSlDKD1bQ0gyXSlbQ0BASF0oW09IXSlbQ0BASF0oW0NAQF0xMjMpW0NAQEhdKFtPSF0pW0NAQEhdKFtPSF0pW0NAQF00KFtPSF0pW0NAXTMoW09IXSlDKD1PKVtDSDJdW0NAQF01KFtDSDNdKVtDQF00KFtDSDNdKVtDQEhdKFtPSF0pW0NIXT1bQ0hdNQ==

>  <s_epik_cmdline>  (316) 
J2VwaWtfcHl0aG9uJywgJy1waHQnLCAnMi4wJywgJy1waCcsICc3LjAnLCAnLXRuJywgJzgnLCAnLW1hJywgJzIwMCcsICctaW1hZScsICc8aW5maWxlLm1hZT4nLCAnLW9tYWUnLCAnPG91dGZpbGUubWFlPic=

>  <r_lp_tautomer_probability>  (316) 
1

>  <r_epik_Ionization_Penalty>  (316) 
4.08985e-07

>  <r_epik_Ionization_Penalty_Charging>  (316) 
0

>  <r_epik_Ionization_Penalty_Neutral>  (316) 
4.08985e-07

>  <r_epik_State_Penalty>  (316) 
-0

>  <r_epik_Charging_Adjusted_Penalty>  (316) 
0

>  <i_epik_Tot_Q>  (316) 
0

>  <i_epik_Tot_abs_Q>  (316) 
0

>  <s_lp_Force_Field>  (316) 
OPLS3e

>  <r_lp_Energy>  (316) 
98.4989

>  <b_lp_Chiralities_Consistent>  (316) 
1

>  <s_lp_Variant>  (316) 
94:0-1

>  <s_i_glide_gridfile>  (316) 
pfpi4k_grid

>  <i_i_glide_lignum>  (316) 
11

>  <i_i_glide_rotatable_bonds>  (316) 
7

>  <r_i_docking_score>  (316) 
-3.51293

>  <r_i_glide_ligand_efficiency>  (316) 
-0.109779

>  <r_i_glide_ligand_efficiency_sa>  (316) 
-0.348526

>  <r_i_glide_ligand_efficiency_ln>  (316) 
-0.78664

>  <r_i_glide_gscore>  (316) 
-3.51293

>  <r_i_glide_lipo>  (316) 
-0.340711

>  <r_i_glide_hbond>  (316) 
0

>  <r_i_glide_metal>  (316) 
-0

>  <r_i_glide_rewards>  (316) 
-0.938721

>  <r_i_glide_evdw>  (316) 
-23.633

>  <r_i_glide_ecoul>  (316) 
-7.0123

>  <r_i_glide_erotb>  (316) 
0

>  <r_i_glide_esite>  (316) 
0

>  <r_i_glide_emodel>  (316) 
-45.2206

>  <r_i_glide_energy>  (316) 
-30.6453

>  <r_i_glide_einternal>  (316) 
1.4136

>  <r_i_glide_intrahb_reward>  (316) 
-0.5

>  <i_i_glide_confnum>  (316) 
2

>  <i_i_glide_posenum>  (316) 
37

>  <r_i_glide_eff_state_penalty>  (316) 
0

>  <ligand_id>  (316) 
94

>  <original_smiles>  (316) 
C=C1C(O)C2C(O)C(O)C3(O)C(O)(C(=O)CC4(C)C=CC(O)C43C)C23C(C)CCC1C3O

>  <smiles>  (316) 
[H]OC1([H])C(=C([H])[H])C2([H])C([H])([H])C([H])([H])C([H])(C([H])([H])[H])C3(C2([H])O[H])C2(O[H])C(=O)C([H])([H])C4(C([H])([H])[H])C([H])=C([H])C([H])(O[H])C4(C([H])([H])[H])C2(O[H])C([H])(O[H])C([H])(O[H])C13[H]

$$$$
95:0:0
     RDKit          3D

 31 34  0  0  1  0  0  0  0  0999 V2000
    3.1471    0.1475   -5.3468 C   0  0  0  0  0  0  0  0  0  0  0  0
    3.8746    0.1445   -4.1281 O   0  0  0  0  0  0  0  0  0  0  0  0
    3.7606   -0.9510   -3.2994 C   0  0  0  0  0  0  0  0  0  0  0  0
    3.1960   -2.1818   -3.6884 C   0  0  0  0  0  0  0  0  0  0  0  0
    3.0943   -3.2211   -2.7467 C   0  0  0  0  0  0  0  0  0  0  0  0
    3.5335   -3.0751   -1.4071 C   0  0  0  0  0  0  0  0  0  0  0  0
    4.1479   -1.8530   -1.0334 C   0  0  0  0  0  0  0  0  0  0  0  0
    4.2493   -0.8164   -1.9887 C   0  0  0  0  0  0  0  0  0  0  0  0
    4.6483   -1.5952    0.2727 N   0  0  0  0  0  0  0  0  0  0  0  0
    4.6010   -0.4166    0.9349 N   0  0  0  0  0  0  0  0  0  0  0  0
    5.2054   -0.6211    2.0672 N   0  0  0  0  0  0  0  0  0  0  0  0
    5.6978   -1.9109    2.1573 N   0  0  0  0  0  0  0  0  0  0  0  0
    5.3212   -2.4742    1.0175 C   0  0  0  0  0  0  0  0  0  0  0  0
    5.5564   -3.8922    0.6390 C   0  0  0  0  0  0  0  0  0  0  0  0
    4.2626   -4.5850    0.4114 C   0  0  0  0  0  0  0  0  0  0  0  0
    3.8213   -5.6363    1.1104 N   0  0  0  0  0  0  0  0  0  0  0  0
    2.5205   -5.8512    0.6677 N   0  0  0  0  0  0  0  0  0  0  0  0
    2.2980   -4.9522   -0.2981 C   0  0  0  0  0  0  0  0  0  0  0  0
    1.0201   -4.8723   -1.0758 C   0  0  0  0  0  0  0  0  0  0  0  0
    3.3635   -4.1429   -0.4797 N   0  0  0  0  0  0  0  0  0  0  0  0
    3.3508    1.0734   -5.8815 H   0  0  0  0  0  0  0  0  0  0  0  0
    2.0725    0.0952   -5.1639 H   0  0  0  0  0  0  0  0  0  0  0  0
    3.4456   -0.6554   -6.0191 H   0  0  0  0  0  0  0  0  0  0  0  0
    2.8355   -2.3613   -4.6867 H   0  0  0  0  0  0  0  0  0  0  0  0
    2.6589   -4.1402   -3.0947 H   0  0  0  0  0  0  0  0  0  0  0  0
    4.6660    0.1264   -1.6907 H   0  0  0  0  0  0  0  0  0  0  0  0
    6.1883   -3.9440   -0.2472 H   0  0  0  0  0  0  0  0  0  0  0  0
    6.0809   -4.3846    1.4523 H   0  0  0  0  0  0  0  0  0  0  0  0
    0.2866   -5.4554   -0.5316 H   0  0  0  0  0  0  0  0  0  0  0  0
    1.0143   -5.3382   -2.0506 H   0  0  0  0  0  0  0  0  0  0  0  0
    0.6983   -3.8375   -1.1854 H   0  0  0  0  0  0  0  0  0  0  0  0
  1  2  1  0
  1 21  1  0
  1 22  1  0
  1 23  1  0
  2  3  1  0
  3  8  2  0
  3  4  1  0
  4  5  2  0
  4 24  1  0
  5  6  1  0
  5 25  1  0
  6 20  1  0
  6  7  2  0
  7  8  1  0
  7  9  1  0
  8 26  1  0
  9 13  1  0
  9 10  1  0
 10 11  2  0
 11 12  1  0
 12 13  2  0
 13 14  1  0
 14 15  1  0
 14 27  1  0
 14 28  1  0
 15 20  1  0
 15 16  2  0
 16 17  1  0
 17 18  2  0
 18 19  1  0
 18 20  1  0
 19 29  1  0
 19 30  1  0
 19 31  1  0
M  END
>  <i_m_ct_stereo_status>  (317) 
1

>  <s_m_source_file>  (317) 
/var/tmp/pbs.5076255.sched01/tmpt25ahaql/1236iipj8y0.sdf

>  <i_m_source_file_index>  (317) 
12

>  <i_lp_mmshare_version>  (317) 
48012

>  <i_f3d_flags>  (317) 
0

>  <s_epik_input>  (317) 
W0NIM11PYyhbY0hdW2NIXTEpW2NIXWMoYzEyKW4zYyhubm4zKVtDSDJdYzRuMmMobm40KVtDSDNd

>  <s_epik_cmdline>  (317) 
J2VwaWtfcHl0aG9uJywgJy1waHQnLCAnMi4wJywgJy1waCcsICc3LjAnLCAnLXRuJywgJzgnLCAnLW1hJywgJzIwMCcsICctaW1hZScsICc8aW5maWxlLm1hZT4nLCAnLW9tYWUnLCAnPG91dGZpbGUubWFlPic=

>  <r_lp_tautomer_probability>  (317) 
1

>  <r_epik_Ionization_Penalty>  (317) 
5.58474e-05

>  <r_epik_Ionization_Penalty_Charging>  (317) 
0

>  <r_epik_Ionization_Penalty_Neutral>  (317) 
5.58474e-05

>  <r_epik_State_Penalty>  (317) 
-0

>  <r_epik_Charging_Adjusted_Penalty>  (317) 
0

>  <i_epik_Tot_Q>  (317) 
0

>  <i_epik_Tot_abs_Q>  (317) 
0

>  <s_lp_Force_Field>  (317) 
OPLS3e

>  <r_lp_Energy>  (317) 
27.2989

>  <b_lp_Chiralities_Consistent>  (317) 
1

>  <s_lp_Variant>  (317) 
95:0-1

>  <s_i_glide_gridfile>  (317) 
pfpi4k_grid

>  <i_i_glide_lignum>  (317) 
12

>  <i_i_glide_rotatable_bonds>  (317) 
1

>  <r_i_docking_score>  (317) 
-3.67949

>  <r_i_glide_ligand_efficiency>  (317) 
-0.183974

>  <r_i_glide_ligand_efficiency_sa>  (317) 
-0.499383

>  <r_i_glide_ligand_efficiency_ln>  (317) 
-0.920854

>  <r_i_glide_gscore>  (317) 
-3.67949

>  <r_i_glide_lipo>  (317) 
-0.560809

>  <r_i_glide_hbond>  (317) 
0

>  <r_i_glide_metal>  (317) 
-0

>  <r_i_glide_rewards>  (317) 
-1.68832

>  <r_i_glide_evdw>  (317) 
-21.5242

>  <r_i_glide_ecoul>  (317) 
-1.41624

>  <r_i_glide_erotb>  (317) 
0

>  <r_i_glide_esite>  (317) 
-0.141713

>  <r_i_glide_emodel>  (317) 
-28.4648

>  <r_i_glide_energy>  (317) 
-22.9404

>  <r_i_glide_einternal>  (317) 
0.467448

>  <r_i_glide_intrahb_reward>  (317) 
-0

>  <i_i_glide_confnum>  (317) 
2

>  <i_i_glide_posenum>  (317) 
24

>  <r_i_glide_eff_state_penalty>  (317) 
0

>  <ligand_id>  (317) 
95

>  <original_smiles>  (317) 
COc1ccc2c(c1)-n1nnnc1Cc1nnc(C)n1-2

>  <smiles>  (317) 
[H]c1c([H])c2c(c([H])c1OC([H])([H])[H])-n1nnnc1C([H])([H])c1nnc(C([H])([H])[H])n1-2

$$$$
95:0:1
     RDKit          3D

 31 34  0  0  1  0  0  0  0  0999 V2000
    2.0286   -0.7109    1.6808 C   0  0  0  0  0  0  0  0  0  0  0  0
    2.6872   -0.3149    2.8835 O   0  0  0  0  0  0  0  0  0  0  0  0
    2.3226    0.8994    3.4287 C   0  0  0  0  0  0  0  0  0  0  0  0
    3.2735    1.6053    4.1983 C   0  0  0  0  0  0  0  0  0  0  0  0
    2.9514    2.8559    4.7585 C   0  0  0  0  0  0  0  0  0  0  0  0
    1.6588    3.4082    4.6000 C   0  0  0  0  0  0  0  0  0  0  0  0
    0.6962    2.6949    3.8327 C   0  0  0  0  0  0  0  0  0  0  0  0
    1.0340    1.4493    3.2751 C   0  0  0  0  0  0  0  0  0  0  0  0
   -0.6216    3.1580    3.5891 N   0  0  0  0  0  0  0  0  0  0  0  0
   -1.7340    2.3963    3.4970 N   0  0  0  0  0  0  0  0  0  0  0  0
   -2.7051    3.2087    3.1992 N   0  0  0  0  0  0  0  0  0  0  0  0
   -2.2579    4.5117    3.0708 N   0  0  0  0  0  0  0  0  0  0  0  0
   -0.9555    4.4229    3.3171 C   0  0  0  0  0  0  0  0  0  0  0  0
    0.0075    5.5599    3.3234 C   0  0  0  0  0  0  0  0  0  0  0  0
    0.6459    5.6617    4.6671 C   0  0  0  0  0  0  0  0  0  0  0  0
    0.5188    6.6999    5.5005 N   0  0  0  0  0  0  0  0  0  0  0  0
    1.1730    6.3291    6.6653 N   0  0  0  0  0  0  0  0  0  0  0  0
    1.6507    5.0971    6.4531 C   0  0  0  0  0  0  0  0  0  0  0  0
    2.3666    4.3080    7.5047 C   0  0  0  0  0  0  0  0  0  0  0  0
    1.3622    4.6625    5.2078 N   0  0  0  0  0  0  0  0  0  0  0  0
    2.3804   -1.6976    1.3626 H   0  0  0  0  0  0  0  0  0  0  0  0
    2.2607    0.0056    0.8883 H   0  0  0  0  0  0  0  0  0  0  0  0
    0.9451   -0.7888    1.7810 H   0  0  0  0  0  0  0  0  0  0  0  0
    4.2615    1.1998    4.3305 H   0  0  0  0  0  0  0  0  0  0  0  0
    3.7159    3.3966    5.3019 H   0  0  0  0  0  0  0  0  0  0  0  0
    0.2676    0.9352    2.7167 H   0  0  0  0  0  0  0  0  0  0  0  0
    0.7761    5.4386    2.5515 H   0  0  0  0  0  0  0  0  0  0  0  0
   -0.5378    6.4775    3.1185 H   0  0  0  0  0  0  0  0  0  0  0  0
    2.2170    4.7710    8.4799 H   0  0  0  0  0  0  0  0  0  0  0  0
    3.4387    4.2902    7.3100 H   0  0  0  0  0  0  0  0  0  0  0  0
    1.9949    3.2825    7.5554 H   0  0  0  0  0  0  0  0  0  0  0  0
  1  2  1  0
  1 21  1  0
  1 22  1  0
  1 23  1  0
  2  3  1  0
  3  8  2  0
  3  4  1  0
  4  5  2  0
  4 24  1  0
  5  6  1  0
  5 25  1  0
  6 20  1  0
  6  7  2  0
  7  8  1  0
  7  9  1  0
  8 26  1  0
  9 13  1  0
  9 10  1  0
 10 11  2  0
 11 12  1  0
 12 13  2  0
 13 14  1  0
 14 15  1  0
 14 27  1  0
 14 28  1  0
 15 20  1  0
 15 16  2  0
 16 17  1  0
 17 18  2  0
 18 19  1  0
 18 20  1  0
 19 29  1  0
 19 30  1  0
 19 31  1  0
M  END
>  <i_m_ct_stereo_status>  (318) 
1

>  <s_m_source_file>  (318) 
/var/tmp/pbs.5076255.sched01/tmpt25ahaql/1236iipj8y0.sdf

>  <i_m_source_file_index>  (318) 
12

>  <i_lp_mmshare_version>  (318) 
48012

>  <i_f3d_flags>  (318) 
0

>  <s_epik_input>  (318) 
W0NIM11PYyhbY0hdW2NIXTEpW2NIXWMoYzEyKW4zYyhubm4zKVtDSDJdYzRuMmMobm40KVtDSDNd

>  <s_epik_cmdline>  (318) 
J2VwaWtfcHl0aG9uJywgJy1waHQnLCAnMi4wJywgJy1waCcsICc3LjAnLCAnLXRuJywgJzgnLCAnLW1hJywgJzIwMCcsICctaW1hZScsICc8aW5maWxlLm1hZT4nLCAnLW9tYWUnLCAnPG91dGZpbGUubWFlPic=

>  <r_lp_tautomer_probability>  (318) 
1

>  <r_epik_Ionization_Penalty>  (318) 
5.58474e-05

>  <r_epik_Ionization_Penalty_Charging>  (318) 
0

>  <r_epik_Ionization_Penalty_Neutral>  (318) 
5.58474e-05

>  <r_epik_State_Penalty>  (318) 
-0

>  <r_epik_Charging_Adjusted_Penalty>  (318) 
0

>  <i_epik_Tot_Q>  (318) 
0

>  <i_epik_Tot_abs_Q>  (318) 
0

>  <s_lp_Force_Field>  (318) 
OPLS3e

>  <r_lp_Energy>  (318) 
27.2989

>  <b_lp_Chiralities_Consistent>  (318) 
1

>  <s_lp_Variant>  (318) 
95:0-1

>  <s_i_glide_gridfile>  (318) 
pfpi4k_grid

>  <i_i_glide_lignum>  (318) 
12

>  <i_i_glide_rotatable_bonds>  (318) 
1

>  <r_i_docking_score>  (318) 
-3.63494

>  <r_i_glide_ligand_efficiency>  (318) 
-0.181747

>  <r_i_glide_ligand_efficiency_sa>  (318) 
-0.493338

>  <r_i_glide_ligand_efficiency_ln>  (318) 
-0.909706

>  <r_i_glide_gscore>  (318) 
-3.63494

>  <r_i_glide_lipo>  (318) 
0

>  <r_i_glide_hbond>  (318) 
0

>  <r_i_glide_metal>  (318) 
-0

>  <r_i_glide_rewards>  (318) 
-1.57321

>  <r_i_glide_evdw>  (318) 
-17.8412

>  <r_i_glide_ecoul>  (318) 
-4.82729

>  <r_i_glide_erotb>  (318) 
0

>  <r_i_glide_esite>  (318) 
-0.445578

>  <r_i_glide_emodel>  (318) 
-26.0684

>  <r_i_glide_energy>  (318) 
-22.6685

>  <r_i_glide_einternal>  (318) 
4.58091

>  <r_i_glide_intrahb_reward>  (318) 
-0

>  <i_i_glide_confnum>  (318) 
2

>  <i_i_glide_posenum>  (318) 
30

>  <r_i_glide_eff_state_penalty>  (318) 
0

>  <ligand_id>  (318) 
95

>  <original_smiles>  (318) 
COc1ccc2c(c1)-n1nnnc1Cc1nnc(C)n1-2

>  <smiles>  (318) 
[H]c1c([H])c2c(c([H])c1OC([H])([H])[H])-n1nnnc1C([H])([H])c1nnc(C([H])([H])[H])n1-2

$$$$
95:0:2
     RDKit          3D

 31 34  0  0  1  0  0  0  0  0999 V2000
   -4.4727    4.1699    2.0544 C   0  0  0  0  0  0  0  0  0  0  0  0
   -3.3041    4.8578    2.4783 O   0  0  0  0  0  0  0  0  0  0  0  0
   -2.3280    4.1413    3.1406 C   0  0  0  0  0  0  0  0  0  0  0  0
   -2.5235    2.8572    3.6912 C   0  0  0  0  0  0  0  0  0  0  0  0
   -1.4775    2.2140    4.3741 C   0  0  0  0  0  0  0  0  0  0  0  0
   -0.2183    2.8369    4.5390 C   0  0  0  0  0  0  0  0  0  0  0  0
   -0.0045    4.1188    3.9539 C   0  0  0  0  0  0  0  0  0  0  0  0
   -1.0681    4.7566    3.2825 C   0  0  0  0  0  0  0  0  0  0  0  0
    1.2325    4.8155    4.0127 N   0  0  0  0  0  0  0  0  0  0  0  0
    1.3902    6.1527    4.1500 N   0  0  0  0  0  0  0  0  0  0  0  0
    2.6736    6.3686    4.1281 N   0  0  0  0  0  0  0  0  0  0  0  0
    3.3856    5.1911    3.9674 N   0  0  0  0  0  0  0  0  0  0  0  0
    2.4438    4.2567    3.8943 C   0  0  0  0  0  0  0  0  0  0  0  0
    2.6779    2.7927    3.7774 C   0  0  0  0  0  0  0  0  0  0  0  0
    2.0940    2.0720    4.9457 C   0  0  0  0  0  0  0  0  0  0  0  0
    2.7875    1.3446    5.8260 N   0  0  0  0  0  0  0  0  0  0  0  0
    1.8754    0.9590    6.8002 N   0  0  0  0  0  0  0  0  0  0  0  0
    0.6974    1.4765    6.4357 C   0  0  0  0  0  0  0  0  0  0  0  0
   -0.5480    1.3329    7.2564 C   0  0  0  0  0  0  0  0  0  0  0  0
    0.7929    2.1506    5.2695 N   0  0  0  0  0  0  0  0  0  0  0  0
   -5.1379    4.8691    1.5451 H   0  0  0  0  0  0  0  0  0  0  0  0
   -5.0418    3.7484    2.8801 H   0  0  0  0  0  0  0  0  0  0  0  0
   -4.2335    3.3770    1.3430 H   0  0  0  0  0  0  0  0  0  0  0  0
   -3.4679    2.3470    3.6082 H   0  0  0  0  0  0  0  0  0  0  0  0
   -1.6545    1.2263    4.7683 H   0  0  0  0  0  0  0  0  0  0  0  0
   -0.9091    5.7285    2.8352 H   0  0  0  0  0  0  0  0  0  0  0  0
    2.2562    2.4199    2.8422 H   0  0  0  0  0  0  0  0  0  0  0  0
    3.7491    2.6117    3.7510 H   0  0  0  0  0  0  0  0  0  0  0  0
   -0.2826    1.0013    8.2598 H   0  0  0  0  0  0  0  0  0  0  0  0
   -1.2076    0.5793    6.8270 H   0  0  0  0  0  0  0  0  0  0  0  0
   -1.0835    2.2805    7.3441 H   0  0  0  0  0  0  0  0  0  0  0  0
  1  2  1  0
  1 21  1  0
  1 22  1  0
  1 23  1  0
  2  3  1  0
  3  8  2  0
  3  4  1  0
  4  5  2  0
  4 24  1  0
  5  6  1  0
  5 25  1  0
  6 20  1  0
  6  7  2  0
  7  8  1  0
  7  9  1  0
  8 26  1  0
  9 13  1  0
  9 10  1  0
 10 11  2  0
 11 12  1  0
 12 13  2  0
 13 14  1  0
 14 15  1  0
 14 27  1  0
 14 28  1  0
 15 20  1  0
 15 16  2  0
 16 17  1  0
 17 18  2  0
 18 19  1  0
 18 20  1  0
 19 29  1  0
 19 30  1  0
 19 31  1  0
M  END
>  <i_m_ct_stereo_status>  (319) 
1

>  <s_m_source_file>  (319) 
/var/tmp/pbs.5076255.sched01/tmpt25ahaql/1236iipj8y0.sdf

>  <i_m_source_file_index>  (319) 
12

>  <i_lp_mmshare_version>  (319) 
48012

>  <i_f3d_flags>  (319) 
0

>  <s_epik_input>  (319) 
W0NIM11PYyhbY0hdW2NIXTEpW2NIXWMoYzEyKW4zYyhubm4zKVtDSDJdYzRuMmMobm40KVtDSDNd

>  <s_epik_cmdline>  (319) 
J2VwaWtfcHl0aG9uJywgJy1waHQnLCAnMi4wJywgJy1waCcsICc3LjAnLCAnLXRuJywgJzgnLCAnLW1hJywgJzIwMCcsICctaW1hZScsICc8aW5maWxlLm1hZT4nLCAnLW9tYWUnLCAnPG91dGZpbGUubWFlPic=

>  <r_lp_tautomer_probability>  (319) 
1

>  <r_epik_Ionization_Penalty>  (319) 
5.58474e-05

>  <r_epik_Ionization_Penalty_Charging>  (319) 
0

>  <r_epik_Ionization_Penalty_Neutral>  (319) 
5.58474e-05

>  <r_epik_State_Penalty>  (319) 
-0

>  <r_epik_Charging_Adjusted_Penalty>  (319) 
0

>  <i_epik_Tot_Q>  (319) 
0

>  <i_epik_Tot_abs_Q>  (319) 
0

>  <s_lp_Force_Field>  (319) 
OPLS3e

>  <r_lp_Energy>  (319) 
27.2989

>  <b_lp_Chiralities_Consistent>  (319) 
1

>  <s_lp_Variant>  (319) 
95:0-1

>  <s_i_glide_gridfile>  (319) 
pfpi4k_grid

>  <i_i_glide_lignum>  (319) 
12

>  <i_i_glide_rotatable_bonds>  (319) 
1

>  <r_i_docking_score>  (319) 
-3.24958

>  <r_i_glide_ligand_efficiency>  (319) 
-0.162479

>  <r_i_glide_ligand_efficiency_sa>  (319) 
-0.441035

>  <r_i_glide_ligand_efficiency_ln>  (319) 
-0.813262

>  <r_i_glide_gscore>  (319) 
-3.24958

>  <r_i_glide_lipo>  (319) 
-0.124974

>  <r_i_glide_hbond>  (319) 
-0.0814428

>  <r_i_glide_metal>  (319) 
-0

>  <r_i_glide_rewards>  (319) 
-1.57321

>  <r_i_glide_evdw>  (319) 
-19.2465

>  <r_i_glide_ecoul>  (319) 
-2.47875

>  <r_i_glide_erotb>  (319) 
0

>  <r_i_glide_esite>  (319) 
-0.13581

>  <r_i_glide_emodel>  (319) 
-26.7227

>  <r_i_glide_energy>  (319) 
-21.7252

>  <r_i_glide_einternal>  (319) 
0.419408

>  <r_i_glide_intrahb_reward>  (319) 
-0

>  <i_i_glide_confnum>  (319) 
2

>  <i_i_glide_posenum>  (319) 
40

>  <r_i_glide_eff_state_penalty>  (319) 
0

>  <ligand_id>  (319) 
95

>  <original_smiles>  (319) 
COc1ccc2c(c1)-n1nnnc1Cc1nnc(C)n1-2

>  <smiles>  (319) 
[H]c1c([H])c2c(c([H])c1OC([H])([H])[H])-n1nnnc1C([H])([H])c1nnc(C([H])([H])[H])n1-2

$$$$
96:0:0
     RDKit          3D

 74 81  0  0  1  0  0  0  0  0999 V2000
    0.9065    1.8674    2.2931 C   0  0  0  0  0  0  0  0  0  0  0  0
    0.4955    0.5678    3.0020 C   0  0  0  0  0  0  0  0  0  0  0  0
    1.6747   -0.4158    3.1499 C   0  0  2  0  0  0  0  0  0  0  0  0
    1.2217   -1.6678    3.9157 C   0  0  0  0  0  0  0  0  0  0  0  0
    2.3784   -2.6744    4.2026 C   0  0  1  0  0  0  0  0  0  0  0  0
    3.6477   -1.9230    4.7115 C   0  0  1  0  0  0  0  0  0  0  0  0
    3.7210   -1.7953    6.2618 C   0  0  0  0  0  0  0  0  0  0  0  0
    3.1127   -1.1793    7.1159 O   0  0  0  0  0  0  0  0  0  0  0  0
    4.7288   -2.7147    6.3740 O   0  0  0  0  0  0  0  0  0  0  0  0
    4.9109   -2.7217    4.9369 C   0  0  1  0  0  0  0  0  0  0  0  0
    5.0422   -4.0458    4.2118 C   0  0  0  0  0  0  0  0  0  0  0  0
    4.2455   -5.2831    4.7340 C   0  0  2  0  0  0  0  0  0  0  0  0
    5.3564   -5.9730    5.5927 C   0  0  0  0  0  0  0  0  0  0  0  0
    3.9321   -6.2368    3.5087 C   0  0  1  0  0  0  0  0  0  0  0  0
    3.5849   -7.7224    3.8477 C   0  0  0  0  0  0  0  0  0  0  0  0
    3.9739   -8.7747    2.7785 C   0  0  1  0  0  0  0  0  0  0  0  0
    3.4296  -10.1561    3.1641 C   0  0  0  0  0  0  0  0  0  0  0  0
    3.5547   -8.4125    1.3606 C   0  0  2  0  0  0  0  0  0  0  0  0
    4.1402   -7.1852    0.8913 O   0  0  0  0  0  0  0  0  0  0  0  0
    2.9108   -6.4811    1.1565 C   0  0  1  0  0  0  0  0  0  0  0  0
    2.2734   -7.7646    1.3315 O   0  0  0  0  0  0  0  0  0  0  0  0
    2.9420   -5.6663    2.4503 C   0  0  1  0  0  0  0  0  0  0  0  0
    1.5947   -5.7041    2.8864 O   0  0  0  0  0  0  0  0  0  0  0  0
    1.0470   -4.8790    3.9133 C   0  0  0  0  0  0  0  0  0  0  0  0
    1.8850   -4.0213    4.9167 C   0  0  2  0  0  0  0  0  0  0  0  0
    0.7894   -3.5906    5.9638 C   0  0  0  0  0  0  0  0  0  0  0  0
    2.9643   -4.9464    5.6006 C   0  0  1  0  0  0  0  0  0  0  0  0
    2.4263   -6.0989    6.4705 C   0  0  0  0  0  0  0  0  0  0  0  0
    3.0931   -4.9255    7.1426 C   0  0  0  0  0  0  0  0  0  0  0  0
    3.8463   -0.5393    4.0211 C   0  0  2  0  0  0  0  0  0  0  0  0
    2.6460    0.2050    3.9456 O   0  0  0  0  0  0  0  0  0  0  0  0
    4.3841   -0.4985    2.5769 C   0  0  1  0  0  0  0  0  0  0  0  0
    5.8077   -1.0447    2.3413 C   0  0  0  0  0  0  0  0  0  0  0  0
    3.3811   -1.0568    1.5749 C   0  0  0  0  0  0  0  0  0  0  0  0
    3.7710   -1.6361    0.5652 O   0  0  0  0  0  0  0  0  0  0  0  0
    2.0710   -0.7891    1.8412 O   0  0  0  0  0  0  0  0  0  0  0  0
    0.0520    2.5376    2.2026 H   0  0  0  0  0  0  0  0  0  0  0  0
    1.2729    1.6803    1.2828 H   0  0  0  0  0  0  0  0  0  0  0  0
    1.6828    2.3998    2.8438 H   0  0  0  0  0  0  0  0  0  0  0  0
    0.0868    0.7986    3.9896 H   0  0  0  0  0  0  0  0  0  0  0  0
   -0.2991    0.0857    2.4278 H   0  0  0  0  0  0  0  0  0  0  0  0
    0.7784   -1.2961    4.8433 H   0  0  0  0  0  0  0  0  0  0  0  0
    0.4241   -2.1349    3.3336 H   0  0  0  0  0  0  0  0  0  0  0  0
    2.6448   -3.0096    3.2144 H   0  0  0  0  0  0  0  0  0  0  0  0
    5.7396   -2.0670    4.7026 H   0  0  0  0  0  0  0  0  0  0  0  0
    4.7922   -3.8450    3.1824 H   0  0  0  0  0  0  0  0  0  0  0  0
    6.1044   -4.2893    4.1351 H   0  0  0  0  0  0  0  0  0  0  0  0
    5.0234   -6.8035    6.2126 H   0  0  0  0  0  0  0  0  0  0  0  0
    5.8380   -5.2640    6.2722 H   0  0  0  0  0  0  0  0  0  0  0  0
    6.1680   -6.3734    4.9727 H   0  0  0  0  0  0  0  0  0  0  0  0
    4.8994   -6.2973    3.0028 H   0  0  0  0  0  0  0  0  0  0  0  0
    4.0952   -8.0485    4.7492 H   0  0  0  0  0  0  0  0  0  0  0  0
    2.5196   -7.8023    4.0754 H   0  0  0  0  0  0  0  0  0  0  0  0
    5.0577   -8.8626    2.7857 H   0  0  0  0  0  0  0  0  0  0  0  0
    2.3376  -10.1668    3.1765 H   0  0  0  0  0  0  0  0  0  0  0  0
    3.7772  -10.4638    4.1525 H   0  0  0  0  0  0  0  0  0  0  0  0
    3.7520  -10.9258    2.4602 H   0  0  0  0  0  0  0  0  0  0  0  0
    3.6398   -9.2054    0.6189 H   0  0  0  0  0  0  0  0  0  0  0  0
    2.5296   -5.9694    0.2760 H   0  0  0  0  0  0  0  0  0  0  0  0
    3.2181   -4.6678    2.1456 H   0  0  0  0  0  0  0  0  0  0  0  0
    0.2459   -4.2869    3.4831 H   0  0  0  0  0  0  0  0  0  0  0  0
    0.5054   -5.6195    4.4977 H   0  0  0  0  0  0  0  0  0  0  0  0
    0.3993   -4.3974    6.5784 H   0  0  0  0  0  0  0  0  0  0  0  0
   -0.1056   -3.2011    5.4866 H   0  0  0  0  0  0  0  0  0  0  0  0
    1.1398   -2.8212    6.6476 H   0  0  0  0  0  0  0  0  0  0  0  0
    1.3542   -6.2469    6.5859 H   0  0  0  0  0  0  0  0  0  0  0  0
    2.9471   -7.0437    6.4724 H   0  0  0  0  0  0  0  0  0  0  0  0
    4.0503   -5.0980    7.6118 H   0  0  0  0  0  0  0  0  0  0  0  0
    2.4990   -4.2229    7.7255 H   0  0  0  0  0  0  0  0  0  0  0  0
    4.5210    0.0793    4.6189 H   0  0  0  0  0  0  0  0  0  0  0  0
    4.4465    0.5527    2.3175 H   0  0  0  0  0  0  0  0  0  0  0  0
    6.2001   -0.7015    1.3811 H   0  0  0  0  0  0  0  0  0  0  0  0
    5.8569   -2.1364    2.3170 H   0  0  0  0  0  0  0  0  0  0  0  0
    6.4945   -0.6712    3.1019 H   0  0  0  0  0  0  0  0  0  0  0  0
  1  2  1  0
  1 37  1  0
  1 38  1  0
  1 39  1  0
  3  2  1  6
  2 40  1  0
  2 41  1  0
  3 31  1  0
  3 36  1  0
  3  4  1  0
  4  5  1  0
  4 42  1  0
  4 43  1  0
  5 25  1  0
  5  6  1  0
  5 44  1  6
  6 10  1  0
  6  7  1  1
  6 30  1  0
  7  8  2  0
  7  9  1  0
  9 10  1  0
 10 11  1  0
 10 45  1  1
 11 12  1  0
 11 46  1  0
 11 47  1  0
 12 27  1  0
 12 13  1  1
 12 14  1  0
 13 48  1  0
 13 49  1  0
 13 50  1  0
 14 22  1  0
 14 15  1  0
 14 51  1  6
 15 16  1  0
 15 52  1  0
 15 53  1  0
 16 17  1  0
 16 18  1  0
 16 54  1  6
 17 55  1  0
 17 56  1  0
 17 57  1  0
 18 21  1  0
 18 19  1  0
 18 58  1  6
 19 20  1  0
 20 21  1  0
 20 22  1  0
 20 59  1  6
 22 23  1  0
 22 60  1  6
 23 24  1  0
 24 25  1  0
 24 61  1  0
 24 62  1  0
 25 26  1  1
 25 27  1  0
 26 63  1  0
 26 64  1  0
 26 65  1  0
 27 29  1  1
 27 28  1  0
 28 29  1  0
 28 66  1  0
 28 67  1  0
 29 68  1  0
 29 69  1  0
 30 31  1  0
 30 32  1  0
 30 70  1  1
 32 33  1  0
 32 34  1  0
 32 71  1  6
 33 72  1  0
 33 73  1  0
 33 74  1  0
 34 35  2  0
 34 36  1  0
M  END
>  <i_m_ct_stereo_status>  (320) 
1

>  <s_m_source_file>  (320) 
/var/tmp/pbs.5076255.sched01/tmpt25ahaql/1236iipj8y0.sdf

>  <i_m_source_file_index>  (320) 
13

>  <i_lp_mmshare_version>  (320) 
48012

>  <i_f3d_flags>  (320) 
0

>  <s_epik_input>  (320) 
Tz1DKE8xKVtDQEhdKFtDSDNdKVtDQEhdMk9bQ0BdMShbQ0gyXVtDSDNdKVtDSDJdW0NAQEhdKFtDQEBdMjM0KVtDQF01KFtDSDNdKUM2KFtDSDJdW0NIMl02KVtDQF0oW0NIM10pKFtDSDJdW0NAQEhdNE9DMz1PKVtDQEBIXTdbQ0BIXShPW0NIMl01KVtDQEhdOE9bQ0BIXShPOClbQ0BASF0oW0NIMl03KVtDSDNd

>  <s_epik_cmdline>  (320) 
J2VwaWtfcHl0aG9uJywgJy1waHQnLCAnMi4wJywgJy1waCcsICc3LjAnLCAnLXRuJywgJzgnLCAnLW1hJywgJzIwMCcsICctaW1hZScsICc8aW5maWxlLm1hZT4nLCAnLW9tYWUnLCAnPG91dGZpbGUubWFlPic=

>  <r_lp_tautomer_probability>  (320) 
1

>  <r_epik_Ionization_Penalty>  (320) 
3.66663e-11

>  <r_epik_Ionization_Penalty_Charging>  (320) 
0

>  <r_epik_Ionization_Penalty_Neutral>  (320) 
3.66663e-11

>  <r_epik_State_Penalty>  (320) 
-0

>  <r_epik_Charging_Adjusted_Penalty>  (320) 
0

>  <i_epik_Tot_Q>  (320) 
0

>  <i_epik_Tot_abs_Q>  (320) 
0

>  <s_epik_Chemistry_Notes>  (320) 
This compound has an ester and may undergo hydrolysis at high or low pH. This compound contains an acetal/aminal-like group ( X-CH(R)-Y where X, Y are N, S, or O) that may be acid/base labile, releasing an aldehyde.

>  <s_lp_Force_Field>  (320) 
OPLS3e

>  <r_lp_Energy>  (320) 
84.9015

>  <b_lp_Chiralities_Consistent>  (320) 
1

>  <s_lp_Variant>  (320) 
96:0-1

>  <s_i_glide_gridfile>  (320) 
pfpi4k_grid

>  <i_i_glide_lignum>  (320) 
13

>  <i_i_glide_rotatable_bonds>  (320) 
1

>  <r_i_docking_score>  (320) 
-1.5137

>  <r_i_glide_ligand_efficiency>  (320) 
-0.0420472

>  <r_i_glide_ligand_efficiency_sa>  (320) 
-0.138837

>  <r_i_glide_ligand_efficiency_ln>  (320) 
-0.330248

>  <r_i_glide_gscore>  (320) 
-1.5137

>  <r_i_glide_lipo>  (320) 
-0.221406

>  <r_i_glide_hbond>  (320) 
0

>  <r_i_glide_metal>  (320) 
-0

>  <r_i_glide_rewards>  (320) 
-0.0127727

>  <r_i_glide_evdw>  (320) 
-20.7815

>  <r_i_glide_ecoul>  (320) 
-1.23934

>  <r_i_glide_erotb>  (320) 
0

>  <r_i_glide_esite>  (320) 
-0.0545428

>  <r_i_glide_emodel>  (320) 
-22.5324

>  <r_i_glide_energy>  (320) 
-22.0209

>  <r_i_glide_einternal>  (320) 
0.0162091

>  <r_i_glide_intrahb_reward>  (320) 
-0

>  <i_i_glide_confnum>  (320) 
1

>  <i_i_glide_posenum>  (320) 
19

>  <r_i_glide_eff_state_penalty>  (320) 
0

>  <ligand_id>  (320) 
96

>  <original_smiles>  (320) 
CCC12CC3C4(C(=O)OC4CC4(C)C5CC(C)C6OC(O6)C5OCC3(C)C43CC3)C(O1)C(C)C(=O)O2

>  <smiles>  (320) 
[H]C([H])([H])C([H])([H])C12OC(=O)C([H])(C([H])([H])[H])C([H])(O1)C13C(=O)OC1([H])C([H])([H])C1(C([H])([H])[H])C4([H])C([H])([H])C([H])(C([H])([H])[H])C5([H])OC([H])(O5)C4([H])OC([H])([H])C(C([H])([H])[H])(C3([H])C2([H])[H])C12C([H])([H])C2([H])[H]

$$$$
96:0:1
     RDKit          3D

 74 81  0  0  1  0  0  0  0  0999 V2000
    2.1141    0.8326    1.6901 C   0  0  0  0  0  0  0  0  0  0  0  0
    1.6438   -0.1226    2.7990 C   0  0  0  0  0  0  0  0  0  0  0  0
    2.4587   -1.4346    2.8293 C   0  0  2  0  0  0  0  0  0  0  0  0
    1.9750   -2.3230    3.9858 C   0  0  0  0  0  0  0  0  0  0  0  0
    2.8061   -3.6315    4.1520 C   0  0  1  0  0  0  0  0  0  0  0  0
    4.3331   -3.3262    4.0498 C   0  0  1  0  0  0  0  0  0  0  0  0
    5.0065   -3.0285    5.4170 C   0  0  0  0  0  0  0  0  0  0  0  0
    4.9752   -2.1153    6.2307 O   0  0  0  0  0  0  0  0  0  0  0  0
    5.6698   -4.2204    5.4523 O   0  0  0  0  0  0  0  0  0  0  0  0
    5.2966   -4.4893    4.0782 C   0  0  1  0  0  0  0  0  0  0  0  0
    4.7657   -5.8568    3.7044 C   0  0  0  0  0  0  0  0  0  0  0  0
    3.8953   -6.6420    4.7369 C   0  0  2  0  0  0  0  0  0  0  0  0
    4.9929   -7.5608    5.3683 C   0  0  0  0  0  0  0  0  0  0  0  0
    2.8883   -7.5754    3.9482 C   0  0  1  0  0  0  0  0  0  0  0  0
    2.2751   -8.7752    4.7393 C   0  0  0  0  0  0  0  0  0  0  0  0
    1.9167  -10.0296    3.9019 C   0  0  1  0  0  0  0  0  0  0  0  0
    1.1781  -11.0579    4.7694 C   0  0  0  0  0  0  0  0  0  0  0  0
    1.1310   -9.7339    2.6304 C   0  0  2  0  0  0  0  0  0  0  0  0
    1.8373   -8.8704    1.7229 O   0  0  0  0  0  0  0  0  0  0  0  0
    1.0425   -7.7527    2.1571 C   0  0  1  0  0  0  0  0  0  0  0  0
    0.1716   -8.6850    2.8306 O   0  0  0  0  0  0  0  0  0  0  0  0
    1.7874   -6.8349    3.1291 C   0  0  1  0  0  0  0  0  0  0  0  0
    0.7465   -6.3188    3.9401 O   0  0  0  0  0  0  0  0  0  0  0  0
    0.8791   -5.2220    4.8394 C   0  0  0  0  0  0  0  0  0  0  0  0
    2.2403   -4.6004    5.2965 C   0  0  2  0  0  0  0  0  0  0  0  0
    1.7888   -3.6668    6.4818 C   0  0  0  0  0  0  0  0  0  0  0  0
    3.1783   -5.7517    5.8344 C   0  0  1  0  0  0  0  0  0  0  0  0
    2.6896   -6.5030    7.0882 C   0  0  0  0  0  0  0  0  0  0  0  0
    3.8672   -5.5694    7.2101 C   0  0  0  0  0  0  0  0  0  0  0  0
    4.6588   -2.2142    3.0057 C   0  0  2  0  0  0  0  0  0  0  0  0
    3.7891   -1.1039    3.1072 O   0  0  0  0  0  0  0  0  0  0  0  0
    4.6139   -2.5694    1.5022 C   0  0  1  0  0  0  0  0  0  0  0  0
    5.6224   -3.6259    1.0006 C   0  0  0  0  0  0  0  0  0  0  0  0
    3.1909   -2.8539    1.0324 C   0  0  0  0  0  0  0  0  0  0  0  0
    2.9754   -3.6758    0.1387 O   0  0  0  0  0  0  0  0  0  0  0  0
    2.2156   -2.1020    1.6055 O   0  0  0  0  0  0  0  0  0  0  0  0
    1.5204    1.7486    1.6882 H   0  0  0  0  0  0  0  0  0  0  0  0
    2.0030    0.3811    0.7044 H   0  0  0  0  0  0  0  0  0  0  0  0
    3.1599    1.1158    1.8171 H   0  0  0  0  0  0  0  0  0  0  0  0
    1.7198    0.3744    3.7693 H   0  0  0  0  0  0  0  0  0  0  0  0
    0.5899   -0.3699    2.6423 H   0  0  0  0  0  0  0  0  0  0  0  0
    2.0338   -1.6960    4.8789 H   0  0  0  0  0  0  0  0  0  0  0  0
    0.9202   -2.5435    3.8078 H   0  0  0  0  0  0  0  0  0  0  0  0
    2.5823   -4.1732    3.2482 H   0  0  0  0  0  0  0  0  0  0  0  0
    6.1341   -4.2288    3.4429 H   0  0  0  0  0  0  0  0  0  0  0  0
    4.2206   -5.7195    2.7835 H   0  0  0  0  0  0  0  0  0  0  0  0
    5.6075   -6.4680    3.3684 H   0  0  0  0  0  0  0  0  0  0  0  0
    4.6837   -8.1236    6.2460 H   0  0  0  0  0  0  0  0  0  0  0  0
    5.8744   -6.9852    5.6682 H   0  0  0  0  0  0  0  0  0  0  0  0
    5.3658   -8.3060    4.6564 H   0  0  0  0  0  0  0  0  0  0  0  0
    3.5372   -8.0467    3.2058 H   0  0  0  0  0  0  0  0  0  0  0  0
    2.9627   -9.1396    5.4975 H   0  0  0  0  0  0  0  0  0  0  0  0
    1.3948   -8.4347    5.2890 H   0  0  0  0  0  0  0  0  0  0  0  0
    2.8513  -10.5005    3.6049 H   0  0  0  0  0  0  0  0  0  0  0  0
    0.2168  -10.6746    5.1207 H   0  0  0  0  0  0  0  0  0  0  0  0
    1.7684  -11.3289    5.6475 H   0  0  0  0  0  0  0  0  0  0  0  0
    0.9783  -11.9796    4.2192 H   0  0  0  0  0  0  0  0  0  0  0  0
    0.7031  -10.5951    2.1184 H   0  0  0  0  0  0  0  0  0  0  0  0
    0.5296   -7.2645    1.3315 H   0  0  0  0  0  0  0  0  0  0  0  0
    2.2119   -6.0565    2.5111 H   0  0  0  0  0  0  0  0  0  0  0  0
    0.1765   -4.4509    4.5298 H   0  0  0  0  0  0  0  0  0  0  0  0
    0.4043   -5.6361    5.7271 H   0  0  0  0  0  0  0  0  0  0  0  0
    1.4357   -4.1869    7.3700 H   0  0  0  0  0  0  0  0  0  0  0  0
    0.9359   -3.0468    6.2145 H   0  0  0  0  0  0  0  0  0  0  0  0
    2.5749   -2.9910    6.8152 H   0  0  0  0  0  0  0  0  0  0  0  0
    1.7438   -6.2352    7.5542 H   0  0  0  0  0  0  0  0  0  0  0  0
    2.8765   -7.5632    7.1707 H   0  0  0  0  0  0  0  0  0  0  0  0
    4.8357   -6.0111    7.3988 H   0  0  0  0  0  0  0  0  0  0  0  0
    3.7617   -4.6273    7.7473 H   0  0  0  0  0  0  0  0  0  0  0  0
    5.6564   -1.8077    3.1970 H   0  0  0  0  0  0  0  0  0  0  0  0
    4.8861   -1.6555    0.9771 H   0  0  0  0  0  0  0  0  0  0  0  0
    5.7210   -3.5742   -0.0869 H   0  0  0  0  0  0  0  0  0  0  0  0
    5.3288   -4.6528    1.2275 H   0  0  0  0  0  0  0  0  0  0  0  0
    6.6164   -3.4528    1.4157 H   0  0  0  0  0  0  0  0  0  0  0  0
  1  2  1  0
  1 37  1  0
  1 38  1  0
  1 39  1  0
  3  2  1  6
  2 40  1  0
  2 41  1  0
  3 31  1  0
  3 36  1  0
  3  4  1  0
  4  5  1  0
  4 42  1  0
  4 43  1  0
  5 25  1  0
  5  6  1  0
  5 44  1  6
  6 10  1  0
  6  7  1  1
  6 30  1  0
  7  8  2  0
  7  9  1  0
  9 10  1  0
 10 11  1  0
 10 45  1  6
 11 12  1  0
 11 46  1  0
 11 47  1  0
 12 27  1  0
 12 13  1  1
 12 14  1  0
 13 48  1  0
 13 49  1  0
 13 50  1  0
 14 22  1  0
 14 15  1  0
 14 51  1  6
 15 16  1  0
 15 52  1  0
 15 53  1  0
 16 17  1  0
 16 18  1  0
 16 54  1  6
 17 55  1  0
 17 56  1  0
 17 57  1  0
 18 21  1  0
 18 19  1  0
 18 58  1  6
 19 20  1  0
 20 21  1  0
 20 22  1  0
 20 59  1  6
 22 23  1  0
 22 60  1  6
 23 24  1  0
 24 25  1  0
 24 61  1  0
 24 62  1  0
 25 26  1  1
 25 27  1  0
 26 63  1  0
 26 64  1  0
 26 65  1  0
 27 29  1  1
 27 28  1  0
 28 29  1  0
 28 66  1  0
 28 67  1  0
 29 68  1  0
 29 69  1  0
 30 31  1  0
 30 32  1  0
 30 70  1  1
 32 33  1  0
 32 34  1  0
 32 71  1  6
 33 72  1  0
 33 73  1  0
 33 74  1  0
 34 35  2  0
 34 36  1  0
M  END
>  <i_m_ct_stereo_status>  (321) 
1

>  <s_m_source_file>  (321) 
/var/tmp/pbs.5076255.sched01/tmpt25ahaql/1236iipj8y0.sdf

>  <i_m_source_file_index>  (321) 
13

>  <i_lp_mmshare_version>  (321) 
48012

>  <i_f3d_flags>  (321) 
0

>  <s_epik_input>  (321) 
Tz1DKE8xKVtDQEhdKFtDSDNdKVtDQEhdMk9bQ0BdMShbQ0gyXVtDSDNdKVtDSDJdW0NAQEhdKFtDQEBdMjM0KVtDQF01KFtDSDNdKUM2KFtDSDJdW0NIMl02KVtDQF0oW0NIM10pKFtDSDJdW0NAQEhdNE9DMz1PKVtDQEBIXTdbQ0BIXShPW0NIMl01KVtDQEhdOE9bQ0BIXShPOClbQ0BASF0oW0NIMl03KVtDSDNd

>  <s_epik_cmdline>  (321) 
J2VwaWtfcHl0aG9uJywgJy1waHQnLCAnMi4wJywgJy1waCcsICc3LjAnLCAnLXRuJywgJzgnLCAnLW1hJywgJzIwMCcsICctaW1hZScsICc8aW5maWxlLm1hZT4nLCAnLW9tYWUnLCAnPG91dGZpbGUubWFlPic=

>  <r_lp_tautomer_probability>  (321) 
1

>  <r_epik_Ionization_Penalty>  (321) 
3.66663e-11

>  <r_epik_Ionization_Penalty_Charging>  (321) 
0

>  <r_epik_Ionization_Penalty_Neutral>  (321) 
3.66663e-11

>  <r_epik_State_Penalty>  (321) 
-0

>  <r_epik_Charging_Adjusted_Penalty>  (321) 
0

>  <i_epik_Tot_Q>  (321) 
0

>  <i_epik_Tot_abs_Q>  (321) 
0

>  <s_epik_Chemistry_Notes>  (321) 
This compound has an ester and may undergo hydrolysis at high or low pH. This compound contains an acetal/aminal-like group ( X-CH(R)-Y where X, Y are N, S, or O) that may be acid/base labile, releasing an aldehyde.

>  <s_lp_Force_Field>  (321) 
OPLS3e

>  <r_lp_Energy>  (321) 
84.9015

>  <b_lp_Chiralities_Consistent>  (321) 
1

>  <s_lp_Variant>  (321) 
96:0-1

>  <s_i_glide_gridfile>  (321) 
pfpi4k_grid

>  <i_i_glide_lignum>  (321) 
13

>  <i_i_glide_rotatable_bonds>  (321) 
1

>  <r_i_docking_score>  (321) 
-1.49828

>  <r_i_glide_ligand_efficiency>  (321) 
-0.0416188

>  <r_i_glide_ligand_efficiency_sa>  (321) 
-0.137422

>  <r_i_glide_ligand_efficiency_ln>  (321) 
-0.326883

>  <r_i_glide_gscore>  (321) 
-1.49828

>  <r_i_glide_lipo>  (321) 
-0.137992

>  <r_i_glide_hbond>  (321) 
0

>  <r_i_glide_metal>  (321) 
-0

>  <r_i_glide_rewards>  (321) 
-0.168446

>  <r_i_glide_evdw>  (321) 
-21.833

>  <r_i_glide_ecoul>  (321) 
-0.266901

>  <r_i_glide_erotb>  (321) 
0

>  <r_i_glide_esite>  (321) 
-0.0601524

>  <r_i_glide_emodel>  (321) 
-22.6482

>  <r_i_glide_energy>  (321) 
-22.0999

>  <r_i_glide_einternal>  (321) 
0.00857965

>  <r_i_glide_intrahb_reward>  (321) 
-0

>  <i_i_glide_confnum>  (321) 
2

>  <i_i_glide_posenum>  (321) 
22

>  <r_i_glide_eff_state_penalty>  (321) 
0

>  <ligand_id>  (321) 
96

>  <original_smiles>  (321) 
CCC12CC3C4(C(=O)OC4CC4(C)C5CC(C)C6OC(O6)C5OCC3(C)C43CC3)C(O1)C(C)C(=O)O2

>  <smiles>  (321) 
[H]C([H])([H])C([H])([H])C12OC(=O)C([H])(C([H])([H])[H])C([H])(O1)C13C(=O)OC1([H])C([H])([H])C1(C([H])([H])[H])C4([H])C([H])([H])C([H])(C([H])([H])[H])C5([H])OC([H])(O5)C4([H])OC([H])([H])C(C([H])([H])[H])(C3([H])C2([H])[H])C12C([H])([H])C2([H])[H]

$$$$
96:0:2
     RDKit          3D

 74 81  0  0  1  0  0  0  0  0999 V2000
   -0.3962    0.9274    2.2830 C   0  0  0  0  0  0  0  0  0  0  0  0
    0.9167    1.3254    2.9994 C   0  0  0  0  0  0  0  0  0  0  0  0
    1.8980    0.1396    3.1562 C   0  0  2  0  0  0  0  0  0  0  0  0
    1.3190   -0.9624    4.0638 C   0  0  0  0  0  0  0  0  0  0  0  0
    2.3117   -2.1223    4.3542 C   0  0  1  0  0  0  0  0  0  0  0  0
    3.7208   -1.5614    4.7140 C   0  0  1  0  0  0  0  0  0  0  0  0
    3.9329   -1.3407    6.2357 C   0  0  0  0  0  0  0  0  0  0  0  0
    3.5099   -0.5662    7.0785 O   0  0  0  0  0  0  0  0  0  0  0  0
    4.7817   -2.4089    6.3609 O   0  0  0  0  0  0  0  0  0  0  0  0
    4.8475   -2.5456    4.9176 C   0  0  1  0  0  0  0  0  0  0  0  0
    4.7019   -3.9230    4.2985 C   0  0  0  0  0  0  0  0  0  0  0  0
    3.7524   -4.9661    4.9724 C   0  0  2  0  0  0  0  0  0  0  0  0
    4.7942   -5.7762    5.8117 C   0  0  0  0  0  0  0  0  0  0  0  0
    3.1919   -5.9371    3.8523 C   0  0  1  0  0  0  0  0  0  0  0  0
    2.6205   -7.3085    4.3357 C   0  0  0  0  0  0  0  0  0  0  0  0
    2.7360   -8.4846    3.3318 C   0  0  1  0  0  0  0  0  0  0  0  0
    2.0021   -9.7230    3.8643 C   0  0  0  0  0  0  0  0  0  0  0  0
    2.2725   -8.1550    1.9161 C   0  0  2  0  0  0  0  0  0  0  0  0
    3.0232   -7.0867    1.3110 O   0  0  0  0  0  0  0  0  0  0  0  0
    1.9571   -6.1620    1.5981 C   0  0  1  0  0  0  0  0  0  0  0  0
    1.1196   -7.2968    1.9064 O   0  0  0  0  0  0  0  0  0  0  0  0
    2.2301   -5.2803    2.8204 C   0  0  1  0  0  0  0  0  0  0  0  0
    0.9440   -5.0814    3.3747 O   0  0  0  0  0  0  0  0  0  0  0  0
    0.6178   -4.0741    4.3314 C   0  0  0  0  0  0  0  0  0  0  0  0
    1.6579   -3.3071    5.2091 C   0  0  2  0  0  0  0  0  0  0  0  0
    0.7325   -2.6204    6.2839 C   0  0  0  0  0  0  0  0  0  0  0  0
    2.6157   -4.3548    5.8928 C   0  0  1  0  0  0  0  0  0  0  0  0
    1.9594   -5.3300    6.8870 C   0  0  0  0  0  0  0  0  0  0  0  0
    2.8638   -4.2469    7.4142 C   0  0  0  0  0  0  0  0  0  0  0  0
    4.0835   -0.2855    3.8954 C   0  0  2  0  0  0  0  0  0  0  0  0
    3.0189    0.6433    3.8261 O   0  0  0  0  0  0  0  0  0  0  0  0
    4.5114   -0.4515    2.4243 C   0  0  1  0  0  0  0  0  0  0  0  0
    5.8006   -1.2487    2.1439 C   0  0  0  0  0  0  0  0  0  0  0  0
    3.3547   -0.8924    1.5345 C   0  0  0  0  0  0  0  0  0  0  0  0
    3.5603   -1.6026    0.5571 O   0  0  0  0  0  0  0  0  0  0  0  0
    2.1384   -0.3736    1.8578 O   0  0  0  0  0  0  0  0  0  0  0  0
   -1.0508    1.7925    2.1631 H   0  0  0  0  0  0  0  0  0  0  0  0
   -0.9680    0.1845    2.8438 H   0  0  0  0  0  0  0  0  0  0  0  0
   -0.2000    0.5365    1.2809 H   0  0  0  0  0  0  0  0  0  0  0  0
    1.4067    2.1162    2.4285 H   0  0  0  0  0  0  0  0  0  0  0  0
    0.6938    1.7412    3.9853 H   0  0  0  0  0  0  0  0  0  0  0  0
    1.0154   -0.4493    4.9798 H   0  0  0  0  0  0  0  0  0  0  0  0
    0.4231   -1.3602    3.5878 H   0  0  0  0  0  0  0  0  0  0  0  0
    2.4399   -2.5634    3.3797 H   0  0  0  0  0  0  0  0  0  0  0  0
    5.7576   -2.0665    4.5778 H   0  0  0  0  0  0  0  0  0  0  0  0
    4.4044   -3.7558    3.2743 H   0  0  0  0  0  0  0  0  0  0  0  0
    5.7023   -4.3441    4.1667 H   0  0  0  0  0  0  0  0  0  0  0  0
    4.3720   -6.4896    6.5173 H   0  0  0  0  0  0  0  0  0  0  0  0
    5.4366   -5.1123    6.3980 H   0  0  0  0  0  0  0  0  0  0  0  0
    5.4723   -6.3519    5.1731 H   0  0  0  0  0  0  0  0  0  0  0  0
    4.0906   -6.1991    3.2909 H   0  0  0  0  0  0  0  0  0  0  0  0
    3.1361   -7.6555    5.2258 H   0  0  0  0  0  0  0  0  0  0  0  0
    1.5785   -7.1865    4.6388 H   0  0  0  0  0  0  0  0  0  0  0  0
    3.7888   -8.7576    3.2752 H   0  0  0  0  0  0  0  0  0  0  0  0
    0.9293   -9.5432    3.9535 H   0  0  0  0  0  0  0  0  0  0  0  0
    2.3727  -10.0175    4.8477 H   0  0  0  0  0  0  0  0  0  0  0  0
    2.1355  -10.5788    3.1998 H   0  0  0  0  0  0  0  0  0  0  0  0
    2.1684   -9.0030    1.2407 H   0  0  0  0  0  0  0  0  0  0  0  0
    1.6077   -5.6487    0.7057 H   0  0  0  0  0  0  0  0  0  0  0  0
    2.6336   -4.3618    2.4170 H   0  0  0  0  0  0  0  0  0  0  0  0
   -0.1016   -3.3853    3.8994 H   0  0  0  0  0  0  0  0  0  0  0  0
   -0.0008   -4.6559    5.0098 H   0  0  0  0  0  0  0  0  0  0  0  0
    0.2616   -3.3023    6.9865 H   0  0  0  0  0  0  0  0  0  0  0  0
   -0.1196   -2.1152    5.8339 H   0  0  0  0  0  0  0  0  0  0  0  0
    1.2582   -1.8741    6.8762 H   0  0  0  0  0  0  0  0  0  0  0  0
    0.8903   -5.2771    7.0817 H   0  0  0  0  0  0  0  0  0  0  0  0
    2.3140   -6.3498    6.9323 H   0  0  0  0  0  0  0  0  0  0  0  0
    3.8147   -4.5503    7.8315 H   0  0  0  0  0  0  0  0  0  0  0  0
    2.4403   -3.4132    7.9717 H   0  0  0  0  0  0  0  0  0  0  0  0
    4.8960    0.2514    4.3926 H   0  0  0  0  0  0  0  0  0  0  0  0
    4.7258    0.5453    2.0643 H   0  0  0  0  0  0  0  0  0  0  0  0
    6.1726   -1.0360    1.1401 H   0  0  0  0  0  0  0  0  0  0  0  0
    5.6595   -2.3278    2.1977 H   0  0  0  0  0  0  0  0  0  0  0  0
    6.5846   -0.9576    2.8399 H   0  0  0  0  0  0  0  0  0  0  0  0
  1  2  1  0
  1 37  1  0
  1 38  1  0
  1 39  1  0
  3  2  1  6
  2 40  1  0
  2 41  1  0
  3 31  1  0
  3 36  1  0
  3  4  1  0
  4  5  1  0
  4 42  1  0
  4 43  1  0
  5 25  1  0
  5  6  1  0
  5 44  1  6
  6 10  1  0
  6  7  1  1
  6 30  1  0
  7  8  2  0
  7  9  1  0
  9 10  1  0
 10 11  1  0
 10 45  1  6
 11 12  1  0
 11 46  1  0
 11 47  1  0
 12 27  1  0
 12 13  1  1
 12 14  1  0
 13 48  1  0
 13 49  1  0
 13 50  1  0
 14 22  1  0
 14 15  1  0
 14 51  1  6
 15 16  1  0
 15 52  1  0
 15 53  1  0
 16 17  1  0
 16 18  1  0
 16 54  1  6
 17 55  1  0
 17 56  1  0
 17 57  1  0
 18 21  1  0
 18 19  1  0
 18 58  1  6
 19 20  1  0
 20 21  1  0
 20 22  1  0
 20 59  1  6
 22 23  1  0
 22 60  1  6
 23 24  1  0
 24 25  1  0
 24 61  1  0
 24 62  1  0
 25 26  1  1
 25 27  1  0
 26 63  1  0
 26 64  1  0
 26 65  1  0
 27 29  1  1
 27 28  1  0
 28 29  1  0
 28 66  1  0
 28 67  1  0
 29 68  1  0
 29 69  1  0
 30 31  1  0
 30 32  1  0
 30 70  1  1
 32 33  1  0
 32 34  1  0
 32 71  1  6
 33 72  1  0
 33 73  1  0
 33 74  1  0
 34 35  2  0
 34 36  1  0
M  END
>  <i_m_ct_stereo_status>  (322) 
1

>  <s_m_source_file>  (322) 
/var/tmp/pbs.5076255.sched01/tmpt25ahaql/1236iipj8y0.sdf

>  <i_m_source_file_index>  (322) 
13

>  <i_lp_mmshare_version>  (322) 
48012

>  <i_f3d_flags>  (322) 
0

>  <s_epik_input>  (322) 
Tz1DKE8xKVtDQEhdKFtDSDNdKVtDQEhdMk9bQ0BdMShbQ0gyXVtDSDNdKVtDSDJdW0NAQEhdKFtDQEBdMjM0KVtDQF01KFtDSDNdKUM2KFtDSDJdW0NIMl02KVtDQF0oW0NIM10pKFtDSDJdW0NAQEhdNE9DMz1PKVtDQEBIXTdbQ0BIXShPW0NIMl01KVtDQEhdOE9bQ0BIXShPOClbQ0BASF0oW0NIMl03KVtDSDNd

>  <s_epik_cmdline>  (322) 
J2VwaWtfcHl0aG9uJywgJy1waHQnLCAnMi4wJywgJy1waCcsICc3LjAnLCAnLXRuJywgJzgnLCAnLW1hJywgJzIwMCcsICctaW1hZScsICc8aW5maWxlLm1hZT4nLCAnLW9tYWUnLCAnPG91dGZpbGUubWFlPic=

>  <r_lp_tautomer_probability>  (322) 
1

>  <r_epik_Ionization_Penalty>  (322) 
3.66663e-11

>  <r_epik_Ionization_Penalty_Charging>  (322) 
0

>  <r_epik_Ionization_Penalty_Neutral>  (322) 
3.66663e-11

>  <r_epik_State_Penalty>  (322) 
-0

>  <r_epik_Charging_Adjusted_Penalty>  (322) 
0

>  <i_epik_Tot_Q>  (322) 
0

>  <i_epik_Tot_abs_Q>  (322) 
0

>  <s_epik_Chemistry_Notes>  (322) 
This compound has an ester and may undergo hydrolysis at high or low pH. This compound contains an acetal/aminal-like group ( X-CH(R)-Y where X, Y are N, S, or O) that may be acid/base labile, releasing an aldehyde.

>  <s_lp_Force_Field>  (322) 
OPLS3e

>  <r_lp_Energy>  (322) 
84.9015

>  <b_lp_Chiralities_Consistent>  (322) 
1

>  <s_lp_Variant>  (322) 
96:0-1

>  <s_i_glide_gridfile>  (322) 
pfpi4k_grid

>  <i_i_glide_lignum>  (322) 
13

>  <i_i_glide_rotatable_bonds>  (322) 
1

>  <r_i_docking_score>  (322) 
-1.45485

>  <r_i_glide_ligand_efficiency>  (322) 
-0.0404124

>  <r_i_glide_ligand_efficiency_sa>  (322) 
-0.133439

>  <r_i_glide_ligand_efficiency_ln>  (322) 
-0.317408

>  <r_i_glide_gscore>  (322) 
-1.45485

>  <r_i_glide_lipo>  (322) 
-0.27519

>  <r_i_glide_hbond>  (322) 
0

>  <r_i_glide_metal>  (322) 
-0

>  <r_i_glide_rewards>  (322) 
0

>  <r_i_glide_evdw>  (322) 
-21.5929

>  <r_i_glide_ecoul>  (322) 
-0.122046

>  <r_i_glide_erotb>  (322) 
0

>  <r_i_glide_esite>  (322) 
-0.0817039

>  <r_i_glide_emodel>  (322) 
-21.7403

>  <r_i_glide_energy>  (322) 
-21.715

>  <r_i_glide_einternal>  (322) 
1.0677

>  <r_i_glide_intrahb_reward>  (322) 
-0

>  <i_i_glide_confnum>  (322) 
1

>  <i_i_glide_posenum>  (322) 
13

>  <r_i_glide_eff_state_penalty>  (322) 
0

>  <ligand_id>  (322) 
96

>  <original_smiles>  (322) 
CCC12CC3C4(C(=O)OC4CC4(C)C5CC(C)C6OC(O6)C5OCC3(C)C43CC3)C(O1)C(C)C(=O)O2

>  <smiles>  (322) 
[H]C([H])([H])C([H])([H])C12OC(=O)C([H])(C([H])([H])[H])C([H])(O1)C13C(=O)OC1([H])C([H])([H])C1(C([H])([H])[H])C4([H])C([H])([H])C([H])(C([H])([H])[H])C5([H])OC([H])(O5)C4([H])OC([H])([H])C(C([H])([H])[H])(C3([H])C2([H])[H])C12C([H])([H])C2([H])[H]

$$$$
97:0:0
     RDKit          3D

 55 59  0  0  1  0  0  0  0  0999 V2000
    2.8018   -5.2022    2.6901 C   0  0  0  0  0  0  0  0  0  0  0  0
    4.1944   -4.6862    3.1191 C   0  0  1  0  0  0  0  0  0  0  0  0
    4.1604   -4.5229    4.6551 C   0  0  0  0  0  0  0  0  0  0  0  0
    5.5964   -4.7137    5.0706 C   0  0  0  0  0  0  0  0  0  0  0  0
    6.1077   -4.2247    6.0709 O   0  0  0  0  0  0  0  0  0  0  0  0
    6.1646   -5.4760    4.1584 O   0  0  0  0  0  0  0  0  0  0  0  0
    5.2579   -5.8245    3.1187 C   0  0  2  0  0  0  0  0  0  0  0  0
    6.0293   -6.0521    1.8208 C   0  0  0  0  0  0  0  0  0  0  0  0
    5.3942   -5.3572    0.6215 C   0  0  0  0  0  0  0  0  0  0  0  0
    5.1720   -3.8131    0.7639 C   0  0  2  0  0  0  0  0  0  0  0  0
    6.5895   -3.2008    0.5264 C   0  0  0  0  0  0  0  0  0  0  0  0
    4.7108   -3.4385    2.2557 C   0  0  1  0  0  0  0  0  0  0  0  0
    3.9014   -2.0882    2.4034 C   0  0  1  0  0  0  0  0  0  0  0  0
    3.7319   -1.6109    3.8324 C   0  0  0  0  0  0  0  0  0  0  0  0
    4.7540   -1.1587    4.7222 C   0  0  0  0  0  0  0  0  0  0  0  0
    4.1442   -0.8450    5.9030 C   0  0  0  0  0  0  0  0  0  0  0  0
    2.8045   -1.0463    5.8147 O   0  0  0  0  0  0  0  0  0  0  0  0
    2.5718   -1.4940    4.5515 C   0  0  0  0  0  0  0  0  0  0  0  0
    4.4928   -0.8847    1.6434 C   0  0  0  0  0  0  0  0  0  0  0  0
    4.2900   -0.8462    0.1489 C   0  0  0  0  0  0  0  0  0  0  0  0
    4.0949   -1.8577   -0.7095 C   0  0  0  0  0  0  0  0  0  0  0  0
    3.9633   -1.6375   -2.2218 C   0  0  1  0  0  0  0  0  0  0  0  0
    4.6157   -0.4857   -2.7096 O   0  0  0  0  0  0  0  0  0  0  0  0
    4.5794   -2.8994   -2.7410 C   0  0  0  0  0  0  0  0  0  0  0  0
    4.6817   -3.8191   -1.7898 C   0  0  0  0  0  0  0  0  0  0  0  0
    4.1879   -3.3646   -0.4174 C   0  0  1  0  0  0  0  0  0  0  0  0
    2.7390   -3.8924   -0.3147 C   0  0  0  0  0  0  0  0  0  0  0  0
    2.0546   -4.4083    2.7052 H   0  0  0  0  0  0  0  0  0  0  0  0
    2.4429   -5.9887    3.3564 H   0  0  0  0  0  0  0  0  0  0  0  0
    2.8042   -5.6494    1.7032 H   0  0  0  0  0  0  0  0  0  0  0  0
    3.7361   -3.6179    5.0650 H   0  0  0  0  0  0  0  0  0  0  0  0
    3.6061   -5.3438    5.1135 H   0  0  0  0  0  0  0  0  0  0  0  0
    4.7712   -6.7590    3.4082 H   0  0  0  0  0  0  0  0  0  0  0  0
    7.0676   -5.7451    1.9295 H   0  0  0  0  0  0  0  0  0  0  0  0
    6.0662   -7.1241    1.6255 H   0  0  0  0  0  0  0  0  0  0  0  0
    6.0504   -5.5642   -0.2210 H   0  0  0  0  0  0  0  0  0  0  0  0
    4.4767   -5.8820    0.3749 H   0  0  0  0  0  0  0  0  0  0  0  0
    6.6160   -2.1190    0.5984 H   0  0  0  0  0  0  0  0  0  0  0  0
    6.9952   -3.4521   -0.4523 H   0  0  0  0  0  0  0  0  0  0  0  0
    7.3127   -3.5642    1.2568 H   0  0  0  0  0  0  0  0  0  0  0  0
    5.6438   -3.1834    2.7567 H   0  0  0  0  0  0  0  0  0  0  0  0
    2.8842   -2.2265    2.0466 H   0  0  0  0  0  0  0  0  0  0  0  0
    5.8114   -1.0898    4.5347 H   0  0  0  0  0  0  0  0  0  0  0  0
    4.5006   -0.4842    6.8543 H   0  0  0  0  0  0  0  0  0  0  0  0
    1.5352   -1.7063    4.3408 H   0  0  0  0  0  0  0  0  0  0  0  0
    3.9515    0.0015    1.9735 H   0  0  0  0  0  0  0  0  0  0  0  0
    5.5306   -0.6863    1.9049 H   0  0  0  0  0  0  0  0  0  0  0  0
    4.3017    0.1469   -0.2618 H   0  0  0  0  0  0  0  0  0  0  0  0
    2.9078   -1.6209   -2.5131 H   0  0  0  0  0  0  0  0  0  0  0  0
    3.9853    0.2211   -2.7063 H   0  0  0  0  0  0  0  0  0  0  0  0
    4.8382   -3.0490   -3.7813 H   0  0  0  0  0  0  0  0  0  0  0  0
    5.0253   -4.8240   -1.9830 H   0  0  0  0  0  0  0  0  0  0  0  0
    2.1416   -3.5154   -1.1480 H   0  0  0  0  0  0  0  0  0  0  0  0
    2.2266   -3.5647    0.5826 H   0  0  0  0  0  0  0  0  0  0  0  0
    2.6786   -4.9775   -0.3837 H   0  0  0  0  0  0  0  0  0  0  0  0
  2  1  1  6
  1 28  1  0
  1 29  1  0
  1 30  1  0
  2  7  1  0
  2 12  1  0
  2  3  1  0
  3  4  1  0
  3 31  1  0
  3 32  1  0
  4  5  2  0
  4  6  1  0
  6  7  1  0
  7  8  1  0
  7 33  1  1
  8  9  1  0
  8 34  1  0
  8 35  1  0
  9 10  1  0
  9 36  1  0
  9 37  1  0
 10 26  1  0
 10 11  1  6
 10 12  1  0
 11 38  1  0
 11 39  1  0
 11 40  1  0
 12 13  1  0
 12 41  1  1
 13 14  1  0
 13 19  1  0
 13 42  1  6
 14 18  2  0
 14 15  1  0
 15 16  2  0
 15 43  1  0
 16 17  1  0
 16 44  1  0
 17 18  1  0
 18 45  1  0
 19 20  1  0
 19 46  1  0
 19 47  1  0
 20 21  2  0
 20 48  1  0
 21 26  1  0
 21 22  1  0
 22 23  1  0
 22 24  1  0
 22 49  1  1
 23 50  1  0
 24 25  2  0
 24 51  1  0
 25 26  1  0
 25 52  1  0
 26 27  1  1
 27 53  1  0
 27 54  1  0
 27 55  1  0
M  END
>  <i_m_ct_stereo_status>  (323) 
1

>  <s_m_source_file>  (323) 
/var/tmp/pbs.5076255.sched01/tmpt25ahaql/1236iipj8y0.sdf

>  <i_m_source_file_index>  (323) 
14

>  <i_lp_mmshare_version>  (323) 
48012

>  <i_f3d_flags>  (323) 
0

>  <s_epik_input>  (323) 
W0NIMl0xQyg9TylPW0NAQEhdKFtDQEBdMTJbQ0gzXSlbQ0gyXVtDSDJdW0NAXTMoW0NIM10pW0NASF0yW0NAQEhdKGM0W2NIXVtjSF1vW2NIXTQpW0NIMl1bQ0hdPUM1W0NAQF0zKFtDSDNdKVtDSF09W0NIXVtDQEBIXTVbT0hd

>  <s_epik_cmdline>  (323) 
J2VwaWtfcHl0aG9uJywgJy1waHQnLCAnMi4wJywgJy1waCcsICc3LjAnLCAnLXRuJywgJzgnLCAnLW1hJywgJzIwMCcsICctaW1hZScsICc8aW5maWxlLm1hZT4nLCAnLW9tYWUnLCAnPG91dGZpbGUubWFlPic=

>  <r_lp_tautomer_probability>  (323) 
1

>  <r_epik_Ionization_Penalty>  (323) 
4.34506e-08

>  <r_epik_Ionization_Penalty_Charging>  (323) 
0

>  <r_epik_Ionization_Penalty_Neutral>  (323) 
4.34506e-08

>  <r_epik_State_Penalty>  (323) 
-0

>  <r_epik_Charging_Adjusted_Penalty>  (323) 
0

>  <i_epik_Tot_Q>  (323) 
0

>  <i_epik_Tot_abs_Q>  (323) 
0

>  <s_epik_Chemistry_Notes>  (323) 
This compound has an ester and may undergo hydrolysis at high or low pH.

>  <s_lp_Force_Field>  (323) 
OPLS3e

>  <r_lp_Energy>  (323) 
55.8041

>  <b_lp_Chiralities_Consistent>  (323) 
1

>  <s_lp_Variant>  (323) 
97:0-1

>  <s_i_glide_gridfile>  (323) 
pfpi4k_grid

>  <i_i_glide_lignum>  (323) 
14

>  <i_i_glide_rotatable_bonds>  (323) 
2

>  <r_i_docking_score>  (323) 
-2.98415

>  <r_i_glide_ligand_efficiency>  (323) 
-0.110524

>  <r_i_glide_ligand_efficiency_sa>  (323) 
-0.331572

>  <r_i_glide_ligand_efficiency_ln>  (323) 
-0.694661

>  <r_i_glide_gscore>  (323) 
-2.98415

>  <r_i_glide_lipo>  (323) 
-0.577145

>  <r_i_glide_hbond>  (323) 
0

>  <r_i_glide_metal>  (323) 
-0

>  <r_i_glide_rewards>  (323) 
-0.899614

>  <r_i_glide_evdw>  (323) 
-25.9903

>  <r_i_glide_ecoul>  (323) 
-2.33207

>  <r_i_glide_erotb>  (323) 
0.141935

>  <r_i_glide_esite>  (323) 
0

>  <r_i_glide_emodel>  (323) 
-32.659

>  <r_i_glide_energy>  (323) 
-28.3224

>  <r_i_glide_einternal>  (323) 
0.415582

>  <r_i_glide_intrahb_reward>  (323) 
-0

>  <i_i_glide_confnum>  (323) 
1

>  <i_i_glide_posenum>  (323) 
38

>  <r_i_glide_eff_state_penalty>  (323) 
0

>  <ligand_id>  (323) 
97

>  <original_smiles>  (323) 
CC12CC(=O)OC1CCC1(C)C2C(c2ccoc2)CC=C2C(O)C=CC21C

>  <smiles>  (323) 
[H]OC1([H])C([H])=C([H])C2(C([H])([H])[H])C1=C([H])C([H])([H])C([H])(c1c([H])oc([H])c1[H])C1([H])C3(C([H])([H])[H])C([H])([H])C(=O)OC3([H])C([H])([H])C([H])([H])C21C([H])([H])[H]

$$$$
97:0:1
     RDKit          3D

 55 59  0  0  1  0  0  0  0  0999 V2000
    2.8115   -5.1951    2.6988 C   0  0  0  0  0  0  0  0  0  0  0  0
    4.2051   -4.6802    3.1248 C   0  0  1  0  0  0  0  0  0  0  0  0
    4.1720   -4.5095    4.6588 C   0  0  0  0  0  0  0  0  0  0  0  0
    5.6087   -4.7069    5.0717 C   0  0  0  0  0  0  0  0  0  0  0  0
    6.1272   -4.2186    6.0718 O   0  0  0  0  0  0  0  0  0  0  0  0
    6.1742   -5.4738    4.1593 O   0  0  0  0  0  0  0  0  0  0  0  0
    5.2647   -5.8214    3.1220 C   0  0  2  0  0  0  0  0  0  0  0  0
    6.0335   -6.0522    1.8234 C   0  0  0  0  0  0  0  0  0  0  0  0
    5.3991   -5.3580    0.6240 C   0  0  0  0  0  0  0  0  0  0  0  0
    5.1798   -3.8128    0.7649 C   0  0  2  0  0  0  0  0  0  0  0  0
    6.5972   -3.2022    0.5228 C   0  0  0  0  0  0  0  0  0  0  0  0
    4.7283   -3.4370    2.2612 C   0  0  1  0  0  0  0  0  0  0  0  0
    3.9279   -2.0810    2.4105 C   0  0  1  0  0  0  0  0  0  0  0  0
    3.7590   -1.5883    3.8351 C   0  0  0  0  0  0  0  0  0  0  0  0
    2.5432   -1.4552    4.5679 C   0  0  0  0  0  0  0  0  0  0  0  0
    2.8794   -0.9735    5.8034 C   0  0  0  0  0  0  0  0  0  0  0  0
    4.2194   -0.7737    5.8935 O   0  0  0  0  0  0  0  0  0  0  0  0
    4.7344   -1.1384    4.6897 C   0  0  0  0  0  0  0  0  0  0  0  0
    4.5131   -0.8782    1.6401 C   0  0  0  0  0  0  0  0  0  0  0  0
    4.2995   -0.8431    0.1475 C   0  0  0  0  0  0  0  0  0  0  0  0
    4.0987   -1.8576   -0.7093 C   0  0  0  0  0  0  0  0  0  0  0  0
    3.9629   -1.6385   -2.2174 C   0  0  1  0  0  0  0  0  0  0  0  0
    4.6167   -0.4881   -2.7016 O   0  0  0  0  0  0  0  0  0  0  0  0
    4.5759   -2.9001   -2.7411 C   0  0  0  0  0  0  0  0  0  0  0  0
    4.6806   -3.8221   -1.7872 C   0  0  0  0  0  0  0  0  0  0  0  0
    4.1905   -3.3628   -0.4152 C   0  0  1  0  0  0  0  0  0  0  0  0
    2.7397   -3.8902   -0.3082 C   0  0  0  0  0  0  0  0  0  0  0  0
    2.0635   -4.4014    2.7150 H   0  0  0  0  0  0  0  0  0  0  0  0
    2.4528   -5.9812    3.3664 H   0  0  0  0  0  0  0  0  0  0  0  0
    2.8098   -5.6450    1.7125 H   0  0  0  0  0  0  0  0  0  0  0  0
    3.7517   -3.6024    5.0603 H   0  0  0  0  0  0  0  0  0  0  0  0
    3.6183   -5.3265    5.1204 H   0  0  0  0  0  0  0  0  0  0  0  0
    4.7786   -6.7547    3.4151 H   0  0  0  0  0  0  0  0  0  0  0  0
    7.0727   -5.7471    1.9293 H   0  0  0  0  0  0  0  0  0  0  0  0
    6.0688   -7.1242    1.6289 H   0  0  0  0  0  0  0  0  0  0  0  0
    6.0506   -5.5670   -0.2210 H   0  0  0  0  0  0  0  0  0  0  0  0
    4.4794   -5.8802    0.3810 H   0  0  0  0  0  0  0  0  0  0  0  0
    6.6239   -2.1214    0.5944 H   0  0  0  0  0  0  0  0  0  0  0  0
    6.9987   -3.4551   -0.4562 H   0  0  0  0  0  0  0  0  0  0  0  0
    7.3202   -3.5662    1.2522 H   0  0  0  0  0  0  0  0  0  0  0  0
    5.6653   -3.1870    2.7571 H   0  0  0  0  0  0  0  0  0  0  0  0
    2.9090   -2.2190    2.0614 H   0  0  0  0  0  0  0  0  0  0  0  0
    1.5429   -1.6975    4.2437 H   0  0  0  0  0  0  0  0  0  0  0  0
    2.3212   -0.7298    6.6924 H   0  0  0  0  0  0  0  0  0  0  0  0
    5.8057   -1.0240    4.6143 H   0  0  0  0  0  0  0  0  0  0  0  0
    3.9679    0.0085    1.9680 H   0  0  0  0  0  0  0  0  0  0  0  0
    5.5540   -0.6740    1.8945 H   0  0  0  0  0  0  0  0  0  0  0  0
    4.3082    0.1472   -0.2651 H   0  0  0  0  0  0  0  0  0  0  0  0
    2.9071   -1.6215   -2.5057 H   0  0  0  0  0  0  0  0  0  0  0  0
    3.9860    0.2214   -2.6949 H   0  0  0  0  0  0  0  0  0  0  0  0
    4.8322   -3.0505   -3.7786 H   0  0  0  0  0  0  0  0  0  0  0  0
    5.0269   -4.8267   -1.9806 H   0  0  0  0  0  0  0  0  0  0  0  0
    2.1414   -3.5140   -1.1381 H   0  0  0  0  0  0  0  0  0  0  0  0
    2.2339   -3.5591    0.5921 H   0  0  0  0  0  0  0  0  0  0  0  0
    2.6785   -4.9748   -0.3746 H   0  0  0  0  0  0  0  0  0  0  0  0
  2  1  1  6
  1 28  1  0
  1 29  1  0
  1 30  1  0
  2  7  1  0
  2 12  1  0
  2  3  1  0
  3  4  1  0
  3 31  1  0
  3 32  1  0
  4  5  2  0
  4  6  1  0
  6  7  1  0
  7  8  1  0
  7 33  1  1
  8  9  1  0
  8 34  1  0
  8 35  1  0
  9 10  1  0
  9 36  1  0
  9 37  1  0
 10 26  1  0
 10 11  1  6
 10 12  1  0
 11 38  1  0
 11 39  1  0
 11 40  1  0
 12 13  1  0
 12 41  1  1
 13 14  1  0
 13 19  1  0
 13 42  1  6
 14 18  2  0
 14 15  1  0
 15 16  2  0
 15 43  1  0
 16 17  1  0
 16 44  1  0
 17 18  1  0
 18 45  1  0
 19 20  1  0
 19 46  1  0
 19 47  1  0
 20 21  2  0
 20 48  1  0
 21 26  1  0
 21 22  1  0
 22 23  1  0
 22 24  1  0
 22 49  1  1
 23 50  1  0
 24 25  2  0
 24 51  1  0
 25 26  1  0
 25 52  1  0
 26 27  1  1
 27 53  1  0
 27 54  1  0
 27 55  1  0
M  END
>  <i_m_ct_stereo_status>  (324) 
1

>  <s_m_source_file>  (324) 
/var/tmp/pbs.5076255.sched01/tmpt25ahaql/1236iipj8y0.sdf

>  <i_m_source_file_index>  (324) 
14

>  <i_lp_mmshare_version>  (324) 
48012

>  <i_f3d_flags>  (324) 
0

>  <s_epik_input>  (324) 
W0NIMl0xQyg9TylPW0NAQEhdKFtDQEBdMTJbQ0gzXSlbQ0gyXVtDSDJdW0NAXTMoW0NIM10pW0NASF0yW0NAQEhdKGM0W2NIXVtjSF1vW2NIXTQpW0NIMl1bQ0hdPUM1W0NAQF0zKFtDSDNdKVtDSF09W0NIXVtDQEBIXTVbT0hd

>  <s_epik_cmdline>  (324) 
J2VwaWtfcHl0aG9uJywgJy1waHQnLCAnMi4wJywgJy1waCcsICc3LjAnLCAnLXRuJywgJzgnLCAnLW1hJywgJzIwMCcsICctaW1hZScsICc8aW5maWxlLm1hZT4nLCAnLW9tYWUnLCAnPG91dGZpbGUubWFlPic=

>  <r_lp_tautomer_probability>  (324) 
1

>  <r_epik_Ionization_Penalty>  (324) 
4.34506e-08

>  <r_epik_Ionization_Penalty_Charging>  (324) 
0

>  <r_epik_Ionization_Penalty_Neutral>  (324) 
4.34506e-08

>  <r_epik_State_Penalty>  (324) 
-0

>  <r_epik_Charging_Adjusted_Penalty>  (324) 
0

>  <i_epik_Tot_Q>  (324) 
0

>  <i_epik_Tot_abs_Q>  (324) 
0

>  <s_epik_Chemistry_Notes>  (324) 
This compound has an ester and may undergo hydrolysis at high or low pH.

>  <s_lp_Force_Field>  (324) 
OPLS3e

>  <r_lp_Energy>  (324) 
55.8041

>  <b_lp_Chiralities_Consistent>  (324) 
1

>  <s_lp_Variant>  (324) 
97:0-1

>  <s_i_glide_gridfile>  (324) 
pfpi4k_grid

>  <i_i_glide_lignum>  (324) 
14

>  <i_i_glide_rotatable_bonds>  (324) 
2

>  <r_i_docking_score>  (324) 
-2.96909

>  <r_i_glide_ligand_efficiency>  (324) 
-0.109966

>  <r_i_glide_ligand_efficiency_sa>  (324) 
-0.329899

>  <r_i_glide_ligand_efficiency_ln>  (324) 
-0.691156

>  <r_i_glide_gscore>  (324) 
-2.96909

>  <r_i_glide_lipo>  (324) 
-0.581395

>  <r_i_glide_hbond>  (324) 
0

>  <r_i_glide_metal>  (324) 
-0

>  <r_i_glide_rewards>  (324) 
-0.899713

>  <r_i_glide_evdw>  (324) 
-26.0007

>  <r_i_glide_ecoul>  (324) 
-2.19924

>  <r_i_glide_erotb>  (324) 
0.141935

>  <r_i_glide_esite>  (324) 
0

>  <r_i_glide_emodel>  (324) 
-32.6112

>  <r_i_glide_energy>  (324) 
-28.1999

>  <r_i_glide_einternal>  (324) 
0.402665

>  <r_i_glide_intrahb_reward>  (324) 
-0

>  <i_i_glide_confnum>  (324) 
1

>  <i_i_glide_posenum>  (324) 
14

>  <r_i_glide_eff_state_penalty>  (324) 
0

>  <ligand_id>  (324) 
97

>  <original_smiles>  (324) 
CC12CC(=O)OC1CCC1(C)C2C(c2ccoc2)CC=C2C(O)C=CC21C

>  <smiles>  (324) 
[H]OC1([H])C([H])=C([H])C2(C([H])([H])[H])C1=C([H])C([H])([H])C([H])(c1c([H])oc([H])c1[H])C1([H])C3(C([H])([H])[H])C([H])([H])C(=O)OC3([H])C([H])([H])C([H])([H])C21C([H])([H])[H]

$$$$
97:0:2
     RDKit          3D

 55 59  0  0  1  0  0  0  0  0999 V2000
    3.9385    1.7619    5.2147 C   0  0  0  0  0  0  0  0  0  0  0  0
    3.3247    0.3453    5.1930 C   0  0  1  0  0  0  0  0  0  0  0  0
    4.4265   -0.6094    4.6721 C   0  0  0  0  0  0  0  0  0  0  0  0
    4.0724   -1.9343    5.3012 C   0  0  0  0  0  0  0  0  0  0  0  0
    4.3626   -3.0312    4.8350 O   0  0  0  0  0  0  0  0  0  0  0  0
    3.4123   -1.6760    6.4098 O   0  0  0  0  0  0  0  0  0  0  0  0
    3.2514   -0.2761    6.6169 C   0  0  2  0  0  0  0  0  0  0  0  0
    1.9797   -0.0222    7.4209 C   0  0  0  0  0  0  0  0  0  0  0  0
    1.1168    1.0901    6.8364 C   0  0  0  0  0  0  0  0  0  0  0  0
    0.6920    0.9133    5.3370 C   0  0  2  0  0  0  0  0  0  0  0  0
   -0.4714   -0.1276    5.3938 C   0  0  0  0  0  0  0  0  0  0  0  0
    1.8918    0.2773    4.4795 C   0  0  1  0  0  0  0  0  0  0  0  0
    1.8621    0.5788    2.9276 C   0  0  1  0  0  0  0  0  0  0  0  0
    2.8091   -0.2793    2.1071 C   0  0  0  0  0  0  0  0  0  0  0  0
    2.8671   -1.7052    2.0361 C   0  0  0  0  0  0  0  0  0  0  0  0
    3.8887   -2.0198    1.1837 C   0  0  0  0  0  0  0  0  0  0  0  0
    4.4598   -0.8940    0.6859 O   0  0  0  0  0  0  0  0  0  0  0  0
    3.7834    0.1415    1.2411 C   0  0  0  0  0  0  0  0  0  0  0  0
    0.4847    0.4020    2.2609 C   0  0  0  0  0  0  0  0  0  0  0  0
   -0.5628    1.4676    2.4840 C   0  0  0  0  0  0  0  0  0  0  0  0
   -0.6861    2.3153    3.5164 C   0  0  0  0  0  0  0  0  0  0  0  0
   -1.8418    3.3144    3.6289 C   0  0  1  0  0  0  0  0  0  0  0  0
   -3.0427    2.9398    2.9883 O   0  0  0  0  0  0  0  0  0  0  0  0
   -2.0072    3.3846    5.1132 C   0  0  0  0  0  0  0  0  0  0  0  0
   -0.9551    2.8820    5.7505 C   0  0  0  0  0  0  0  0  0  0  0  0
    0.1238    2.3237    4.8261 C   0  0  1  0  0  0  0  0  0  0  0  0
    1.1729    3.4588    4.7186 C   0  0  0  0  0  0  0  0  0  0  0  0
    4.0012    2.1880    4.2121 H   0  0  0  0  0  0  0  0  0  0  0  0
    4.9518    1.7547    5.6195 H   0  0  0  0  0  0  0  0  0  0  0  0
    3.3857    2.4504    5.8424 H   0  0  0  0  0  0  0  0  0  0  0  0
    4.5797   -0.6687    3.6056 H   0  0  0  0  0  0  0  0  0  0  0  0
    5.3967   -0.3344    5.0876 H   0  0  0  0  0  0  0  0  0  0  0  0
    4.1121    0.0688    7.1947 H   0  0  0  0  0  0  0  0  0  0  0  0
    1.3990   -0.9371    7.5240 H   0  0  0  0  0  0  0  0  0  0  0  0
    2.2651    0.2523    8.4361 H   0  0  0  0  0  0  0  0  0  0  0  0
    0.2372    1.1482    7.4735 H   0  0  0  0  0  0  0  0  0  0  0  0
    1.6295    2.0322    7.0043 H   0  0  0  0  0  0  0  0  0  0  0  0
   -0.8830   -0.3740    4.4219 H   0  0  0  0  0  0  0  0  0  0  0  0
   -1.3071    0.2157    6.0005 H   0  0  0  0  0  0  0  0  0  0  0  0
   -0.1454   -1.0725    5.8274 H   0  0  0  0  0  0  0  0  0  0  0  0
    1.6768   -0.7893    4.4962 H   0  0  0  0  0  0  0  0  0  0  0  0
    2.1786    1.6008    2.7388 H   0  0  0  0  0  0  0  0  0  0  0  0
    2.2668   -2.4244    2.5744 H   0  0  0  0  0  0  0  0  0  0  0  0
    4.3267   -2.9428    0.8401 H   0  0  0  0  0  0  0  0  0  0  0  0
    4.1315    1.1074    0.9120 H   0  0  0  0  0  0  0  0  0  0  0  0
    0.6414    0.4687    1.1858 H   0  0  0  0  0  0  0  0  0  0  0  0
    0.0856   -0.5954    2.4301 H   0  0  0  0  0  0  0  0  0  0  0  0
   -1.2765    1.5429    1.6800 H   0  0  0  0  0  0  0  0  0  0  0  0
   -1.5227    4.2917    3.2592 H   0  0  0  0  0  0  0  0  0  0  0  0
   -3.0901    2.0014    2.9120 H   0  0  0  0  0  0  0  0  0  0  0  0
   -2.8578    3.8428    5.5906 H   0  0  0  0  0  0  0  0  0  0  0  0
   -0.8575    2.9014    6.8247 H   0  0  0  0  0  0  0  0  0  0  0  0
    0.7047    4.3691    4.3406 H   0  0  0  0  0  0  0  0  0  0  0  0
    1.9757    3.2383    4.0225 H   0  0  0  0  0  0  0  0  0  0  0  0
    1.6055    3.7348    5.6808 H   0  0  0  0  0  0  0  0  0  0  0  0
  2  1  1  1
  1 28  1  0
  1 29  1  0
  1 30  1  0
  2  7  1  0
  2 12  1  0
  2  3  1  0
  3  4  1  0
  3 31  1  0
  3 32  1  0
  4  5  2  0
  4  6  1  0
  6  7  1  0
  7  8  1  0
  7 33  1  1
  8  9  1  0
  8 34  1  0
  8 35  1  0
  9 10  1  0
  9 36  1  0
  9 37  1  0
 10 26  1  0
 10 11  1  1
 10 12  1  0
 11 38  1  0
 11 39  1  0
 11 40  1  0
 12 13  1  0
 12 41  1  6
 13 14  1  0
 13 19  1  0
 13 42  1  1
 14 18  2  0
 14 15  1  0
 15 16  2  0
 15 43  1  0
 16 17  1  0
 16 44  1  0
 17 18  1  0
 18 45  1  0
 19 20  1  0
 19 46  1  0
 19 47  1  0
 20 21  2  0
 20 48  1  0
 21 26  1  0
 21 22  1  0
 22 23  1  0
 22 24  1  0
 22 49  1  6
 23 50  1  0
 24 25  2  0
 24 51  1  0
 25 26  1  0
 25 52  1  0
 26 27  1  6
 27 53  1  0
 27 54  1  0
 27 55  1  0
M  END
>  <i_m_ct_stereo_status>  (325) 
1

>  <s_m_source_file>  (325) 
/var/tmp/pbs.5076255.sched01/tmpt25ahaql/1236iipj8y0.sdf

>  <i_m_source_file_index>  (325) 
14

>  <i_lp_mmshare_version>  (325) 
48012

>  <i_f3d_flags>  (325) 
0

>  <s_epik_input>  (325) 
W0NIMl0xQyg9TylPW0NAQEhdKFtDQEBdMTJbQ0gzXSlbQ0gyXVtDSDJdW0NAXTMoW0NIM10pW0NASF0yW0NAQEhdKGM0W2NIXVtjSF1vW2NIXTQpW0NIMl1bQ0hdPUM1W0NAQF0zKFtDSDNdKVtDSF09W0NIXVtDQEBIXTVbT0hd

>  <s_epik_cmdline>  (325) 
J2VwaWtfcHl0aG9uJywgJy1waHQnLCAnMi4wJywgJy1waCcsICc3LjAnLCAnLXRuJywgJzgnLCAnLW1hJywgJzIwMCcsICctaW1hZScsICc8aW5maWxlLm1hZT4nLCAnLW9tYWUnLCAnPG91dGZpbGUubWFlPic=

>  <r_lp_tautomer_probability>  (325) 
1

>  <r_epik_Ionization_Penalty>  (325) 
4.34506e-08

>  <r_epik_Ionization_Penalty_Charging>  (325) 
0

>  <r_epik_Ionization_Penalty_Neutral>  (325) 
4.34506e-08

>  <r_epik_State_Penalty>  (325) 
-0

>  <r_epik_Charging_Adjusted_Penalty>  (325) 
0

>  <i_epik_Tot_Q>  (325) 
0

>  <i_epik_Tot_abs_Q>  (325) 
0

>  <s_epik_Chemistry_Notes>  (325) 
This compound has an ester and may undergo hydrolysis at high or low pH.

>  <s_lp_Force_Field>  (325) 
OPLS3e

>  <r_lp_Energy>  (325) 
55.8041

>  <b_lp_Chiralities_Consistent>  (325) 
1

>  <s_lp_Variant>  (325) 
97:0-1

>  <s_i_glide_gridfile>  (325) 
pfpi4k_grid

>  <i_i_glide_lignum>  (325) 
14

>  <i_i_glide_rotatable_bonds>  (325) 
2

>  <r_i_docking_score>  (325) 
-2.77389

>  <r_i_glide_ligand_efficiency>  (325) 
-0.102737

>  <r_i_glide_ligand_efficiency_sa>  (325) 
-0.30821

>  <r_i_glide_ligand_efficiency_ln>  (325) 
-0.645716

>  <r_i_glide_gscore>  (325) 
-2.77389

>  <r_i_glide_lipo>  (325) 
-0.0507951

>  <r_i_glide_hbond>  (325) 
-0.32

>  <r_i_glide_metal>  (325) 
-0

>  <r_i_glide_rewards>  (325) 
-0.896823

>  <r_i_glide_evdw>  (325) 
-24.6418

>  <r_i_glide_ecoul>  (325) 
-2.77412

>  <r_i_glide_erotb>  (325) 
0.141935

>  <r_i_glide_esite>  (325) 
0

>  <r_i_glide_emodel>  (325) 
-31.6837

>  <r_i_glide_energy>  (325) 
-27.4159

>  <r_i_glide_einternal>  (325) 
0.331303

>  <r_i_glide_intrahb_reward>  (325) 
-0

>  <i_i_glide_confnum>  (325) 
2

>  <i_i_glide_posenum>  (325) 
15

>  <r_i_glide_eff_state_penalty>  (325) 
0

>  <ligand_id>  (325) 
97

>  <original_smiles>  (325) 
CC12CC(=O)OC1CCC1(C)C2C(c2ccoc2)CC=C2C(O)C=CC21C

>  <smiles>  (325) 
[H]OC1([H])C([H])=C([H])C2(C([H])([H])[H])C1=C([H])C([H])([H])C([H])(c1c([H])oc([H])c1[H])C1([H])C3(C([H])([H])[H])C([H])([H])C(=O)OC3([H])C([H])([H])C([H])([H])C21C([H])([H])[H]

$$$$
98:0:0
     RDKit          3D

 65 70  0  0  1  0  0  0  0  0999 V2000
    3.8405   -0.4568    1.3448 C   0  0  0  0  0  0  0  0  0  0  0  0
    3.6083   -0.6821    2.8566 C   0  0  2  0  0  0  0  0  0  0  0  0
    2.2311   -1.3593    3.0984 C   0  0  0  0  0  0  0  0  0  0  0  0
    1.0357   -0.4218    2.8375 C   0  0  0  0  0  0  0  0  0  0  0  0
    1.1066    0.8543    3.7026 C   0  0  2  0  0  0  0  0  0  0  0  0
   -0.0379    1.8496    3.4933 C   0  0  0  0  0  0  0  0  0  0  0  0
   -1.1757    1.5640    2.7116 C   0  0  0  0  0  0  0  0  0  0  0  0
   -2.1816    2.5450    2.5599 C   0  0  0  0  0  0  0  0  0  0  0  0
   -2.0311    3.8242    3.1299 C   0  0  0  0  0  0  0  0  0  0  0  0
   -2.9457    4.7959    2.8645 O   0  0  0  0  0  0  0  0  0  0  0  0
   -0.9065    4.1106    3.9167 C   0  0  0  0  0  0  0  0  0  0  0  0
    0.0838    3.1216    4.0975 C   0  0  0  0  0  0  0  0  0  0  0  0
    1.2934    3.3996    4.9586 C   0  0  0  0  0  0  0  0  0  0  0  0
    2.6058    2.8693    4.3524 C   0  0  0  0  0  0  0  0  0  0  0  0
    2.4629    1.5704    3.5107 C   0  0  1  0  0  0  0  0  0  0  0  0
    3.6774    0.6196    3.6736 C   0  0  1  0  0  0  0  0  0  0  0  0
    4.0604    0.1993    5.1055 C   0  0  0  0  0  0  0  0  0  0  0  0
    4.7114   -1.1852    4.9781 C   0  0  0  0  0  0  0  0  0  0  0  0
    4.7869   -1.4750    3.4745 C   0  0  1  0  0  0  0  0  0  0  0  0
    4.7269   -2.9035    3.2061 N   0  0  0  0  0  0  0  0  0  0  0  0
    5.3990   -3.5485    2.2350 C   0  0  0  0  0  0  0  0  0  0  0  0
    6.2473   -3.0083    1.5262 O   0  0  0  0  0  0  0  0  0  0  0  0
    4.9615   -4.9718    2.0485 C   0  0  0  0  0  0  0  0  0  0  0  0
    4.1319   -5.6742    2.8760 C   0  0  0  0  0  0  0  0  0  0  0  0
    4.0204   -6.8940    2.2509 N   0  0  0  0  0  0  0  0  0  0  0  0
    3.2638   -8.0121    2.6838 C   0  0  0  0  0  0  0  0  0  0  0  0
    2.3281   -7.8651    3.7432 C   0  0  0  0  0  0  0  0  0  0  0  0
    1.5754   -8.9628    4.1962 C   0  0  0  0  0  0  0  0  0  0  0  0
    1.7438  -10.2213    3.5934 C   0  0  0  0  0  0  0  0  0  0  0  0
    0.9577  -11.3574    4.0505 N   0  0  0  0  0  0  0  0  0  0  0  0
    0.6087  -11.3569    5.2214 O   0  0  0  0  0  0  0  0  0  0  0  0
    0.6833  -12.2151    3.2375 O   0  0  0  0  0  0  0  0  0  0  0  0
    2.6683  -10.3776    2.5474 C   0  0  0  0  0  0  0  0  0  0  0  0
    3.4262   -9.2866    2.0892 C   0  0  0  0  0  0  0  0  0  0  0  0
    4.7558   -6.9414    1.1122 N   0  0  0  0  0  0  0  0  0  0  0  0
    5.3305   -5.7873    0.9833 N   0  0  0  0  0  0  0  0  0  0  0  0
    3.8100   -1.4012    0.8016 H   0  0  0  0  0  0  0  0  0  0  0  0
    4.8124   -0.0031    1.1458 H   0  0  0  0  0  0  0  0  0  0  0  0
    3.0846    0.1884    0.8959 H   0  0  0  0  0  0  0  0  0  0  0  0
    2.1340   -2.2514    2.4804 H   0  0  0  0  0  0  0  0  0  0  0  0
    2.1614   -1.6990    4.1322 H   0  0  0  0  0  0  0  0  0  0  0  0
    0.9764   -0.1734    1.7764 H   0  0  0  0  0  0  0  0  0  0  0  0
    0.1216   -0.9656    3.0702 H   0  0  0  0  0  0  0  0  0  0  0  0
    1.0302    0.5424    4.7431 H   0  0  0  0  0  0  0  0  0  0  0  0
   -1.2906    0.6254    2.1865 H   0  0  0  0  0  0  0  0  0  0  0  0
   -3.0212    2.3298    1.9185 H   0  0  0  0  0  0  0  0  0  0  0  0
   -3.6017    4.5156    2.2365 H   0  0  0  0  0  0  0  0  0  0  0  0
   -0.7778    5.0971    4.3470 H   0  0  0  0  0  0  0  0  0  0  0  0
    1.3652    4.4600    5.2025 H   0  0  0  0  0  0  0  0  0  0  0  0
    1.1150    2.8741    5.8942 H   0  0  0  0  0  0  0  0  0  0  0  0
    2.9955    3.6366    3.6874 H   0  0  0  0  0  0  0  0  0  0  0  0
    3.3558    2.7808    5.1423 H   0  0  0  0  0  0  0  0  0  0  0  0
    2.4638    1.8948    2.4655 H   0  0  0  0  0  0  0  0  0  0  0  0
    4.5440    1.1569    3.3081 H   0  0  0  0  0  0  0  0  0  0  0  0
    4.7604    0.9147    5.5469 H   0  0  0  0  0  0  0  0  0  0  0  0
    3.1836    0.1522    5.7524 H   0  0  0  0  0  0  0  0  0  0  0  0
    5.6949   -1.2287    5.4460 H   0  0  0  0  0  0  0  0  0  0  0  0
    4.0767   -1.9163    5.4835 H   0  0  0  0  0  0  0  0  0  0  0  0
    5.7332   -1.0776    3.1037 H   0  0  0  0  0  0  0  0  0  0  0  0
    4.0644   -3.4412    3.7397 H   0  0  0  0  0  0  0  0  0  0  0  0
    3.6464   -5.4106    3.7934 H   0  0  0  0  0  0  0  0  0  0  0  0
    2.1682   -6.9094    4.2261 H   0  0  0  0  0  0  0  0  0  0  0  0
    0.8613   -8.8314    5.0025 H   0  0  0  0  0  0  0  0  0  0  0  0
    2.8138  -11.3499    2.0927 H   0  0  0  0  0  0  0  0  0  0  0  0
    4.1383   -9.4593    1.2857 H   0  0  0  0  0  0  0  0  0  0  0  0
  2  1  1  6
  1 37  1  0
  1 38  1  0
  1 39  1  0
  2 16  1  0
  2 19  1  0
  2  3  1  0
  3  4  1  0
  3 40  1  0
  3 41  1  0
  4  5  1  0
  4 42  1  0
  4 43  1  0
  5 15  1  0
  5  6  1  0
  5 44  1  1
  6 12  2  0
  6  7  1  0
  7  8  2  0
  7 45  1  0
  8  9  1  0
  8 46  1  0
  9 10  1  0
  9 11  2  0
 10 47  1  0
 11 12  1  0
 11 48  1  0
 12 13  1  0
 13 14  1  0
 13 49  1  0
 13 50  1  0
 14 15  1  0
 14 51  1  0
 14 52  1  0
 15 16  1  0
 15 53  1  6
 16 17  1  0
 16 54  1  6
 17 18  1  0
 17 55  1  0
 17 56  1  0
 18 19  1  0
 18 57  1  0
 18 58  1  0
 19 20  1  0
 19 59  1  6
 20 21  1  0
 20 60  1  0
 21 22  2  0
 21 23  1  0
 23 36  1  0
 23 24  2  0
 24 25  1  0
 24 61  1  0
 25 26  1  0
 25 35  1  0
 26 34  1  0
 26 27  2  0
 27 28  1  0
 27 62  1  0
 28 29  2  0
 28 63  1  0
 29 30  1  0
 29 33  1  0
 30 31  2  0
 30 32  1  0
 33 34  2  0
 33 64  1  0
 34 65  1  0
 35 36  2  0
M  CHG  2  30   1  32  -1
M  END
>  <i_m_ct_stereo_status>  (326) 
1

>  <s_m_source_file>  (326) 
/var/tmp/pbs.5076255.sched01/tmpt25ahaql/1236iipj8y0.sdf

>  <i_m_source_file_index>  (326) 
15

>  <i_lp_mmshare_version>  (326) 
48012

>  <i_f3d_flags>  (326) 
0

>  <s_epik_input>  (326) 
W2NIXTFbY0hdYyhbT0hdKVtjSF1jKFtDSDJdW0NIMl0yKWMxW0NAQEhdKFtDSDJdW0NIMl0zKVtDQEBIXTJbQ0BIXShbQ0BdMzRbQ0gzXSlbQ0gyXVtDSDJdW0NASF00W05IXUMoPU8pYzVbY0hdbihubjUpLWM2W2NIXVtjSF1jKFtOK10oPU8pW08tXSlbY0hdW2NIXTY=

>  <s_epik_cmdline>  (326) 
J2VwaWtfcHl0aG9uJywgJy1waHQnLCAnMi4wJywgJy1waCcsICc3LjAnLCAnLXRuJywgJzgnLCAnLW1hJywgJzIwMCcsICctaW1hZScsICc8aW5maWxlLm1hZT4nLCAnLW9tYWUnLCAnPG91dGZpbGUubWFlPic=

>  <r_lp_tautomer_probability>  (326) 
1

>  <r_epik_Ionization_Penalty>  (326) 
0.000143757

>  <r_epik_Ionization_Penalty_Charging>  (326) 
0

>  <r_epik_Ionization_Penalty_Neutral>  (326) 
0.000143757

>  <r_epik_State_Penalty>  (326) 
-0

>  <r_epik_Charging_Adjusted_Penalty>  (326) 
0

>  <i_epik_Tot_Q>  (326) 
0

>  <i_epik_Tot_abs_Q>  (326) 
2

>  <s_lp_Force_Field>  (326) 
OPLS3e

>  <r_lp_Energy>  (326) 
57.2384

>  <b_lp_Chiralities_Consistent>  (326) 
1

>  <s_lp_Variant>  (326) 
98:0-1

>  <s_i_glide_gridfile>  (326) 
pfpi4k_grid

>  <i_i_glide_lignum>  (326) 
15

>  <i_i_glide_rotatable_bonds>  (326) 
6

>  <r_i_docking_score>  (326) 
-2.30508

>  <r_i_glide_ligand_efficiency>  (326) 
-0.06403

>  <r_i_glide_ligand_efficiency_sa>  (326) 
-0.211422

>  <r_i_glide_ligand_efficiency_ln>  (326) 
-0.502906

>  <r_i_glide_gscore>  (326) 
-2.30508

>  <r_i_glide_lipo>  (326) 
-0.181424

>  <r_i_glide_hbond>  (326) 
-0.15484

>  <r_i_glide_metal>  (326) 
-0

>  <r_i_glide_rewards>  (326) 
-0.334395

>  <r_i_glide_evdw>  (326) 
-28.9471

>  <r_i_glide_ecoul>  (326) 
-2.73499

>  <r_i_glide_erotb>  (326) 
0.342107

>  <r_i_glide_esite>  (326) 
-0.118922

>  <r_i_glide_emodel>  (326) 
-35.3637

>  <r_i_glide_energy>  (326) 
-31.6821

>  <r_i_glide_einternal>  (326) 
1.7002

>  <r_i_glide_intrahb_reward>  (326) 
-0

>  <i_i_glide_confnum>  (326) 
3

>  <i_i_glide_posenum>  (326) 
15

>  <r_i_glide_eff_state_penalty>  (326) 
0

>  <ligand_id>  (326) 
98

>  <original_smiles>  (326) 
CC12CCC3c4ccc(O)cc4CCC3C1CCC2NC(=O)c1cn(-c2ccc([N+](=O)[O-])cc2)nn1

>  <smiles>  (326) 
[H]Oc1c([H])c([H])c2c(c1[H])C([H])([H])C([H])([H])C1([H])C2([H])C([H])([H])C([H])([H])C2(C([H])([H])[H])C([H])(N([H])C(=O)c3nnn(-c4c([H])c([H])c([N+](=O)[O-])c([H])c4[H])c3[H])C([H])([H])C([H])([H])C12[H]

$$$$
98:0:1
     RDKit          3D

 65 70  0  0  1  0  0  0  0  0999 V2000
    4.1049   -0.4379    1.3594 C   0  0  0  0  0  0  0  0  0  0  0  0
    3.8393   -0.7398    2.8523 C   0  0  2  0  0  0  0  0  0  0  0  0
    2.4725   -1.4568    3.0313 C   0  0  0  0  0  0  0  0  0  0  0  0
    1.2658   -0.5337    2.7823 C   0  0  0  0  0  0  0  0  0  0  0  0
    1.2905    0.7061    3.7058 C   0  0  2  0  0  0  0  0  0  0  0  0
    0.1376    1.6922    3.5023 C   0  0  0  0  0  0  0  0  0  0  0  0
   -0.9678    1.4286    2.6657 C   0  0  0  0  0  0  0  0  0  0  0  0
   -1.9697    2.4033    2.5010 C   0  0  0  0  0  0  0  0  0  0  0  0
   -1.8641    3.6599    3.1280 C   0  0  0  0  0  0  0  0  0  0  0  0
   -2.7931    4.6231    2.8738 O   0  0  0  0  0  0  0  0  0  0  0  0
   -0.7822    3.9164    3.9926 C   0  0  0  0  0  0  0  0  0  0  0  0
    0.2133    2.9349    4.1728 C   0  0  0  0  0  0  0  0  0  0  0  0
    1.3999    3.1935    5.0812 C   0  0  0  0  0  0  0  0  0  0  0  0
    2.7382    2.7191    4.4816 C   0  0  0  0  0  0  0  0  0  0  0  0
    2.6412    1.4533    3.5836 C   0  0  1  0  0  0  0  0  0  0  0  0
    3.8702    0.5208    3.7333 C   0  0  1  0  0  0  0  0  0  0  0  0
    4.2240    0.0403    5.1530 C   0  0  0  0  0  0  0  0  0  0  0  0
    4.9005   -1.3250    4.9760 C   0  0  0  0  0  0  0  0  0  0  0  0
    5.0154   -1.5451    3.4589 C   0  0  1  0  0  0  0  0  0  0  0  0
    4.9894   -2.9628    3.1212 N   0  0  0  0  0  0  0  0  0  0  0  0
    5.5537   -3.5302    2.0452 C   0  0  0  0  0  0  0  0  0  0  0  0
    6.2184   -2.9024    1.2189 O   0  0  0  0  0  0  0  0  0  0  0  0
    5.2938   -4.9947    1.9391 C   0  0  0  0  0  0  0  0  0  0  0  0
    4.6091   -5.7701    2.8336 C   0  0  0  0  0  0  0  0  0  0  0  0
    4.6411   -7.0325    2.2802 N   0  0  0  0  0  0  0  0  0  0  0  0
    4.0736   -8.2149    2.8008 C   0  0  0  0  0  0  0  0  0  0  0  0
    2.9178   -8.1305    3.6080 C   0  0  0  0  0  0  0  0  0  0  0  0
    2.3357   -9.2943    4.1422 C   0  0  0  0  0  0  0  0  0  0  0  0
    2.9125  -10.5549    3.8849 C   0  0  0  0  0  0  0  0  0  0  0  0
    2.3146  -11.7666    4.4533 N   0  0  0  0  0  0  0  0  0  0  0  0
    3.0885  -12.6173    4.8745 O   0  0  0  0  0  0  0  0  0  0  0  0
    1.0925  -11.8443    4.4756 O   0  0  0  0  0  0  0  0  0  0  0  0
    4.0736  -10.6401    3.0892 C   0  0  0  0  0  0  0  0  0  0  0  0
    4.6514   -9.4780    2.5412 C   0  0  0  0  0  0  0  0  0  0  0  0
    5.3257   -7.0284    1.1115 N   0  0  0  0  0  0  0  0  0  0  0  0
    5.7187   -5.8103    0.8928 N   0  0  0  0  0  0  0  0  0  0  0  0
    4.0957   -1.3528    0.7689 H   0  0  0  0  0  0  0  0  0  0  0  0
    5.0780    0.0313    1.2077 H   0  0  0  0  0  0  0  0  0  0  0  0
    3.3524    0.2176    0.9232 H   0  0  0  0  0  0  0  0  0  0  0  0
    2.4126   -2.3238    2.3743 H   0  0  0  0  0  0  0  0  0  0  0  0
    2.3877   -1.8444    4.0472 H   0  0  0  0  0  0  0  0  0  0  0  0
    1.2332   -0.2369    1.7329 H   0  0  0  0  0  0  0  0  0  0  0  0
    0.3552   -1.1040    2.9632 H   0  0  0  0  0  0  0  0  0  0  0  0
    1.1973    0.3440    4.7304 H   0  0  0  0  0  0  0  0  0  0  0  0
   -1.0560    0.5061    2.1128 H   0  0  0  0  0  0  0  0  0  0  0  0
   -2.8030    2.1911    1.8458 H   0  0  0  0  0  0  0  0  0  0  0  0
   -3.4601    4.3189    2.2787 H   0  0  0  0  0  0  0  0  0  0  0  0
   -0.6947    4.8741    4.4876 H   0  0  0  0  0  0  0  0  0  0  0  0
    1.4499    4.2424    5.3753 H   0  0  0  0  0  0  0  0  0  0  0  0
    1.2140    2.6219    5.9880 H   0  0  0  0  0  0  0  0  0  0  0  0
    3.1364    3.5218    3.8630 H   0  0  0  0  0  0  0  0  0  0  0  0
    3.4661    2.6034    5.2884 H   0  0  0  0  0  0  0  0  0  0  0  0
    2.6645    1.8236    2.5545 H   0  0  0  0  0  0  0  0  0  0  0  0
    4.7383    1.0870    3.4200 H   0  0  0  0  0  0  0  0  0  0  0  0
    4.9022    0.7447    5.6431 H   0  0  0  0  0  0  0  0  0  0  0  0
    3.3346   -0.0503    5.7773 H   0  0  0  0  0  0  0  0  0  0  0  0
    5.8684   -1.3728    5.4728 H   0  0  0  0  0  0  0  0  0  0  0  0
    4.2706   -2.0896    5.4353 H   0  0  0  0  0  0  0  0  0  0  0  0
    5.9644   -1.1180    3.1302 H   0  0  0  0  0  0  0  0  0  0  0  0
    4.4928   -3.5703    3.7550 H   0  0  0  0  0  0  0  0  0  0  0  0
    4.1295   -5.5507    3.7768 H   0  0  0  0  0  0  0  0  0  0  0  0
    2.4657   -7.1737    3.8227 H   0  0  0  0  0  0  0  0  0  0  0  0
    1.4506   -9.2264    4.7605 H   0  0  0  0  0  0  0  0  0  0  0  0
    4.5128  -11.6085    2.8763 H   0  0  0  0  0  0  0  0  0  0  0  0
    5.5413   -9.5682    1.9293 H   0  0  0  0  0  0  0  0  0  0  0  0
  2  1  1  6
  1 37  1  0
  1 38  1  0
  1 39  1  0
  2 16  1  0
  2 19  1  0
  2  3  1  0
  3  4  1  0
  3 40  1  0
  3 41  1  0
  4  5  1  0
  4 42  1  0
  4 43  1  0
  5 15  1  0
  5  6  1  0
  5 44  1  1
  6 12  2  0
  6  7  1  0
  7  8  2  0
  7 45  1  0
  8  9  1  0
  8 46  1  0
  9 10  1  0
  9 11  2  0
 10 47  1  0
 11 12  1  0
 11 48  1  0
 12 13  1  0
 13 14  1  0
 13 49  1  0
 13 50  1  0
 14 15  1  0
 14 51  1  0
 14 52  1  0
 15 16  1  0
 15 53  1  6
 16 17  1  0
 16 54  1  6
 17 18  1  0
 17 55  1  0
 17 56  1  0
 18 19  1  0
 18 57  1  0
 18 58  1  0
 19 20  1  0
 19 59  1  6
 20 21  1  0
 20 60  1  0
 21 22  2  0
 21 23  1  0
 23 36  1  0
 23 24  2  0
 24 25  1  0
 24 61  1  0
 25 26  1  0
 25 35  1  0
 26 34  1  0
 26 27  2  0
 27 28  1  0
 27 62  1  0
 28 29  2  0
 28 63  1  0
 29 30  1  0
 29 33  1  0
 30 31  2  0
 30 32  1  0
 33 34  2  0
 33 64  1  0
 34 65  1  0
 35 36  2  0
M  CHG  2  30   1  32  -1
M  END
>  <i_m_ct_stereo_status>  (327) 
1

>  <s_m_source_file>  (327) 
/var/tmp/pbs.5076255.sched01/tmpt25ahaql/1236iipj8y0.sdf

>  <i_m_source_file_index>  (327) 
15

>  <i_lp_mmshare_version>  (327) 
48012

>  <i_f3d_flags>  (327) 
0

>  <s_epik_input>  (327) 
W2NIXTFbY0hdYyhbT0hdKVtjSF1jKFtDSDJdW0NIMl0yKWMxW0NAQEhdKFtDSDJdW0NIMl0zKVtDQEBIXTJbQ0BIXShbQ0BdMzRbQ0gzXSlbQ0gyXVtDSDJdW0NASF00W05IXUMoPU8pYzVbY0hdbihubjUpLWM2W2NIXVtjSF1jKFtOK10oPU8pW08tXSlbY0hdW2NIXTY=

>  <s_epik_cmdline>  (327) 
J2VwaWtfcHl0aG9uJywgJy1waHQnLCAnMi4wJywgJy1waCcsICc3LjAnLCAnLXRuJywgJzgnLCAnLW1hJywgJzIwMCcsICctaW1hZScsICc8aW5maWxlLm1hZT4nLCAnLW9tYWUnLCAnPG91dGZpbGUubWFlPic=

>  <r_lp_tautomer_probability>  (327) 
1

>  <r_epik_Ionization_Penalty>  (327) 
0.000143757

>  <r_epik_Ionization_Penalty_Charging>  (327) 
0

>  <r_epik_Ionization_Penalty_Neutral>  (327) 
0.000143757

>  <r_epik_State_Penalty>  (327) 
-0

>  <r_epik_Charging_Adjusted_Penalty>  (327) 
0

>  <i_epik_Tot_Q>  (327) 
0

>  <i_epik_Tot_abs_Q>  (327) 
2

>  <s_lp_Force_Field>  (327) 
OPLS3e

>  <r_lp_Energy>  (327) 
57.2384

>  <b_lp_Chiralities_Consistent>  (327) 
1

>  <s_lp_Variant>  (327) 
98:0-1

>  <s_i_glide_gridfile>  (327) 
pfpi4k_grid

>  <i_i_glide_lignum>  (327) 
15

>  <i_i_glide_rotatable_bonds>  (327) 
6

>  <r_i_docking_score>  (327) 
-2.25109

>  <r_i_glide_ligand_efficiency>  (327) 
-0.0625304

>  <r_i_glide_ligand_efficiency_sa>  (327) 
-0.206471

>  <r_i_glide_ligand_efficiency_ln>  (327) 
-0.491128

>  <r_i_glide_gscore>  (327) 
-2.25109

>  <r_i_glide_lipo>  (327) 
-0.25833

>  <r_i_glide_hbond>  (327) 
-0.16

>  <r_i_glide_metal>  (327) 
-0

>  <r_i_glide_rewards>  (327) 
-0.148372

>  <r_i_glide_evdw>  (327) 
-31.1206

>  <r_i_glide_ecoul>  (327) 
-2.43442

>  <r_i_glide_erotb>  (327) 
0.342107

>  <r_i_glide_esite>  (327) 
-0.105306

>  <r_i_glide_emodel>  (327) 
-36.9499

>  <r_i_glide_energy>  (327) 
-33.555

>  <r_i_glide_einternal>  (327) 
1.98037

>  <r_i_glide_intrahb_reward>  (327) 
-0

>  <i_i_glide_confnum>  (327) 
3

>  <i_i_glide_posenum>  (327) 
1

>  <r_i_glide_eff_state_penalty>  (327) 
0

>  <ligand_id>  (327) 
98

>  <original_smiles>  (327) 
CC12CCC3c4ccc(O)cc4CCC3C1CCC2NC(=O)c1cn(-c2ccc([N+](=O)[O-])cc2)nn1

>  <smiles>  (327) 
[H]Oc1c([H])c([H])c2c(c1[H])C([H])([H])C([H])([H])C1([H])C2([H])C([H])([H])C([H])([H])C2(C([H])([H])[H])C([H])(N([H])C(=O)c3nnn(-c4c([H])c([H])c([N+](=O)[O-])c([H])c4[H])c3[H])C([H])([H])C([H])([H])C12[H]

$$$$
98:0:2
     RDKit          3D

 65 70  0  0  1  0  0  0  0  0999 V2000
    3.9204   -1.0870    1.2798 C   0  0  0  0  0  0  0  0  0  0  0  0
    3.7412   -1.3586    2.7904 C   0  0  2  0  0  0  0  0  0  0  0  0
    2.3327   -1.9525    3.0751 C   0  0  0  0  0  0  0  0  0  0  0  0
    1.1949   -0.9318    2.8962 C   0  0  0  0  0  0  0  0  0  0  0  0
    1.3919    0.3065    3.7968 C   0  0  2  0  0  0  0  0  0  0  0  0
    0.3205    1.3890    3.6544 C   0  0  0  0  0  0  0  0  0  0  0  0
   -0.8593    1.2217    2.8933 C   0  0  0  0  0  0  0  0  0  0  0  0
   -1.7828    2.2791    2.7856 C   0  0  0  0  0  0  0  0  0  0  0  0
   -1.5404    3.5141    3.4164 C   0  0  0  0  0  0  0  0  0  0  0  0
   -2.4248    4.5403    3.2727 O   0  0  0  0  0  0  0  0  0  0  0  0
   -0.3718    3.6869    4.1795 C   0  0  0  0  0  0  0  0  0  0  0  0
    0.5502    2.6268    4.2969 C   0  0  0  0  0  0  0  0  0  0  0  0
    1.8090    2.7837    5.1273 C   0  0  0  0  0  0  0  0  0  0  0  0
    3.0560    2.1916    4.4471 C   0  0  0  0  0  0  0  0  0  0  0  0
    2.7915    0.9342    3.5730 C   0  0  1  0  0  0  0  0  0  0  0  0
    3.9553   -0.0899    3.6409 C   0  0  1  0  0  0  0  0  0  0  0  0
    4.3539   -0.5973    5.0430 C   0  0  0  0  0  0  0  0  0  0  0  0
    4.8850   -2.0239    4.8442 C   0  0  0  0  0  0  0  0  0  0  0  0
    4.8732   -2.2703    3.3261 C   0  0  1  0  0  0  0  0  0  0  0  0
    4.7067   -3.6858    3.0117 N   0  0  0  0  0  0  0  0  0  0  0  0
    5.1310   -4.2956    1.8925 C   0  0  0  0  0  0  0  0  0  0  0  0
    5.6522   -3.7097    0.9445 O   0  0  0  0  0  0  0  0  0  0  0  0
    4.9008   -5.7613    1.8997 C   0  0  0  0  0  0  0  0  0  0  0  0
    5.0040   -6.5745    2.9877 C   0  0  0  0  0  0  0  0  0  0  0  0
    4.7588   -7.8384    2.4918 N   0  0  0  0  0  0  0  0  0  0  0  0
    4.7343   -9.0625    3.2062 C   0  0  0  0  0  0  0  0  0  0  0  0
    5.2357   -9.1175    4.5263 C   0  0  0  0  0  0  0  0  0  0  0  0
    5.1966  -10.3190    5.2575 C   0  0  0  0  0  0  0  0  0  0  0  0
    4.6600  -11.4948    4.6876 C   0  0  0  0  0  0  0  0  0  0  0  0
    4.6365  -12.7562    5.4523 N   0  0  0  0  0  0  0  0  0  0  0  0
    5.0353  -12.7357    6.6104 O   0  0  0  0  0  0  0  0  0  0  0  0
    4.2523  -13.7694    4.8817 O   0  0  0  0  0  0  0  0  0  0  0  0
    4.1648  -11.4389    3.3662 C   0  0  0  0  0  0  0  0  0  0  0  0
    4.1988  -10.2373    2.6320 C   0  0  0  0  0  0  0  0  0  0  0  0
    4.5256   -7.7849    1.1546 N   0  0  0  0  0  0  0  0  0  0  0  0
    4.6186   -6.5440    0.7851 N   0  0  0  0  0  0  0  0  0  0  0  0
    3.7743   -1.9965    0.7005 H   0  0  0  0  0  0  0  0  0  0  0  0
    4.9217   -0.7143    1.0569 H   0  0  0  0  0  0  0  0  0  0  0  0
    3.2013   -0.3667    0.8903 H   0  0  0  0  0  0  0  0  0  0  0  0
    2.1532   -2.8169    2.4363 H   0  0  0  0  0  0  0  0  0  0  0  0
    2.2847   -2.3261    4.0987 H   0  0  0  0  0  0  0  0  0  0  0  0
    1.1168   -0.6435    1.8469 H   0  0  0  0  0  0  0  0  0  0  0  0
    0.2545   -1.4214    3.1490 H   0  0  0  0  0  0  0  0  0  0  0  0
    1.3372   -0.0376    4.8296 H   0  0  0  0  0  0  0  0  0  0  0  0
   -1.0674    0.2985    2.3723 H   0  0  0  0  0  0  0  0  0  0  0  0
   -2.6704    2.1414    2.1830 H   0  0  0  0  0  0  0  0  0  0  0  0
   -3.0795    4.3328    2.6223 H   0  0  0  0  0  0  0  0  0  0  0  0
   -0.1757    4.6359    4.6595 H   0  0  0  0  0  0  0  0  0  0  0  0
    1.9672    3.8273    5.4027 H   0  0  0  0  0  0  0  0  0  0  0  0
    1.6326    2.2386    6.0529 H   0  0  0  0  0  0  0  0  0  0  0  0
    3.4742    2.9532    3.7917 H   0  0  0  0  0  0  0  0  0  0  0  0
    3.8243    2.0198    5.2034 H   0  0  0  0  0  0  0  0  0  0  0  0
    2.7719    1.2940    2.5406 H   0  0  0  0  0  0  0  0  0  0  0  0
    4.8400    0.4139    3.2489 H   0  0  0  0  0  0  0  0  0  0  0  0
    5.1203    0.0436    5.4866 H   0  0  0  0  0  0  0  0  0  0  0  0
    3.5021   -0.6062    5.7251 H   0  0  0  0  0  0  0  0  0  0  0  0
    5.8728   -2.1589    5.2795 H   0  0  0  0  0  0  0  0  0  0  0  0
    4.2235   -2.7237    5.3585 H   0  0  0  0  0  0  0  0  0  0  0  0
    5.8312   -1.9338    2.9266 H   0  0  0  0  0  0  0  0  0  0  0  0
    4.2677   -4.2620    3.7155 H   0  0  0  0  0  0  0  0  0  0  0  0
    5.2362   -6.3552    4.0170 H   0  0  0  0  0  0  0  0  0  0  0  0
    5.6585   -8.2449    5.0023 H   0  0  0  0  0  0  0  0  0  0  0  0
    5.5930  -10.3267    6.2627 H   0  0  0  0  0  0  0  0  0  0  0  0
    3.7544  -12.3207    2.8919 H   0  0  0  0  0  0  0  0  0  0  0  0
    3.8034  -10.2408    1.6230 H   0  0  0  0  0  0  0  0  0  0  0  0
  2  1  1  6
  1 37  1  0
  1 38  1  0
  1 39  1  0
  2 16  1  0
  2 19  1  0
  2  3  1  0
  3  4  1  0
  3 40  1  0
  3 41  1  0
  4  5  1  0
  4 42  1  0
  4 43  1  0
  5 15  1  0
  5  6  1  0
  5 44  1  1
  6 12  2  0
  6  7  1  0
  7  8  2  0
  7 45  1  0
  8  9  1  0
  8 46  1  0
  9 10  1  0
  9 11  2  0
 10 47  1  0
 11 12  1  0
 11 48  1  0
 12 13  1  0
 13 14  1  0
 13 49  1  0
 13 50  1  0
 14 15  1  0
 14 51  1  0
 14 52  1  0
 15 16  1  0
 15 53  1  6
 16 17  1  0
 16 54  1  6
 17 18  1  0
 17 55  1  0
 17 56  1  0
 18 19  1  0
 18 57  1  0
 18 58  1  0
 19 20  1  0
 19 59  1  6
 20 21  1  0
 20 60  1  0
 21 22  2  0
 21 23  1  0
 23 36  1  0
 23 24  2  0
 24 25  1  0
 24 61  1  0
 25 26  1  0
 25 35  1  0
 26 34  1  0
 26 27  2  0
 27 28  1  0
 27 62  1  0
 28 29  2  0
 28 63  1  0
 29 30  1  0
 29 33  1  0
 30 31  2  0
 30 32  1  0
 33 34  2  0
 33 64  1  0
 34 65  1  0
 35 36  2  0
M  CHG  2  30   1  32  -1
M  END
>  <i_m_ct_stereo_status>  (328) 
1

>  <s_m_source_file>  (328) 
/var/tmp/pbs.5076255.sched01/tmpt25ahaql/1236iipj8y0.sdf

>  <i_m_source_file_index>  (328) 
15

>  <i_lp_mmshare_version>  (328) 
48012

>  <i_f3d_flags>  (328) 
0

>  <s_epik_input>  (328) 
W2NIXTFbY0hdYyhbT0hdKVtjSF1jKFtDSDJdW0NIMl0yKWMxW0NAQEhdKFtDSDJdW0NIMl0zKVtDQEBIXTJbQ0BIXShbQ0BdMzRbQ0gzXSlbQ0gyXVtDSDJdW0NASF00W05IXUMoPU8pYzVbY0hdbihubjUpLWM2W2NIXVtjSF1jKFtOK10oPU8pW08tXSlbY0hdW2NIXTY=

>  <s_epik_cmdline>  (328) 
J2VwaWtfcHl0aG9uJywgJy1waHQnLCAnMi4wJywgJy1waCcsICc3LjAnLCAnLXRuJywgJzgnLCAnLW1hJywgJzIwMCcsICctaW1hZScsICc8aW5maWxlLm1hZT4nLCAnLW9tYWUnLCAnPG91dGZpbGUubWFlPic=

>  <r_lp_tautomer_probability>  (328) 
1

>  <r_epik_Ionization_Penalty>  (328) 
0.000143757

>  <r_epik_Ionization_Penalty_Charging>  (328) 
0

>  <r_epik_Ionization_Penalty_Neutral>  (328) 
0.000143757

>  <r_epik_State_Penalty>  (328) 
-0

>  <r_epik_Charging_Adjusted_Penalty>  (328) 
0

>  <i_epik_Tot_Q>  (328) 
0

>  <i_epik_Tot_abs_Q>  (328) 
2

>  <s_lp_Force_Field>  (328) 
OPLS3e

>  <r_lp_Energy>  (328) 
57.2384

>  <b_lp_Chiralities_Consistent>  (328) 
1

>  <s_lp_Variant>  (328) 
98:0-1

>  <s_i_glide_gridfile>  (328) 
pfpi4k_grid

>  <i_i_glide_lignum>  (328) 
15

>  <i_i_glide_rotatable_bonds>  (328) 
6

>  <r_i_docking_score>  (328) 
-2.24413

>  <r_i_glide_ligand_efficiency>  (328) 
-0.0623368

>  <r_i_glide_ligand_efficiency_sa>  (328) 
-0.205832

>  <r_i_glide_ligand_efficiency_ln>  (328) 
-0.489608

>  <r_i_glide_gscore>  (328) 
-2.24413

>  <r_i_glide_lipo>  (328) 
-0.128085

>  <r_i_glide_hbond>  (328) 
-0.16

>  <r_i_glide_metal>  (328) 
-0

>  <r_i_glide_rewards>  (328) 
-0.127836

>  <r_i_glide_evdw>  (328) 
-30.9243

>  <r_i_glide_ecoul>  (328) 
-3.22211

>  <r_i_glide_erotb>  (328) 
0.342107

>  <r_i_glide_esite>  (328) 
-0.14078

>  <r_i_glide_emodel>  (328) 
-38.4003

>  <r_i_glide_energy>  (328) 
-34.1464

>  <r_i_glide_einternal>  (328) 
0.588031

>  <r_i_glide_intrahb_reward>  (328) 
-0

>  <i_i_glide_confnum>  (328) 
3

>  <i_i_glide_posenum>  (328) 
37

>  <r_i_glide_eff_state_penalty>  (328) 
0

>  <ligand_id>  (328) 
98

>  <original_smiles>  (328) 
CC12CCC3c4ccc(O)cc4CCC3C1CCC2NC(=O)c1cn(-c2ccc([N+](=O)[O-])cc2)nn1

>  <smiles>  (328) 
[H]Oc1c([H])c([H])c2c(c1[H])C([H])([H])C([H])([H])C1([H])C2([H])C([H])([H])C([H])([H])C2(C([H])([H])[H])C([H])(N([H])C(=O)c3nnn(-c4c([H])c([H])c([N+](=O)[O-])c([H])c4[H])c3[H])C([H])([H])C([H])([H])C12[H]

$$$$
99:0:0
     RDKit          3D

 60 64  0  0  1  0  0  0  0  0999 V2000
    6.1134   -3.8502    0.3124 C   0  0  0  0  0  0  0  0  0  0  0  0
    7.0468   -4.4234    1.1866 C   0  0  0  0  0  0  0  0  0  0  0  0
    6.9165   -5.7746    1.5718 C   0  0  0  0  0  0  0  0  0  0  0  0
    5.8273   -6.5442    1.1234 C   0  0  0  0  0  0  0  0  0  0  0  0
    5.6154   -7.9770    1.6474 C   0  0  2  0  0  0  0  0  0  0  0  0
    4.1084   -8.3616    1.7732 C   0  0  0  0  0  0  0  0  0  0  0  0
    3.7255   -8.6040    3.2678 C   0  0  2  0  0  0  0  0  0  0  0  0
    2.2304   -8.7912    3.4241 N   0  0  0  0  0  0  0  0  0  0  0  0
    1.4205   -7.5820    3.0817 C   0  0  0  0  0  0  0  0  0  0  0  0
   -0.0375   -7.7531    3.5331 C   0  0  0  0  0  0  0  0  0  0  0  0
   -0.6571   -9.0002    2.8887 C   0  0  0  0  0  0  0  0  0  0  0  0
    0.2378  -10.2215    3.1529 C   0  0  0  0  0  0  0  0  0  0  0  0
    1.6952   -9.9865    2.7137 C   0  0  0  0  0  0  0  0  0  0  0  0
    4.2373   -7.4258    4.1751 C   0  0  0  0  0  0  0  0  0  0  0  0
    5.7711   -7.2647    4.1007 C   0  0  0  0  0  0  0  0  0  0  0  0
    6.2830   -8.2802    3.0307 C   0  0  1  0  0  0  0  0  0  0  0  0
    5.9017   -9.7308    3.4872 C   0  0  0  0  0  0  0  0  0  0  0  0
    6.6042  -10.1013    4.8250 C   0  0  0  0  0  0  0  0  0  0  0  0
    6.3309  -11.5402    5.2756 C   0  0  0  0  0  0  0  0  0  0  0  0
    6.7039  -12.5532    4.1809 C   0  0  0  0  0  0  0  0  0  0  0  0
    6.0129  -12.2292    2.8526 C   0  0  0  0  0  0  0  0  0  0  0  0
    6.3016  -10.7839    2.4143 C   0  0  0  0  0  0  0  0  0  0  0  0
    4.4373   -9.7989    3.7139 N   0  0  0  0  0  0  0  0  0  0  0  0
    4.9453   -5.9843    0.1689 C   0  0  0  0  0  0  0  0  0  0  0  0
    5.0652   -4.6339   -0.2071 C   0  0  0  0  0  0  0  0  0  0  0  0
    6.1860   -2.7981    0.0591 H   0  0  0  0  0  0  0  0  0  0  0  0
    7.8515   -3.8465    1.6151 H   0  0  0  0  0  0  0  0  0  0  0  0
    7.6771   -6.1898    2.2197 H   0  0  0  0  0  0  0  0  0  0  0  0
    6.0735   -8.5950    0.8757 H   0  0  0  0  0  0  0  0  0  0  0  0
    3.4707   -7.5909    1.3541 H   0  0  0  0  0  0  0  0  0  0  0  0
    3.9345   -9.2724    1.1805 H   0  0  0  0  0  0  0  0  0  0  0  0
    1.7975   -6.7012    3.6139 H   0  0  0  0  0  0  0  0  0  0  0  0
    1.4066   -7.3983    1.9935 H   0  0  0  0  0  0  0  0  0  0  0  0
   -0.0726   -7.8337    4.6198 H   0  0  0  0  0  0  0  0  0  0  0  0
   -0.6233   -6.8681    3.2753 H   0  0  0  0  0  0  0  0  0  0  0  0
   -1.6606   -9.1671    3.2974 H   0  0  0  0  0  0  0  0  0  0  0  0
   -0.7521   -8.8564    1.8061 H   0  0  0  0  0  0  0  0  0  0  0  0
    0.2103  -10.4902    4.2138 H   0  0  0  0  0  0  0  0  0  0  0  0
   -0.1571  -11.0581    2.5791 H   0  0  0  0  0  0  0  0  0  0  0  0
    1.7301   -9.8414    1.6265 H   0  0  0  0  0  0  0  0  0  0  0  0
    2.2801  -10.8849    2.9427 H   0  0  0  0  0  0  0  0  0  0  0  0
    3.8299   -6.4720    3.8435 H   0  0  0  0  0  0  0  0  0  0  0  0
    3.9234   -7.5750    5.2134 H   0  0  0  0  0  0  0  0  0  0  0  0
    5.9734   -6.2229    3.8426 H   0  0  0  0  0  0  0  0  0  0  0  0
    6.2310   -7.4187    5.0856 H   0  0  0  0  0  0  0  0  0  0  0  0
    7.3786   -8.2340    2.9451 H   0  0  0  0  0  0  0  0  0  0  0  0
    7.6804   -9.9525    4.7191 H   0  0  0  0  0  0  0  0  0  0  0  0
    6.3105   -9.4533    5.6479 H   0  0  0  0  0  0  0  0  0  0  0  0
    6.8949  -11.7456    6.1890 H   0  0  0  0  0  0  0  0  0  0  0  0
    5.2818  -11.6412    5.5518 H   0  0  0  0  0  0  0  0  0  0  0  0
    7.7845  -12.5398    4.0394 H   0  0  0  0  0  0  0  0  0  0  0  0
    6.4278  -13.5541    4.5022 H   0  0  0  0  0  0  0  0  0  0  0  0
    6.3373  -12.9135    2.0680 H   0  0  0  0  0  0  0  0  0  0  0  0
    4.9393  -12.3767    2.9702 H   0  0  0  0  0  0  0  0  0  0  0  0
    5.8264  -10.6351    1.4478 H   0  0  0  0  0  0  0  0  0  0  0  0
    7.3658  -10.6928    2.2061 H   0  0  0  0  0  0  0  0  0  0  0  0
    4.2991   -9.9507    4.7092 H   0  0  0  0  0  0  0  0  0  0  0  0
    4.1391   -6.5615   -0.2580 H   0  0  0  0  0  0  0  0  0  0  0  0
    4.3279   -4.2096   -0.8750 H   0  0  0  0  0  0  0  0  0  0  0  0
    2.0771   -8.9714    4.4040 H   0  0  0  0  0  0  0  0  0  0  0  0
  1 25  2  0
  1  2  1  0
  1 26  1  0
  2  3  2  0
  2 27  1  0
  3  4  1  0
  3 28  1  0
  4  5  1  0
  4 24  2  0
  5 16  1  0
  5  6  1  0
  5 29  1  6
  6  7  1  0
  6 30  1  0
  6 31  1  0
  7 23  1  0
  7  8  1  6
  7 14  1  0
  8 13  1  0
  8  9  1  0
  8 60  1  0
  9 10  1  0
  9 32  1  0
  9 33  1  0
 10 11  1  0
 10 34  1  0
 10 35  1  0
 11 12  1  0
 11 36  1  0
 11 37  1  0
 12 13  1  0
 12 38  1  0
 12 39  1  0
 13 40  1  0
 13 41  1  0
 14 15  1  0
 14 42  1  0
 14 43  1  0
 15 16  1  0
 15 44  1  0
 15 45  1  0
 16 17  1  0
 16 46  1  6
 17 22  1  0
 17 18  1  0
 17 23  1  0
 18 19  1  0
 18 47  1  0
 18 48  1  0
 19 20  1  0
 19 49  1  0
 19 50  1  0
 20 21  1  0
 20 51  1  0
 20 52  1  0
 21 22  1  0
 21 53  1  0
 21 54  1  0
 22 55  1  0
 22 56  1  0
 23 57  1  0
 24 25  1  0
 24 58  1  0
 25 59  1  0
M  CHG  1   8   1
M  END
>  <i_m_ct_stereo_status>  (329) 
1

>  <s_m_source_file>  (329) 
/var/tmp/pbs.5076255.sched01/tmpt25ahaql/1236iipj8y0.sdf

>  <i_m_source_file_index>  (329) 
16

>  <i_lp_mmshare_version>  (329) 
48012

>  <i_f3d_flags>  (329) 
0

>  <s_epik_input>  (329) 
W0NIMl0xW0NIMl1bQ0gyXVtDSDJdW0NIMl1DMTJbQ0BIXTNbQ0BIXShjNFtjSF1bY0hdW2NIXVtjSF1bY0hdNClbQ0gyXVtDQEBdKFtOSF0yKShbQ0gyXVtDSDJdMylONVtDSDJdW0NIMl1bQ0gyXVtDSDJdW0NIMl01

>  <s_epik_cmdline>  (329) 
J2VwaWtfcHl0aG9uJywgJy1waHQnLCAnMi4wJywgJy1waCcsICc3LjAnLCAnLXRuJywgJzgnLCAnLW1hJywgJzIwMCcsICctaW1hZScsICc8aW5maWxlLm1hZT4nLCAnLW9tYWUnLCAnPG91dGZpbGUubWFlPic=

>  <r_epik_Ionization_Penalty>  (329) 
0.000122109

>  <r_epik_Ionization_Penalty_Charging>  (329) 
0.000121105

>  <r_epik_Ionization_Penalty_Neutral>  (329) 
1.0041e-06

>  <r_epik_State_Penalty>  (329) 
0.0119939

>  <r_epik_Charging_Adjusted_Penalty>  (329) 
0.012115

>  <i_epik_Tot_Q>  (329) 
1

>  <i_epik_Tot_abs_Q>  (329) 
1

>  <s_lp_Force_Field>  (329) 
OPLS3e

>  <r_lp_Energy>  (329) 
58.5595

>  <b_lp_Chiralities_Consistent>  (329) 
1

>  <s_lp_Variant>  (329) 
99:0-1

>  <s_i_glide_gridfile>  (329) 
pfpi4k_grid

>  <i_i_glide_lignum>  (329) 
16

>  <i_i_glide_rotatable_bonds>  (329) 
2

>  <r_i_docking_score>  (329) 
-3.05644

>  <r_i_glide_ligand_efficiency>  (329) 
-0.122258

>  <r_i_glide_ligand_efficiency_sa>  (329) 
-0.357483

>  <r_i_glide_ligand_efficiency_ln>  (329) 
-0.724468

>  <r_i_glide_gscore>  (329) 
-3.05644

>  <r_i_glide_lipo>  (329) 
-0.683063

>  <r_i_glide_hbond>  (329) 
0

>  <r_i_glide_metal>  (329) 
-0

>  <r_i_glide_rewards>  (329) 
-1.09406

>  <r_i_glide_evdw>  (329) 
-25.3698

>  <r_i_glide_ecoul>  (329) 
-2.19345

>  <r_i_glide_erotb>  (329) 
0.328332

>  <r_i_glide_esite>  (329) 
-0.0101385

>  <r_i_glide_emodel>  (329) 
-29.6474

>  <r_i_glide_energy>  (329) 
-27.5632

>  <r_i_glide_einternal>  (329) 
6.4453

>  <r_i_glide_intrahb_reward>  (329) 
-0

>  <i_i_glide_confnum>  (329) 
1

>  <i_i_glide_posenum>  (329) 
30

>  <r_i_glide_eff_state_penalty>  (329) 
0

>  <ligand_id>  (329) 
99

>  <original_smiles>  (329) 
c1ccc(C2CC3(N4CCCCC4)CCC2C2(CCCCC2)N3)cc1

>  <smiles>  (329) 
[H]c1c([H])c([H])c(C2([H])C([H])([H])C3([N+]4([H])C([H])([H])C([H])([H])C([H])([H])C([H])([H])C4([H])[H])N([H])C4(C([H])([H])C([H])([H])C([H])([H])C([H])([H])C4([H])[H])C2([H])C([H])([H])C3([H])[H])c([H])c1[H]

$$$$
99:0:1
     RDKit          3D

 60 64  0  0  1  0  0  0  0  0999 V2000
    5.1319   -2.1367    1.3446 C   0  0  0  0  0  0  0  0  0  0  0  0
    4.0486   -2.8252    1.9032 C   0  0  0  0  0  0  0  0  0  0  0  0
    4.0550   -4.2263    1.9658 C   0  0  0  0  0  0  0  0  0  0  0  0
    5.1799   -4.9532    1.5057 C   0  0  0  0  0  0  0  0  0  0  0  0
    5.2340   -6.4701    1.6321 C   0  0  2  0  0  0  0  0  0  0  0  0
    3.8448   -7.1467    1.4691 C   0  0  0  0  0  0  0  0  0  0  0  0
    3.4073   -7.8024    2.8170 C   0  0  2  0  0  0  0  0  0  0  0  0
    2.0111   -8.3442    2.7089 N   0  0  0  0  0  0  0  0  0  0  0  0
    1.6632   -9.3716    3.7366 C   0  0  0  0  0  0  0  0  0  0  0  0
    0.3236  -10.0232    3.3860 C   0  0  0  0  0  0  0  0  0  0  0  0
   -0.8053   -8.9839    3.2720 C   0  0  0  0  0  0  0  0  0  0  0  0
   -0.4050   -7.8715    2.2916 C   0  0  0  0  0  0  0  0  0  0  0  0
    0.9615   -7.2783    2.6624 C   0  0  0  0  0  0  0  0  0  0  0  0
    3.5803   -6.8467    4.0474 C   0  0  0  0  0  0  0  0  0  0  0  0
    5.0436   -6.3474    4.1604 C   0  0  0  0  0  0  0  0  0  0  0  0
    5.8539   -6.9476    2.9810 C   0  0  1  0  0  0  0  0  0  0  0  0
    5.7728   -8.5105    3.0486 C   0  0  0  0  0  0  0  0  0  0  0  0
    6.4023   -9.0726    4.3587 C   0  0  0  0  0  0  0  0  0  0  0  0
    6.4084  -10.6060    4.4195 C   0  0  0  0  0  0  0  0  0  0  0  0
    7.0928  -11.2187    3.1901 C   0  0  0  0  0  0  0  0  0  0  0  0
    6.4751  -10.7061    1.8883 C   0  0  0  0  0  0  0  0  0  0  0  0
    6.4968   -9.1693    1.8437 C   0  0  0  0  0  0  0  0  0  0  0  0
    4.3506   -8.9110    3.0185 N   0  0  0  0  0  0  0  0  0  0  0  0
    6.2673   -4.2551    0.9463 C   0  0  0  0  0  0  0  0  0  0  0  0
    6.2462   -2.8534    0.8523 C   0  0  0  0  0  0  0  0  0  0  0  0
    5.1022   -1.0619    1.2874 H   0  0  0  0  0  0  0  0  0  0  0  0
    3.1932   -2.3003    2.3037 H   0  0  0  0  0  0  0  0  0  0  0  0
    3.1982   -4.7247    2.3909 H   0  0  0  0  0  0  0  0  0  0  0  0
    5.8652   -6.7830    0.8000 H   0  0  0  0  0  0  0  0  0  0  0  0
    3.1176   -6.4501    1.0525 H   0  0  0  0  0  0  0  0  0  0  0  0
    3.9103   -7.9227    0.7017 H   0  0  0  0  0  0  0  0  0  0  0  0
    2.3960  -10.1889    3.7563 H   0  0  0  0  0  0  0  0  0  0  0  0
    1.6196   -8.9174    4.7334 H   0  0  0  0  0  0  0  0  0  0  0  0
    0.4160  -10.5713    2.4472 H   0  0  0  0  0  0  0  0  0  0  0  0
    0.0686  -10.7656    4.1385 H   0  0  0  0  0  0  0  0  0  0  0  0
   -1.7281   -9.4737    2.9403 H   0  0  0  0  0  0  0  0  0  0  0  0
   -1.0028   -8.5524    4.2578 H   0  0  0  0  0  0  0  0  0  0  0  0
   -0.3672   -8.2583    1.2762 H   0  0  0  0  0  0  0  0  0  0  0  0
   -1.1629   -7.0900    2.2941 H   0  0  0  0  0  0  0  0  0  0  0  0
    0.8688   -6.7845    3.6345 H   0  0  0  0  0  0  0  0  0  0  0  0
    1.2035   -6.5020    1.9316 H   0  0  0  0  0  0  0  0  0  0  0  0
    2.9227   -5.9754    3.9873 H   0  0  0  0  0  0  0  0  0  0  0  0
    3.3138   -7.3610    4.9788 H   0  0  0  0  0  0  0  0  0  0  0  0
    5.0881   -5.2563    4.1522 H   0  0  0  0  0  0  0  0  0  0  0  0
    5.4656   -6.6255    5.1299 H   0  0  0  0  0  0  0  0  0  0  0  0
    6.8990   -6.6236    3.0445 H   0  0  0  0  0  0  0  0  0  0  0  0
    7.4303   -8.7088    4.4509 H   0  0  0  0  0  0  0  0  0  0  0  0
    5.8935   -8.7125    5.2474 H   0  0  0  0  0  0  0  0  0  0  0  0
    6.9150  -10.9348    5.3265 H   0  0  0  0  0  0  0  0  0  0  0  0
    5.3872  -10.9748    4.5076 H   0  0  0  0  0  0  0  0  0  0  0  0
    8.1567  -10.9721    3.2160 H   0  0  0  0  0  0  0  0  0  0  0  0
    7.0191  -12.3032    3.2249 H   0  0  0  0  0  0  0  0  0  0  0  0
    7.0166  -11.0929    1.0291 H   0  0  0  0  0  0  0  0  0  0  0  0
    5.4467  -11.0614    1.7953 H   0  0  0  0  0  0  0  0  0  0  0  0
    6.0784   -8.8838    0.8885 H   0  0  0  0  0  0  0  0  0  0  0  0
    7.5294   -8.8130    1.8187 H   0  0  0  0  0  0  0  0  0  0  0  0
    4.1735   -9.3576    3.9035 H   0  0  0  0  0  0  0  0  0  0  0  0
    7.1279   -4.8040    0.5880 H   0  0  0  0  0  0  0  0  0  0  0  0
    7.0810   -2.3287    0.4190 H   0  0  0  0  0  0  0  0  0  0  0  0
    1.9775   -8.8298    1.8232 H   0  0  0  0  0  0  0  0  0  0  0  0
  1 25  2  0
  1  2  1  0
  1 26  1  0
  2  3  2  0
  2 27  1  0
  3  4  1  0
  3 28  1  0
  4  5  1  0
  4 24  2  0
  5 16  1  0
  5  6  1  0
  5 29  1  6
  6  7  1  0
  6 30  1  0
  6 31  1  0
  7 23  1  0
  7  8  1  6
  7 14  1  0
  8 13  1  0
  8  9  1  0
  8 60  1  0
  9 10  1  0
  9 32  1  0
  9 33  1  0
 10 11  1  0
 10 34  1  0
 10 35  1  0
 11 12  1  0
 11 36  1  0
 11 37  1  0
 12 13  1  0
 12 38  1  0
 12 39  1  0
 13 40  1  0
 13 41  1  0
 14 15  1  0
 14 42  1  0
 14 43  1  0
 15 16  1  0
 15 44  1  0
 15 45  1  0
 16 17  1  0
 16 46  1  1
 17 22  1  0
 17 18  1  0
 17 23  1  0
 18 19  1  0
 18 47  1  0
 18 48  1  0
 19 20  1  0
 19 49  1  0
 19 50  1  0
 20 21  1  0
 20 51  1  0
 20 52  1  0
 21 22  1  0
 21 53  1  0
 21 54  1  0
 22 55  1  0
 22 56  1  0
 23 57  1  0
 24 25  1  0
 24 58  1  0
 25 59  1  0
M  CHG  1   8   1
M  END
>  <i_m_ct_stereo_status>  (330) 
1

>  <s_m_source_file>  (330) 
/var/tmp/pbs.5076255.sched01/tmpt25ahaql/1236iipj8y0.sdf

>  <i_m_source_file_index>  (330) 
16

>  <i_lp_mmshare_version>  (330) 
48012

>  <i_f3d_flags>  (330) 
0

>  <s_epik_input>  (330) 
W0NIMl0xW0NIMl1bQ0gyXVtDSDJdW0NIMl1DMTJbQ0BIXTNbQ0BIXShjNFtjSF1bY0hdW2NIXVtjSF1bY0hdNClbQ0gyXVtDQEBdKFtOSF0yKShbQ0gyXVtDSDJdMylONVtDSDJdW0NIMl1bQ0gyXVtDSDJdW0NIMl01

>  <s_epik_cmdline>  (330) 
J2VwaWtfcHl0aG9uJywgJy1waHQnLCAnMi4wJywgJy1waCcsICc3LjAnLCAnLXRuJywgJzgnLCAnLW1hJywgJzIwMCcsICctaW1hZScsICc8aW5maWxlLm1hZT4nLCAnLW9tYWUnLCAnPG91dGZpbGUubWFlPic=

>  <r_epik_Ionization_Penalty>  (330) 
0.000122109

>  <r_epik_Ionization_Penalty_Charging>  (330) 
0.000121105

>  <r_epik_Ionization_Penalty_Neutral>  (330) 
1.0041e-06

>  <r_epik_State_Penalty>  (330) 
0.0119939

>  <r_epik_Charging_Adjusted_Penalty>  (330) 
0.012115

>  <i_epik_Tot_Q>  (330) 
1

>  <i_epik_Tot_abs_Q>  (330) 
1

>  <s_lp_Force_Field>  (330) 
OPLS3e

>  <r_lp_Energy>  (330) 
58.5595

>  <b_lp_Chiralities_Consistent>  (330) 
1

>  <s_lp_Variant>  (330) 
99:0-1

>  <s_i_glide_gridfile>  (330) 
pfpi4k_grid

>  <i_i_glide_lignum>  (330) 
16

>  <i_i_glide_rotatable_bonds>  (330) 
2

>  <r_i_docking_score>  (330) 
-2.69244

>  <r_i_glide_ligand_efficiency>  (330) 
-0.107698

>  <r_i_glide_ligand_efficiency_sa>  (330) 
-0.314909

>  <r_i_glide_ligand_efficiency_ln>  (330) 
-0.638188

>  <r_i_glide_gscore>  (330) 
-2.69244

>  <r_i_glide_lipo>  (330) 
-0.484688

>  <r_i_glide_hbond>  (330) 
0

>  <r_i_glide_metal>  (330) 
-0

>  <r_i_glide_rewards>  (330) 
-1.09406

>  <r_i_glide_evdw>  (330) 
-24.7704

>  <r_i_glide_ecoul>  (330) 
-1.26368

>  <r_i_glide_erotb>  (330) 
0.328332

>  <r_i_glide_esite>  (330) 
-0.0139465

>  <r_i_glide_emodel>  (330) 
-30.6361

>  <r_i_glide_energy>  (330) 
-26.0341

>  <r_i_glide_einternal>  (330) 
0.3815

>  <r_i_glide_intrahb_reward>  (330) 
-0

>  <i_i_glide_confnum>  (330) 
1

>  <i_i_glide_posenum>  (330) 
1

>  <r_i_glide_eff_state_penalty>  (330) 
0

>  <ligand_id>  (330) 
99

>  <original_smiles>  (330) 
c1ccc(C2CC3(N4CCCCC4)CCC2C2(CCCCC2)N3)cc1

>  <smiles>  (330) 
[H]c1c([H])c([H])c(C2([H])C([H])([H])C3([N+]4([H])C([H])([H])C([H])([H])C([H])([H])C([H])([H])C4([H])[H])N([H])C4(C([H])([H])C([H])([H])C([H])([H])C([H])([H])C4([H])[H])C2([H])C([H])([H])C3([H])[H])c([H])c1[H]

$$$$
99:0:2
     RDKit          3D

 60 64  0  0  1  0  0  0  0  0999 V2000
   -0.3046   -2.0968    5.6107 C   0  0  0  0  0  0  0  0  0  0  0  0
   -0.2578   -3.4504    6.0035 C   0  0  0  0  0  0  0  0  0  0  0  0
    0.5003   -4.3731    5.2618 C   0  0  0  0  0  0  0  0  0  0  0  0
    1.2673   -3.9383    4.1698 C   0  0  0  0  0  0  0  0  0  0  0  0
    2.1621   -4.9051    3.4041 C   0  0  2  0  0  0  0  0  0  0  0  0
    1.5493   -6.3188    3.2583 C   0  0  0  0  0  0  0  0  0  0  0  0
    2.4023   -7.3813    4.0349 C   0  0  2  0  0  0  0  0  0  0  0  0
    1.7243   -8.7252    4.0231 N   0  0  0  0  0  0  0  0  0  0  0  0
    1.1958   -9.1458    2.6931 C   0  0  0  0  0  0  0  0  0  0  0  0
    0.2756  -10.3616    2.8618 C   0  0  0  0  0  0  0  0  0  0  0  0
    1.0034  -11.5270    3.5469 C   0  0  0  0  0  0  0  0  0  0  0  0
    1.6201  -11.0552    4.8663 C   0  0  0  0  0  0  0  0  0  0  0  0
    2.5145   -9.8254    4.6515 C   0  0  0  0  0  0  0  0  0  0  0  0
    2.7214   -6.9002    5.4993 C   0  0  0  0  0  0  0  0  0  0  0  0
    3.4436   -5.5236    5.4853 C   0  0  0  0  0  0  0  0  0  0  0  0
    3.5854   -5.0667    4.0087 C   0  0  1  0  0  0  0  0  0  0  0  0
    4.3721   -6.1592    3.2021 C   0  0  0  0  0  0  0  0  0  0  0  0
    5.8256   -6.3411    3.7377 C   0  0  0  0  0  0  0  0  0  0  0  0
    6.6504   -7.3482    2.9237 C   0  0  0  0  0  0  0  0  0  0  0  0
    6.6688   -6.9877    1.4339 C   0  0  0  0  0  0  0  0  0  0  0  0
    5.2533   -6.8263    0.8739 C   0  0  0  0  0  0  0  0  0  0  0  0
    4.4502   -5.8024    1.6912 C   0  0  0  0  0  0  0  0  0  0  0  0
    3.6885   -7.4636    3.3341 N   0  0  0  0  0  0  0  0  0  0  0  0
    1.2185   -2.5739    3.7702 C   0  0  0  0  0  0  0  0  0  0  0  0
    0.4226   -1.6598    4.4836 C   0  0  0  0  0  0  0  0  0  0  0  0
   -0.9091   -1.4002    6.1768 H   0  0  0  0  0  0  0  0  0  0  0  0
   -0.7862   -3.8106    6.8695 H   0  0  0  0  0  0  0  0  0  0  0  0
    0.4941   -5.4105    5.5673 H   0  0  0  0  0  0  0  0  0  0  0  0
    2.2349   -4.4713    2.4093 H   0  0  0  0  0  0  0  0  0  0  0  0
    0.5021   -6.3533    3.5623 H   0  0  0  0  0  0  0  0  0  0  0  0
    1.5258   -6.5401    2.1865 H   0  0  0  0  0  0  0  0  0  0  0  0
    0.5614   -8.3705    2.2400 H   0  0  0  0  0  0  0  0  0  0  0  0
    2.0262   -9.3767    2.0073 H   0  0  0  0  0  0  0  0  0  0  0  0
   -0.6027  -10.0795    3.4439 H   0  0  0  0  0  0  0  0  0  0  0  0
   -0.1080  -10.6949    1.8984 H   0  0  0  0  0  0  0  0  0  0  0  0
    0.2939  -12.3433    3.7385 H   0  0  0  0  0  0  0  0  0  0  0  0
    1.7908  -11.9068    2.8828 H   0  0  0  0  0  0  0  0  0  0  0  0
    0.8304  -10.8205    5.5904 H   0  0  0  0  0  0  0  0  0  0  0  0
    2.2146  -11.8630    5.2957 H   0  0  0  0  0  0  0  0  0  0  0  0
    3.3701  -10.0902    4.0173 H   0  0  0  0  0  0  0  0  0  0  0  0
    2.8996   -9.5525    5.6379 H   0  0  0  0  0  0  0  0  0  0  0  0
    1.8007   -6.8585    6.0818 H   0  0  0  0  0  0  0  0  0  0  0  0
    3.4037   -7.5829    6.0222 H   0  0  0  0  0  0  0  0  0  0  0  0
    2.9157   -4.7806    6.0848 H   0  0  0  0  0  0  0  0  0  0  0  0
    4.4196   -5.6097    5.9669 H   0  0  0  0  0  0  0  0  0  0  0  0
    4.1184   -4.1103    3.9596 H   0  0  0  0  0  0  0  0  0  0  0  0
    6.3343   -5.3727    3.7325 H   0  0  0  0  0  0  0  0  0  0  0  0
    5.8442   -6.6691    4.7751 H   0  0  0  0  0  0  0  0  0  0  0  0
    7.6696   -7.3829    3.3120 H   0  0  0  0  0  0  0  0  0  0  0  0
    6.2503   -8.3523    3.0679 H   0  0  0  0  0  0  0  0  0  0  0  0
    7.2161   -6.0550    1.2989 H   0  0  0  0  0  0  0  0  0  0  0  0
    7.2043   -7.7569    0.8845 H   0  0  0  0  0  0  0  0  0  0  0  0
    5.2763   -6.4929   -0.1614 H   0  0  0  0  0  0  0  0  0  0  0  0
    4.7447   -7.7924    0.8707 H   0  0  0  0  0  0  0  0  0  0  0  0
    3.4810   -5.7125    1.2164 H   0  0  0  0  0  0  0  0  0  0  0  0
    4.9120   -4.8218    1.5742 H   0  0  0  0  0  0  0  0  0  0  0  0
    4.3131   -8.0651    3.8443 H   0  0  0  0  0  0  0  0  0  0  0  0
    1.7956   -2.2370    2.9183 H   0  0  0  0  0  0  0  0  0  0  0  0
    0.3856   -0.6229    4.1724 H   0  0  0  0  0  0  0  0  0  0  0  0
    0.9058   -8.6126    4.6035 H   0  0  0  0  0  0  0  0  0  0  0  0
  1 25  2  0
  1  2  1  0
  1 26  1  0
  2  3  2  0
  2 27  1  0
  3  4  1  0
  3 28  1  0
  4  5  1  0
  4 24  2  0
  5 16  1  0
  5  6  1  0
  5 29  1  6
  6  7  1  0
  6 30  1  0
  6 31  1  0
  7 23  1  0
  7  8  1  1
  7 14  1  0
  8 13  1  0
  8  9  1  0
  8 60  1  0
  9 10  1  0
  9 32  1  0
  9 33  1  0
 10 11  1  0
 10 34  1  0
 10 35  1  0
 11 12  1  0
 11 36  1  0
 11 37  1  0
 12 13  1  0
 12 38  1  0
 12 39  1  0
 13 40  1  0
 13 41  1  0
 14 15  1  0
 14 42  1  0
 14 43  1  0
 15 16  1  0
 15 44  1  0
 15 45  1  0
 16 17  1  0
 16 46  1  1
 17 22  1  0
 17 18  1  0
 17 23  1  0
 18 19  1  0
 18 47  1  0
 18 48  1  0
 19 20  1  0
 19 49  1  0
 19 50  1  0
 20 21  1  0
 20 51  1  0
 20 52  1  0
 21 22  1  0
 21 53  1  0
 21 54  1  0
 22 55  1  0
 22 56  1  0
 23 57  1  0
 24 25  1  0
 24 58  1  0
 25 59  1  0
M  CHG  1   8   1
M  END
>  <i_m_ct_stereo_status>  (331) 
1

>  <s_m_source_file>  (331) 
/var/tmp/pbs.5076255.sched01/tmpt25ahaql/1236iipj8y0.sdf

>  <i_m_source_file_index>  (331) 
16

>  <i_lp_mmshare_version>  (331) 
48012

>  <i_f3d_flags>  (331) 
0

>  <s_epik_input>  (331) 
W0NIMl0xW0NIMl1bQ0gyXVtDSDJdW0NIMl1DMTJbQ0BIXTNbQ0BIXShjNFtjSF1bY0hdW2NIXVtjSF1bY0hdNClbQ0gyXVtDQEBdKFtOSF0yKShbQ0gyXVtDSDJdMylONVtDSDJdW0NIMl1bQ0gyXVtDSDJdW0NIMl01

>  <s_epik_cmdline>  (331) 
J2VwaWtfcHl0aG9uJywgJy1waHQnLCAnMi4wJywgJy1waCcsICc3LjAnLCAnLXRuJywgJzgnLCAnLW1hJywgJzIwMCcsICctaW1hZScsICc8aW5maWxlLm1hZT4nLCAnLW9tYWUnLCAnPG91dGZpbGUubWFlPic=

>  <r_epik_Ionization_Penalty>  (331) 
0.000122109

>  <r_epik_Ionization_Penalty_Charging>  (331) 
0.000121105

>  <r_epik_Ionization_Penalty_Neutral>  (331) 
1.0041e-06

>  <r_epik_State_Penalty>  (331) 
0.0119939

>  <r_epik_Charging_Adjusted_Penalty>  (331) 
0.012115

>  <i_epik_Tot_Q>  (331) 
1

>  <i_epik_Tot_abs_Q>  (331) 
1

>  <s_lp_Force_Field>  (331) 
OPLS3e

>  <r_lp_Energy>  (331) 
58.5595

>  <b_lp_Chiralities_Consistent>  (331) 
1

>  <s_lp_Variant>  (331) 
99:0-1

>  <s_i_glide_gridfile>  (331) 
pfpi4k_grid

>  <i_i_glide_lignum>  (331) 
16

>  <i_i_glide_rotatable_bonds>  (331) 
2

>  <r_i_docking_score>  (331) 
-2.63947

>  <r_i_glide_ligand_efficiency>  (331) 
-0.105579

>  <r_i_glide_ligand_efficiency_sa>  (331) 
-0.308715

>  <r_i_glide_ligand_efficiency_ln>  (331) 
-0.625634

>  <r_i_glide_gscore>  (331) 
-2.63947

>  <r_i_glide_lipo>  (331) 
-0.539487

>  <r_i_glide_hbond>  (331) 
0

>  <r_i_glide_metal>  (331) 
-0

>  <r_i_glide_rewards>  (331) 
-1.09406

>  <r_i_glide_evdw>  (331) 
-21.7831

>  <r_i_glide_ecoul>  (331) 
-1.55445

>  <r_i_glide_erotb>  (331) 
0.328332

>  <r_i_glide_esite>  (331) 
-0.0119305

>  <r_i_glide_emodel>  (331) 
-26.9562

>  <r_i_glide_energy>  (331) 
-23.3375

>  <r_i_glide_einternal>  (331) 
1.92386

>  <r_i_glide_intrahb_reward>  (331) 
-0

>  <i_i_glide_confnum>  (331) 
6

>  <i_i_glide_posenum>  (331) 
2

>  <r_i_glide_eff_state_penalty>  (331) 
0

>  <ligand_id>  (331) 
99

>  <original_smiles>  (331) 
c1ccc(C2CC3(N4CCCCC4)CCC2C2(CCCCC2)N3)cc1

>  <smiles>  (331) 
[H]c1c([H])c([H])c(C2([H])C([H])([H])C3([N+]4([H])C([H])([H])C([H])([H])C([H])([H])C([H])([H])C4([H])[H])N([H])C4(C([H])([H])C([H])([H])C([H])([H])C([H])([H])C4([H])[H])C2([H])C([H])([H])C3([H])[H])c([H])c1[H]

$$$$
100:0:0
     RDKit          3D

 14 15  0  0  1  0  0  0  0  0999 V2000
    3.6883   -0.5724   -3.4150 C   0  0  0  0  0  0  0  0  0  0  0  0
    2.9889   -1.6791   -3.9346 C   0  0  0  0  0  0  0  0  0  0  0  0
    3.2216   -2.9698   -3.4314 C   0  0  0  0  0  0  0  0  0  0  0  0
    4.1531   -3.1206   -2.3917 C   0  0  0  0  0  0  0  0  0  0  0  0
    4.6370   -4.1637   -1.6397 N   0  0  0  0  0  0  0  0  0  0  0  0
    5.5636   -3.7724   -0.7231 N   0  0  0  0  0  0  0  0  0  0  0  0
    5.7205   -2.4827   -0.8362 N   0  0  0  0  0  0  0  0  0  0  0  0
    4.8663   -2.0358   -1.8389 C   0  0  0  0  0  0  0  0  0  0  0  0
    4.6144   -0.7536   -2.3675 C   0  0  0  0  0  0  0  0  0  0  0  0
    4.3557   -5.1305   -1.7408 H   0  0  0  0  0  0  0  0  0  0  0  0
    3.4914    0.4182   -3.8077 H   0  0  0  0  0  0  0  0  0  0  0  0
    2.2591   -1.5213   -4.7109 H   0  0  0  0  0  0  0  0  0  0  0  0
    2.6843   -3.8218   -3.8209 H   0  0  0  0  0  0  0  0  0  0  0  0
    5.1266    0.1083   -1.9696 H   0  0  0  0  0  0  0  0  0  0  0  0
  1  9  2  0
  1  2  1  0
  1 11  1  0
  2  3  2  0
  2 12  1  0
  3  4  1  0
  3 13  1  0
  4  8  2  0
  4  5  1  0
  5 10  1  0
  5  6  1  0
  6  7  2  0
  7  8  1  0
  8  9  1  0
  9 14  1  0
M  END
>  <i_m_ct_stereo_status>  (332) 
1

>  <s_m_source_file>  (332) 
/var/tmp/pbs.5076255.sched01/tmpt25ahaql/1236iipj8y0.sdf

>  <i_m_source_file_index>  (332) 
18

>  <i_lp_mmshare_version>  (332) 
48012

>  <i_f3d_flags>  (332) 
0

>  <s_epik_input>  (332) 
W2NIXTFbY0hdW2NIXVtjSF1jKGMxMilubltuSF0y

>  <s_epik_cmdline>  (332) 
J2VwaWtfcHl0aG9uJywgJy1waHQnLCAnMi4wJywgJy1waCcsICc3LjAnLCAnLXRuJywgJzgnLCAnLW1hJywgJzIwMCcsICctaW1hZScsICc8aW5maWxlLm1hZT4nLCAnLW9tYWUnLCAnPG91dGZpbGUubWFlPic=

>  <r_lp_tautomer_probability>  (332) 
0.460795

>  <r_epik_Ionization_Penalty>  (332) 
0.00731157

>  <r_epik_Ionization_Penalty_Charging>  (332) 
0

>  <r_epik_Ionization_Penalty_Neutral>  (332) 
0.00731157

>  <r_epik_State_Penalty>  (332) 
0.0803398

>  <r_epik_Charging_Adjusted_Penalty>  (332) 
0.0803398

>  <i_epik_Tot_Q>  (332) 
0

>  <i_epik_Tot_abs_Q>  (332) 
0

>  <s_lp_Force_Field>  (332) 
OPLS3e

>  <r_lp_Energy>  (332) 
10.1656

>  <b_lp_Chiralities_Consistent>  (332) 
1

>  <s_lp_Variant>  (332) 
100:0-1

>  <s_i_glide_gridfile>  (332) 
pfpi4k_grid

>  <i_i_glide_lignum>  (332) 
18

>  <i_i_glide_rotatable_bonds>  (332) 
0

>  <r_i_docking_score>  (332) 
-4.52645

>  <r_i_glide_ligand_efficiency>  (332) 
-0.502939

>  <r_i_glide_ligand_efficiency_sa>  (332) 
-1.04616

>  <r_i_glide_ligand_efficiency_ln>  (332) 
-1.41574

>  <r_i_glide_gscore>  (332) 
-4.52645

>  <r_i_glide_lipo>  (332) 
-0.467668

>  <r_i_glide_hbond>  (332) 
-0.245195

>  <r_i_glide_metal>  (332) 
-0

>  <r_i_glide_rewards>  (332) 
-2.25

>  <r_i_glide_evdw>  (332) 
-14.1653

>  <r_i_glide_ecoul>  (332) 
-5.3113

>  <r_i_glide_erotb>  (332) 
0

>  <r_i_glide_esite>  (332) 
-0.0586272

>  <r_i_glide_emodel>  (332) 
-24.9105

>  <r_i_glide_energy>  (332) 
-19.4767

>  <r_i_glide_einternal>  (332) 
0

>  <r_i_glide_intrahb_reward>  (332) 
-0

>  <i_i_glide_confnum>  (332) 
1

>  <i_i_glide_posenum>  (332) 
13

>  <r_i_glide_eff_state_penalty>  (332) 
0

>  <ligand_id>  (332) 
100

>  <original_smiles>  (332) 
c1ccc2[nH]nnc2c1

>  <smiles>  (332) 
[H]c1c([H])c([H])c2c(nnn2[H])c1[H]

$$$$
100:0:1
     RDKit          3D

 14 15  0  0  1  0  0  0  0  0999 V2000
    4.8241   -0.6580   -2.3235 C   0  0  0  0  0  0  0  0  0  0  0  0
    4.1331   -0.7421   -3.5535 C   0  0  0  0  0  0  0  0  0  0  0  0
    3.0924   -1.6718   -3.6958 C   0  0  0  0  0  0  0  0  0  0  0  0
    2.7625   -2.4867   -2.6002 C   0  0  0  0  0  0  0  0  0  0  0  0
    1.8225   -3.4562   -2.3399 N   0  0  0  0  0  0  0  0  0  0  0  0
    1.9139   -3.9360   -1.0762 N   0  0  0  0  0  0  0  0  0  0  0  0
    2.8967   -3.3325   -0.4721 N   0  0  0  0  0  0  0  0  0  0  0  0
    3.4399   -2.4208   -1.3618 C   0  0  0  0  0  0  0  0  0  0  0  0
    4.4876   -1.4848   -1.2350 C   0  0  0  0  0  0  0  0  0  0  0  0
    1.1321   -3.8346   -2.9826 H   0  0  0  0  0  0  0  0  0  0  0  0
    5.6174    0.0590   -2.2244 H   0  0  0  0  0  0  0  0  0  0  0  0
    4.3995   -0.0905   -4.3778 H   0  0  0  0  0  0  0  0  0  0  0  0
    2.5419   -1.7307   -4.6216 H   0  0  0  0  0  0  0  0  0  0  0  0
    5.0239   -1.3956   -0.3052 H   0  0  0  0  0  0  0  0  0  0  0  0
  1  9  2  0
  1  2  1  0
  1 11  1  0
  2  3  2  0
  2 12  1  0
  3  4  1  0
  3 13  1  0
  4  8  2  0
  4  5  1  0
  5 10  1  0
  5  6  1  0
  6  7  2  0
  7  8  1  0
  8  9  1  0
  9 14  1  0
M  END
>  <i_m_ct_stereo_status>  (333) 
1

>  <s_m_source_file>  (333) 
/var/tmp/pbs.5076255.sched01/tmpt25ahaql/1236iipj8y0.sdf

>  <i_m_source_file_index>  (333) 
18

>  <i_lp_mmshare_version>  (333) 
48012

>  <i_f3d_flags>  (333) 
0

>  <s_epik_input>  (333) 
W2NIXTFbY0hdW2NIXVtjSF1jKGMxMilubltuSF0y

>  <s_epik_cmdline>  (333) 
J2VwaWtfcHl0aG9uJywgJy1waHQnLCAnMi4wJywgJy1waCcsICc3LjAnLCAnLXRuJywgJzgnLCAnLW1hJywgJzIwMCcsICctaW1hZScsICc8aW5maWxlLm1hZT4nLCAnLW9tYWUnLCAnPG91dGZpbGUubWFlPic=

>  <r_lp_tautomer_probability>  (333) 
0.460795

>  <r_epik_Ionization_Penalty>  (333) 
0.00731157

>  <r_epik_Ionization_Penalty_Charging>  (333) 
0

>  <r_epik_Ionization_Penalty_Neutral>  (333) 
0.00731157

>  <r_epik_State_Penalty>  (333) 
0.0803398

>  <r_epik_Charging_Adjusted_Penalty>  (333) 
0.0803398

>  <i_epik_Tot_Q>  (333) 
0

>  <i_epik_Tot_abs_Q>  (333) 
0

>  <s_lp_Force_Field>  (333) 
OPLS3e

>  <r_lp_Energy>  (333) 
10.1656

>  <b_lp_Chiralities_Consistent>  (333) 
1

>  <s_lp_Variant>  (333) 
100:0-1

>  <s_i_glide_gridfile>  (333) 
pfpi4k_grid

>  <i_i_glide_lignum>  (333) 
18

>  <i_i_glide_rotatable_bonds>  (333) 
0

>  <r_i_docking_score>  (333) 
-4.13978

>  <r_i_glide_ligand_efficiency>  (333) 
-0.459976

>  <r_i_glide_ligand_efficiency_sa>  (333) 
-0.956788

>  <r_i_glide_ligand_efficiency_ln>  (333) 
-1.2948

>  <r_i_glide_gscore>  (333) 
-4.13978

>  <r_i_glide_lipo>  (333) 
-0.446417

>  <r_i_glide_hbond>  (333) 
-0.32

>  <r_i_glide_metal>  (333) 
-0

>  <r_i_glide_rewards>  (333) 
-2.25

>  <r_i_glide_evdw>  (333) 
-11.103

>  <r_i_glide_ecoul>  (333) 
-3.45222

>  <r_i_glide_erotb>  (333) 
0

>  <r_i_glide_esite>  (333) 
-0.0503806

>  <r_i_glide_emodel>  (333) 
-19.5245

>  <r_i_glide_energy>  (333) 
-14.5552

>  <r_i_glide_einternal>  (333) 
0

>  <r_i_glide_intrahb_reward>  (333) 
-0

>  <i_i_glide_confnum>  (333) 
1

>  <i_i_glide_posenum>  (333) 
29

>  <r_i_glide_eff_state_penalty>  (333) 
0

>  <ligand_id>  (333) 
100

>  <original_smiles>  (333) 
c1ccc2[nH]nnc2c1

>  <smiles>  (333) 
[H]c1c([H])c([H])c2c(nnn2[H])c1[H]

$$$$
100:0:2
     RDKit          3D

 14 15  0  0  1  0  0  0  0  0999 V2000
    4.1599   -0.6721   -3.1946 C   0  0  0  0  0  0  0  0  0  0  0  0
    3.3162   -1.5018   -3.9587 C   0  0  0  0  0  0  0  0  0  0  0  0
    2.7127   -2.6300   -3.3643 C   0  0  0  0  0  0  0  0  0  0  0  0
    2.9688   -2.8890   -2.0046 C   0  0  0  0  0  0  0  0  0  0  0  0
    2.5708   -3.8292   -1.0860 N   0  0  0  0  0  0  0  0  0  0  0  0
    3.1249   -3.6394    0.1422 N   0  0  0  0  0  0  0  0  0  0  0  0
    3.8786   -2.5814    0.0834 N   0  0  0  0  0  0  0  0  0  0  0  0
    3.8155   -2.0851   -1.2153 C   0  0  0  0  0  0  0  0  0  0  0  0
    4.4188   -0.9662   -1.8357 C   0  0  0  0  0  0  0  0  0  0  0  0
    1.9969   -4.6306   -1.2874 H   0  0  0  0  0  0  0  0  0  0  0  0
    4.6002    0.2003   -3.6467 H   0  0  0  0  0  0  0  0  0  0  0  0
    3.1136   -1.2606   -4.9941 H   0  0  0  0  0  0  0  0  0  0  0  0
    2.0469   -3.2640   -3.9280 H   0  0  0  0  0  0  0  0  0  0  0  0
    5.0523   -0.3149   -1.2572 H   0  0  0  0  0  0  0  0  0  0  0  0
  1  9  2  0
  1  2  1  0
  1 11  1  0
  2  3  2  0
  2 12  1  0
  3  4  1  0
  3 13  1  0
  4  8  2  0
  4  5  1  0
  5 10  1  0
  5  6  1  0
  6  7  2  0
  7  8  1  0
  8  9  1  0
  9 14  1  0
M  END
>  <i_m_ct_stereo_status>  (334) 
1

>  <s_m_source_file>  (334) 
/var/tmp/pbs.5076255.sched01/tmpt25ahaql/1236iipj8y0.sdf

>  <i_m_source_file_index>  (334) 
18

>  <i_lp_mmshare_version>  (334) 
48012

>  <i_f3d_flags>  (334) 
0

>  <s_epik_input>  (334) 
W2NIXTFbY0hdW2NIXVtjSF1jKGMxMilubltuSF0y

>  <s_epik_cmdline>  (334) 
J2VwaWtfcHl0aG9uJywgJy1waHQnLCAnMi4wJywgJy1waCcsICc3LjAnLCAnLXRuJywgJzgnLCAnLW1hJywgJzIwMCcsICctaW1hZScsICc8aW5maWxlLm1hZT4nLCAnLW9tYWUnLCAnPG91dGZpbGUubWFlPic=

>  <r_lp_tautomer_probability>  (334) 
0.460795

>  <r_epik_Ionization_Penalty>  (334) 
0.00731157

>  <r_epik_Ionization_Penalty_Charging>  (334) 
0

>  <r_epik_Ionization_Penalty_Neutral>  (334) 
0.00731157

>  <r_epik_State_Penalty>  (334) 
0.0803398

>  <r_epik_Charging_Adjusted_Penalty>  (334) 
0.0803398

>  <i_epik_Tot_Q>  (334) 
0

>  <i_epik_Tot_abs_Q>  (334) 
0

>  <s_lp_Force_Field>  (334) 
OPLS3e

>  <r_lp_Energy>  (334) 
10.1656

>  <b_lp_Chiralities_Consistent>  (334) 
1

>  <s_lp_Variant>  (334) 
100:0-1

>  <s_i_glide_gridfile>  (334) 
pfpi4k_grid

>  <i_i_glide_lignum>  (334) 
18

>  <i_i_glide_rotatable_bonds>  (334) 
0

>  <r_i_docking_score>  (334) 
-3.74965

>  <r_i_glide_ligand_efficiency>  (334) 
-0.416627

>  <r_i_glide_ligand_efficiency_sa>  (334) 
-0.86662

>  <r_i_glide_ligand_efficiency_ln>  (334) 
-1.17278

>  <r_i_glide_gscore>  (334) 
-3.74965

>  <r_i_glide_lipo>  (334) 
-0.436335

>  <r_i_glide_hbond>  (334) 
-0.0584481

>  <r_i_glide_metal>  (334) 
-0

>  <r_i_glide_rewards>  (334) 
-2.25

>  <r_i_glide_evdw>  (334) 
-14.7776

>  <r_i_glide_ecoul>  (334) 
-1.4666

>  <r_i_glide_erotb>  (334) 
0

>  <r_i_glide_esite>  (334) 
-0.0459928

>  <r_i_glide_emodel>  (334) 
-20.7434

>  <r_i_glide_energy>  (334) 
-16.2442

>  <r_i_glide_einternal>  (334) 
0

>  <r_i_glide_intrahb_reward>  (334) 
-0

>  <i_i_glide_confnum>  (334) 
2

>  <i_i_glide_posenum>  (334) 
32

>  <r_i_glide_eff_state_penalty>  (334) 
0

>  <ligand_id>  (334) 
100

>  <original_smiles>  (334) 
c1ccc2[nH]nnc2c1

>  <smiles>  (334) 
[H]c1c([H])c([H])c2c(nnn2[H])c1[H]

$$$$
100:1:0
     RDKit          3D

 14 15  0  0  1  0  0  0  0  0999 V2000
   -6.3218   -9.3611   -6.6715 C   0  0  0  0  0  0  0  0  0  0  0  0
   -5.1071   -9.3388   -5.9419 C   0  0  0  0  0  0  0  0  0  0  0  0
   -4.7106   -8.1727   -5.2476 C   0  0  0  0  0  0  0  0  0  0  0  0
   -5.5584   -7.0526   -5.3006 C   0  0  0  0  0  0  0  0  0  0  0  0
   -5.3686   -5.8690   -4.7225 N   0  0  0  0  0  0  0  0  0  0  0  0
   -6.5012   -5.2057   -5.1221 N   0  0  0  0  0  0  0  0  0  0  0  0
   -7.3714   -5.9054   -5.9195 N   0  0  0  0  0  0  0  0  0  0  0  0
   -6.7383   -7.0728   -6.0099 C   0  0  0  0  0  0  0  0  0  0  0  0
   -7.1528   -8.2171   -6.7162 C   0  0  0  0  0  0  0  0  0  0  0  0
   -6.6780   -4.2459   -4.8547 H   0  0  0  0  0  0  0  0  0  0  0  0
   -6.6184  -10.2578   -7.1957 H   0  0  0  0  0  0  0  0  0  0  0  0
   -4.4767  -10.2162   -5.9138 H   0  0  0  0  0  0  0  0  0  0  0  0
   -3.7855   -8.1454   -4.6914 H   0  0  0  0  0  0  0  0  0  0  0  0
   -8.0864   -8.2230   -7.2612 H   0  0  0  0  0  0  0  0  0  0  0  0
  1  9  2  0
  1 11  1  0
  1  2  1  0
  2 12  1  0
  2  3  2  0
  3 13  1  0
  3  4  1  0
  4  5  2  0
  4  8  1  0
  5  6  1  0
  6 10  1  0
  6  7  1  0
  7  8  2  0
  8  9  1  0
  9 14  1  0
M  END
>  <i_m_ct_stereo_status>  (335) 
1

>  <s_m_source_file>  (335) 
/var/tmp/pbs.5076255.sched01/tmpt25ahaql/1236iipj8y0.sdf

>  <i_m_source_file_index>  (335) 
19

>  <i_lp_mmshare_version>  (335) 
48012

>  <i_f3d_flags>  (335) 
0

>  <s_epik_input>  (335) 
W2NIXTFbY0hdW2NIXVtjSF1jKGMxMilubltuSF0y

>  <s_epik_cmdline>  (335) 
J2VwaWtfcHl0aG9uJywgJy1waHQnLCAnMi4wJywgJy1waCcsICc3LjAnLCAnLXRuJywgJzgnLCAnLW1hJywgJzIwMCcsICctaW1hZScsICc8aW5maWxlLm1hZT4nLCAnLW9tYWUnLCAnPG91dGZpbGUubWFlPic=

>  <r_lp_tautomer_probability>  (335) 
0.0784092

>  <r_epik_Ionization_Penalty>  (335) 
0.0567185

>  <r_epik_Ionization_Penalty_Charging>  (335) 
0

>  <r_epik_Ionization_Penalty_Neutral>  (335) 
0.0567185

>  <r_epik_State_Penalty>  (335) 
1.26741

>  <r_epik_Charging_Adjusted_Penalty>  (335) 
1.26741

>  <i_epik_Tot_Q>  (335) 
0

>  <i_epik_Tot_abs_Q>  (335) 
0

>  <s_lp_Force_Field>  (335) 
OPLS3e

>  <r_lp_Energy>  (335) 
8.88347

>  <b_lp_Chiralities_Consistent>  (335) 
1

>  <s_lp_Variant>  (335) 
100:0-2

>  <s_i_glide_gridfile>  (335) 
pfpi4k_grid

>  <i_i_glide_lignum>  (335) 
19

>  <i_i_glide_rotatable_bonds>  (335) 
0

>  <r_i_docking_score>  (335) 
-6.01174

>  <r_i_glide_ligand_efficiency>  (335) 
-0.667971

>  <r_i_glide_ligand_efficiency_sa>  (335) 
-1.38944

>  <r_i_glide_ligand_efficiency_ln>  (335) 
-1.8803

>  <r_i_glide_gscore>  (335) 
-6.01174

>  <r_i_glide_lipo>  (335) 
-1.37861

>  <r_i_glide_hbond>  (335) 
-0.162095

>  <r_i_glide_metal>  (335) 
-0

>  <r_i_glide_rewards>  (335) 
-3.21637

>  <r_i_glide_evdw>  (335) 
-18.5986

>  <r_i_glide_ecoul>  (335) 
-2.16493

>  <r_i_glide_erotb>  (335) 
0

>  <r_i_glide_esite>  (335) 
0

>  <r_i_glide_emodel>  (335) 
-28.271

>  <r_i_glide_energy>  (335) 
-20.7636

>  <r_i_glide_einternal>  (335) 
0

>  <r_i_glide_intrahb_reward>  (335) 
-0

>  <i_i_glide_confnum>  (335) 
1

>  <i_i_glide_posenum>  (335) 
1

>  <r_i_glide_eff_state_penalty>  (335) 
0

>  <ligand_id>  (335) 
100

>  <original_smiles>  (335) 
c1ccc2[nH]nnc2c1

>  <smiles>  (335) 
[H]c1c([H])c([H])c2nn([H])nc2c1[H]

$$$$
100:1:1
     RDKit          3D

 14 15  0  0  1  0  0  0  0  0999 V2000
    2.6152   -2.3189   -3.5373 C   0  0  0  0  0  0  0  0  0  0  0  0
    3.2544   -1.0792   -3.7935 C   0  0  0  0  0  0  0  0  0  0  0  0
    4.2137   -0.5797   -2.8882 C   0  0  0  0  0  0  0  0  0  0  0  0
    4.5258   -1.3467   -1.7539 C   0  0  0  0  0  0  0  0  0  0  0  0
    5.4116   -1.0611   -0.8054 N   0  0  0  0  0  0  0  0  0  0  0  0
    5.2508   -2.1455    0.0203 N   0  0  0  0  0  0  0  0  0  0  0  0
    4.3330   -3.0867   -0.3697 N   0  0  0  0  0  0  0  0  0  0  0  0
    3.8949   -2.5424   -1.5000 C   0  0  0  0  0  0  0  0  0  0  0  0
    2.9241   -3.0558   -2.3730 C   0  0  0  0  0  0  0  0  0  0  0  0
    5.7796   -2.2479    0.8749 H   0  0  0  0  0  0  0  0  0  0  0  0
    1.8619   -2.6881   -4.2194 H   0  0  0  0  0  0  0  0  0  0  0  0
    2.9876   -0.5038   -4.6709 H   0  0  0  0  0  0  0  0  0  0  0  0
    4.6655    0.3843   -3.0493 H   0  0  0  0  0  0  0  0  0  0  0  0
    2.4194   -3.9834   -2.1527 H   0  0  0  0  0  0  0  0  0  0  0  0
  1  9  2  0
  1 11  1  0
  1  2  1  0
  2 12  1  0
  2  3  2  0
  3 13  1  0
  3  4  1  0
  4  5  2  0
  4  8  1  0
  5  6  1  0
  6 10  1  0
  6  7  1  0
  7  8  2  0
  8  9  1  0
  9 14  1  0
M  END
>  <i_m_ct_stereo_status>  (336) 
1

>  <s_m_source_file>  (336) 
/var/tmp/pbs.5076255.sched01/tmpt25ahaql/1236iipj8y0.sdf

>  <i_m_source_file_index>  (336) 
19

>  <i_lp_mmshare_version>  (336) 
48012

>  <i_f3d_flags>  (336) 
0

>  <s_epik_input>  (336) 
W2NIXTFbY0hdW2NIXVtjSF1jKGMxMilubltuSF0y

>  <s_epik_cmdline>  (336) 
J2VwaWtfcHl0aG9uJywgJy1waHQnLCAnMi4wJywgJy1waCcsICc3LjAnLCAnLXRuJywgJzgnLCAnLW1hJywgJzIwMCcsICctaW1hZScsICc8aW5maWxlLm1hZT4nLCAnLW9tYWUnLCAnPG91dGZpbGUubWFlPic=

>  <r_lp_tautomer_probability>  (336) 
0.0784092

>  <r_epik_Ionization_Penalty>  (336) 
0.0567185

>  <r_epik_Ionization_Penalty_Charging>  (336) 
0

>  <r_epik_Ionization_Penalty_Neutral>  (336) 
0.0567185

>  <r_epik_State_Penalty>  (336) 
1.26741

>  <r_epik_Charging_Adjusted_Penalty>  (336) 
1.26741

>  <i_epik_Tot_Q>  (336) 
0

>  <i_epik_Tot_abs_Q>  (336) 
0

>  <s_lp_Force_Field>  (336) 
OPLS3e

>  <r_lp_Energy>  (336) 
8.88347

>  <b_lp_Chiralities_Consistent>  (336) 
1

>  <s_lp_Variant>  (336) 
100:0-2

>  <s_i_glide_gridfile>  (336) 
pfpi4k_grid

>  <i_i_glide_lignum>  (336) 
19

>  <i_i_glide_rotatable_bonds>  (336) 
0

>  <r_i_docking_score>  (336) 
-3.75351

>  <r_i_glide_ligand_efficiency>  (336) 
-0.417056

>  <r_i_glide_ligand_efficiency_sa>  (336) 
-0.867512

>  <r_i_glide_ligand_efficiency_ln>  (336) 
-1.17399

>  <r_i_glide_gscore>  (336) 
-3.75351

>  <r_i_glide_lipo>  (336) 
-0.58395

>  <r_i_glide_hbond>  (336) 
0

>  <r_i_glide_metal>  (336) 
-0

>  <r_i_glide_rewards>  (336) 
-2.25

>  <r_i_glide_evdw>  (336) 
-15.719

>  <r_i_glide_ecoul>  (336) 
-0.890692

>  <r_i_glide_erotb>  (336) 
0

>  <r_i_glide_esite>  (336) 
0

>  <r_i_glide_emodel>  (336) 
-21.2922

>  <r_i_glide_energy>  (336) 
-16.6097

>  <r_i_glide_einternal>  (336) 
0

>  <r_i_glide_intrahb_reward>  (336) 
-0

>  <i_i_glide_confnum>  (336) 
1

>  <i_i_glide_posenum>  (336) 
13

>  <r_i_glide_eff_state_penalty>  (336) 
0

>  <ligand_id>  (336) 
100

>  <original_smiles>  (336) 
c1ccc2[nH]nnc2c1

>  <smiles>  (336) 
[H]c1c([H])c([H])c2nn([H])nc2c1[H]

$$$$
100:1:2
     RDKit          3D

 14 15  0  0  1  0  0  0  0  0999 V2000
    5.3313   -1.5890   -0.4273 C   0  0  0  0  0  0  0  0  0  0  0  0
    6.3328   -2.3676   -1.0612 C   0  0  0  0  0  0  0  0  0  0  0  0
    6.0499   -3.0552   -2.2634 C   0  0  0  0  0  0  0  0  0  0  0  0
    4.7566   -2.9444   -2.8006 C   0  0  0  0  0  0  0  0  0  0  0  0
    4.2928   -3.4980   -3.9197 N   0  0  0  0  0  0  0  0  0  0  0  0
    2.9922   -3.0583   -3.8980 N   0  0  0  0  0  0  0  0  0  0  0  0
    2.6353   -2.2552   -2.8509 N   0  0  0  0  0  0  0  0  0  0  0  0
    3.7801   -2.2011   -2.1777 C   0  0  0  0  0  0  0  0  0  0  0  0
    4.0333   -1.5045   -0.9828 C   0  0  0  0  0  0  0  0  0  0  0  0
    2.3264   -3.3084   -4.6172 H   0  0  0  0  0  0  0  0  0  0  0  0
    5.5541   -1.0683    0.4951 H   0  0  0  0  0  0  0  0  0  0  0  0
    7.3182   -2.4422   -0.6223 H   0  0  0  0  0  0  0  0  0  0  0  0
    6.8051   -3.6479   -2.7594 H   0  0  0  0  0  0  0  0  0  0  0  0
    3.2526   -0.9259   -0.5103 H   0  0  0  0  0  0  0  0  0  0  0  0
  1  9  2  0
  1 11  1  0
  1  2  1  0
  2 12  1  0
  2  3  2  0
  3 13  1  0
  3  4  1  0
  4  5  2  0
  4  8  1  0
  5  6  1  0
  6 10  1  0
  6  7  1  0
  7  8  2  0
  8  9  1  0
  9 14  1  0
M  END
>  <i_m_ct_stereo_status>  (337) 
1

>  <s_m_source_file>  (337) 
/var/tmp/pbs.5076255.sched01/tmpt25ahaql/1236iipj8y0.sdf

>  <i_m_source_file_index>  (337) 
19

>  <i_lp_mmshare_version>  (337) 
48012

>  <i_f3d_flags>  (337) 
0

>  <s_epik_input>  (337) 
W2NIXTFbY0hdW2NIXVtjSF1jKGMxMilubltuSF0y

>  <s_epik_cmdline>  (337) 
J2VwaWtfcHl0aG9uJywgJy1waHQnLCAnMi4wJywgJy1waCcsICc3LjAnLCAnLXRuJywgJzgnLCAnLW1hJywgJzIwMCcsICctaW1hZScsICc8aW5maWxlLm1hZT4nLCAnLW9tYWUnLCAnPG91dGZpbGUubWFlPic=

>  <r_lp_tautomer_probability>  (337) 
0.0784092

>  <r_epik_Ionization_Penalty>  (337) 
0.0567185

>  <r_epik_Ionization_Penalty_Charging>  (337) 
0

>  <r_epik_Ionization_Penalty_Neutral>  (337) 
0.0567185

>  <r_epik_State_Penalty>  (337) 
1.26741

>  <r_epik_Charging_Adjusted_Penalty>  (337) 
1.26741

>  <i_epik_Tot_Q>  (337) 
0

>  <i_epik_Tot_abs_Q>  (337) 
0

>  <s_lp_Force_Field>  (337) 
OPLS3e

>  <r_lp_Energy>  (337) 
8.88347

>  <b_lp_Chiralities_Consistent>  (337) 
1

>  <s_lp_Variant>  (337) 
100:0-2

>  <s_i_glide_gridfile>  (337) 
pfpi4k_grid

>  <i_i_glide_lignum>  (337) 
19

>  <i_i_glide_rotatable_bonds>  (337) 
0

>  <r_i_docking_score>  (337) 
-3.68855

>  <r_i_glide_ligand_efficiency>  (337) 
-0.409839

>  <r_i_glide_ligand_efficiency_sa>  (337) 
-0.852499

>  <r_i_glide_ligand_efficiency_ln>  (337) 
-1.15367

>  <r_i_glide_gscore>  (337) 
-3.68855

>  <r_i_glide_lipo>  (337) 
-0.293768

>  <r_i_glide_hbond>  (337) 
-0.0369862

>  <r_i_glide_metal>  (337) 
-0

>  <r_i_glide_rewards>  (337) 
-2.25

>  <r_i_glide_evdw>  (337) 
-18.4834

>  <r_i_glide_ecoul>  (337) 
-1.22417

>  <r_i_glide_erotb>  (337) 
0

>  <r_i_glide_esite>  (337) 
0

>  <r_i_glide_emodel>  (337) 
-24.3118

>  <r_i_glide_energy>  (337) 
-19.7075

>  <r_i_glide_einternal>  (337) 
0

>  <r_i_glide_intrahb_reward>  (337) 
-0

>  <i_i_glide_confnum>  (337) 
2

>  <i_i_glide_posenum>  (337) 
11

>  <r_i_glide_eff_state_penalty>  (337) 
0

>  <ligand_id>  (337) 
100

>  <original_smiles>  (337) 
c1ccc2[nH]nnc2c1

>  <smiles>  (337) 
[H]c1c([H])c([H])c2nn([H])nc2c1[H]

$$$$
101:0:0
     RDKit          3D

 96100  0  0  1  0  0  0  0  0999 V2000
    1.4802    2.0708    2.6672 C   0  0  0  0  0  0  0  0  0  0  0  0
    1.5382    0.7023    3.3416 C   0  0  2  0  0  0  0  0  0  0  0  0
    1.0807    0.7493    4.8281 C   0  0  0  0  0  0  0  0  0  0  0  0
   -0.1666    1.5919    5.0944 C   0  0  0  0  0  0  0  0  0  0  0  0
   -0.7290    1.4291    6.5257 C   0  0  2  0  0  0  0  0  0  0  0  0
   -1.5417    0.2610    6.5249 O   0  0  0  0  0  0  0  0  0  0  0  0
   -1.5098    2.6760    7.0443 C   0  0  0  0  0  0  0  0  0  0  0  0
   -2.4622    3.2737    5.9922 C   0  0  0  0  0  0  0  0  0  0  0  0
   -2.2842    2.3769    8.3468 C   0  0  0  0  0  0  0  0  0  0  0  0
   -0.5828    3.6904    7.3695 O   0  0  0  0  0  0  0  0  0  0  0  0
    2.9415    0.0636    3.1792 C   0  0  2  0  0  0  0  0  0  0  0  0
    3.3703   -0.0804    1.6980 C   0  0  0  0  0  0  0  0  0  0  0  0
    3.9095   -1.4885    1.5298 C   0  0  0  0  0  0  0  0  0  0  0  0
    4.1789   -1.9882    2.9479 C   0  0  2  0  0  0  0  0  0  0  0  0
    4.3805   -3.5102    3.2296 C   0  0  2  0  0  0  0  0  0  0  0  0
    4.0192   -4.4743    2.0746 C   0  0  1  0  0  0  0  0  0  0  0  0
    4.6811   -4.1716    0.7660 C   0  0  0  0  0  0  0  0  0  0  0  0
    6.0892   -4.0783    0.7159 C   0  0  0  0  0  0  0  0  0  0  0  0
    6.6946   -3.6864   -0.4658 C   0  0  0  0  0  0  0  0  0  0  0  0
    5.9318   -3.3944   -1.6109 C   0  0  0  0  0  0  0  0  0  0  0  0
    6.5724   -3.0529   -2.7236 O   0  0  0  0  0  0  0  0  0  0  0  0
    4.4919   -3.4934   -1.5801 C   0  0  0  0  0  0  0  0  0  0  0  0
    3.6587   -3.1699   -2.7598 N   0  0  0  0  0  0  0  0  0  0  0  0
    4.1545   -3.0672   -3.8711 O   0  0  0  0  0  0  0  0  0  0  0  0
    2.4394   -3.0466   -2.5720 O   0  0  0  0  0  0  0  0  0  0  0  0
    3.9116   -3.9020   -0.3868 C   0  0  0  0  0  0  0  0  0  0  0  0
    4.3296   -5.9354    2.4479 C   0  0  0  0  0  0  0  0  0  0  0  0
    3.7325   -6.3940    3.8039 C   0  0  2  0  0  0  0  0  0  0  0  0
    2.1907   -6.7232    3.7001 C   0  0  0  0  0  0  0  0  0  0  0  0
    1.2640   -5.5801    3.2415 C   0  0  0  0  0  0  0  0  0  0  0  0
    1.9585   -7.8328    2.6495 C   0  0  0  0  0  0  0  0  0  0  0  0
    1.6699   -7.2144    5.0741 C   0  0  0  0  0  0  0  0  0  0  0  0
    1.9852   -6.2087    6.1955 C   0  0  0  0  0  0  0  0  0  0  0  0
    3.4967   -5.9338    6.2828 C   0  0  0  0  0  0  0  0  0  0  0  0
    4.1384   -5.4151    4.9641 C   0  0  1  0  0  0  0  0  0  0  0  0
    5.6719   -5.4387    5.1707 C   0  0  0  0  0  0  0  0  0  0  0  0
    3.7616   -3.9593    4.6058 C   0  0  1  0  0  0  0  0  0  0  0  0
    3.9433   -2.8689    5.6793 C   0  0  0  0  0  0  0  0  0  0  0  0
    3.3466   -1.5008    5.2564 C   0  0  0  0  0  0  0  0  0  0  0  0
    3.0169   -1.3807    3.7368 C   0  0  1  0  0  0  0  0  0  0  0  0
    1.6711   -2.0825    3.3574 C   0  0  0  0  0  0  0  0  0  0  0  0
    2.1136    2.7808    3.1967 H   0  0  0  0  0  0  0  0  0  0  0  0
    0.4518    2.4389    2.6489 H   0  0  0  0  0  0  0  0  0  0  0  0
    1.7973    2.0327    1.6238 H   0  0  0  0  0  0  0  0  0  0  0  0
    0.8080    0.1227    2.7763 H   0  0  0  0  0  0  0  0  0  0  0  0
    0.8144   -0.2297    5.2020 H   0  0  0  0  0  0  0  0  0  0  0  0
    1.9141    1.0729    5.4524 H   0  0  0  0  0  0  0  0  0  0  0  0
    0.1170    2.6275    4.9243 H   0  0  0  0  0  0  0  0  0  0  0  0
   -0.9306    1.3390    4.3542 H   0  0  0  0  0  0  0  0  0  0  0  0
    0.0980    1.2401    7.2127 H   0  0  0  0  0  0  0  0  0  0  0  0
   -2.0990    0.2876    5.7620 H   0  0  0  0  0  0  0  0  0  0  0  0
   -3.2042    2.5443    5.6756 H   0  0  0  0  0  0  0  0  0  0  0  0
   -1.9343    3.6168    5.1011 H   0  0  0  0  0  0  0  0  0  0  0  0
   -2.9929    4.1377    6.3892 H   0  0  0  0  0  0  0  0  0  0  0  0
   -3.0016    1.5572    8.1988 H   0  0  0  0  0  0  0  0  0  0  0  0
   -2.8761    3.2385    8.6736 H   0  0  0  0  0  0  0  0  0  0  0  0
   -1.6191    2.1025    9.1731 H   0  0  0  0  0  0  0  0  0  0  0  0
   -0.0659    3.4045    8.1086 H   0  0  0  0  0  0  0  0  0  0  0  0
    3.6869    0.6920    3.6723 H   0  0  0  0  0  0  0  0  0  0  0  0
    2.5347    0.0503    1.0068 H   0  0  0  0  0  0  0  0  0  0  0  0
    4.1411    0.6386    1.4285 H   0  0  0  0  0  0  0  0  0  0  0  0
    3.1095   -2.0665    1.0703 H   0  0  0  0  0  0  0  0  0  0  0  0
    4.7795   -1.5389    0.8756 H   0  0  0  0  0  0  0  0  0  0  0  0
    5.1125   -1.5147    3.2628 H   0  0  0  0  0  0  0  0  0  0  0  0
    5.4781   -3.5814    3.3360 H   0  0  0  0  0  0  0  0  0  0  0  0
    3.0076   -4.2614    1.8417 H   0  0  0  0  0  0  0  0  0  0  0  0
    6.6675   -4.2719    1.6139 H   0  0  0  0  0  0  0  0  0  0  0  0
    7.7772   -3.6332   -0.4858 H   0  0  0  0  0  0  0  0  0  0  0  0
    7.5176   -3.2247   -2.6811 H   0  0  0  0  0  0  0  0  0  0  0  0
    2.8249   -3.9290   -0.3118 H   0  0  0  0  0  0  0  0  0  0  0  0
    4.0583   -6.5980    1.6300 H   0  0  0  0  0  0  0  0  0  0  0  0
    5.4163   -6.0713    2.4864 H   0  0  0  0  0  0  0  0  0  0  0  0
    4.2224   -7.3449    4.0388 H   0  0  0  0  0  0  0  0  0  0  0  0
    0.2267   -5.8871    3.1463 H   0  0  0  0  0  0  0  0  0  0  0  0
    1.5163   -5.2394    2.2560 H   0  0  0  0  0  0  0  0  0  0  0  0
    1.1876   -4.8364    4.0047 H   0  0  0  0  0  0  0  0  0  0  0  0
    0.8943   -8.0657    2.5835 H   0  0  0  0  0  0  0  0  0  0  0  0
    2.5175   -8.7464    2.8726 H   0  0  0  0  0  0  0  0  0  0  0  0
    2.2323   -7.4944    1.6488 H   0  0  0  0  0  0  0  0  0  0  0  0
    0.5908   -7.3635    5.0048 H   0  0  0  0  0  0  0  0  0  0  0  0
    2.1015   -8.1880    5.3220 H   0  0  0  0  0  0  0  0  0  0  0  0
    1.4343   -5.2759    6.0561 H   0  0  0  0  0  0  0  0  0  0  0  0
    1.6208   -6.6059    7.1424 H   0  0  0  0  0  0  0  0  0  0  0  0
    3.7016   -5.2619    7.1159 H   0  0  0  0  0  0  0  0  0  0  0  0
    3.9732   -6.8763    6.5521 H   0  0  0  0  0  0  0  0  0  0  0  0
    5.9609   -4.6566    5.8751 H   0  0  0  0  0  0  0  0  0  0  0  0
    6.2182   -5.2508    4.2466 H   0  0  0  0  0  0  0  0  0  0  0  0
    6.0064   -6.4108    5.5459 H   0  0  0  0  0  0  0  0  0  0  0  0
    2.7307   -4.0071    4.6342 H   0  0  0  0  0  0  0  0  0  0  0  0
    3.4429   -3.1668    6.6095 H   0  0  0  0  0  0  0  0  0  0  0  0
    5.0129   -2.7318    5.8987 H   0  0  0  0  0  0  0  0  0  0  0  0
    2.4458   -1.3371    5.8363 H   0  0  0  0  0  0  0  0  0  0  0  0
    4.0372   -0.7191    5.5729 H   0  0  0  0  0  0  0  0  0  0  0  0
    1.6957   -3.1274    3.3994 H   0  0  0  0  0  0  0  0  0  0  0  0
    1.4030   -1.9080    2.3114 H   0  0  0  0  0  0  0  0  0  0  0  0
    0.8454   -1.7884    3.9965 H   0  0  0  0  0  0  0  0  0  0  0  0
  1  2  1  0
  1 42  1  0
  1 43  1  0
  1 44  1  0
  2  3  1  0
  2 11  1  0
  2 45  1  6
  3  4  1  0
  3 46  1  0
  3 47  1  0
  4  5  1  0
  4 48  1  0
  4 49  1  0
  5  6  1  0
  5  7  1  0
  5 50  1  1
  6 51  1  0
  7  8  1  0
  7  9  1  0
  7 10  1  0
  8 52  1  0
  8 53  1  0
  8 54  1  0
  9 55  1  0
  9 56  1  0
  9 57  1  0
 10 58  1  0
 11 40  1  0
 11 12  1  0
 11 59  1  1
 12 13  1  0
 12 60  1  0
 12 61  1  0
 13 14  1  0
 13 62  1  0
 13 63  1  0
 14 40  1  0
 14 15  1  0
 14 64  1  1
 15 37  1  0
 15 16  1  0
 15 65  1  1
 16 17  1  0
 16 27  1  0
 16 66  1  6
 17 26  1  0
 17 18  2  0
 18 19  1  0
 18 67  1  0
 19 20  2  0
 19 68  1  0
 20 21  1  0
 20 22  1  0
 21 69  1  0
 22 23  1  0
 22 26  2  0
 23 24  2  0
 23 25  1  0
 26 70  1  0
 27 28  1  0
 27 71  1  0
 27 72  1  0
 28 35  1  0
 28 29  1  0
 28 73  1  1
 29 30  1  0
 29 31  1  0
 29 32  1  0
 30 74  1  0
 30 75  1  0
 30 76  1  0
 31 77  1  0
 31 78  1  0
 31 79  1  0
 32 33  1  0
 32 80  1  0
 32 81  1  0
 33 34  1  0
 33 82  1  0
 33 83  1  0
 34 35  1  0
 34 84  1  0
 34 85  1  0
 35 36  1  1
 35 37  1  0
 36 86  1  0
 36 87  1  0
 36 88  1  0
 37 38  1  0
 37 89  1  6
 38 39  1  0
 38 90  1  0
 38 91  1  0
 39 40  1  0
 39 92  1  0
 39 93  1  0
 40 41  1  1
 41 94  1  0
 41 95  1  0
 41 96  1  0
M  CHG  2  23   1  25  -1
M  END
>  <i_m_ct_stereo_status>  (338) 
1

>  <s_m_source_file>  (338) 
/var/tmp/pbs.5076255.sched01/tmpt25ahaql/1236iipj8y0.sdf

>  <i_m_source_file_index>  (338) 
20

>  <i_lp_mmshare_version>  (338) 
48012

>  <i_f3d_flags>  (338) 
0

>  <s_epik_input>  (338) 
W0NIM11DKFtDSDNdKShbT0hdKVtDQEBIXShbT0hdKVtDSDJdW0NIMl1bQ0BASF0oW0NIM10pW0NASF0oW0NIMl1bQ0gyXTEpW0NAXShbQ0gzXSkoW0NIMl1bQ0gyXVtDQEBIXTIzKVtDQEhdMVtDQEBIXTJbQ0BASF0oYzRbY0hdW2NIXWMoW09IXSljKFtOK10oPU8pW08tXSlbY0hdNClbQ0gyXVtDQEBIXShbQ0BAXTM1W0NIM10pQyhbQ0gzXSkoW0NIM10pW0NIMl1bQ0gyXVtDSDJdNQ==

>  <s_epik_cmdline>  (338) 
J2VwaWtfcHl0aG9uJywgJy1waHQnLCAnMi4wJywgJy1waCcsICc3LjAnLCAnLXRuJywgJzgnLCAnLW1hJywgJzIwMCcsICctaW1hZScsICc8aW5maWxlLm1hZT4nLCAnLW9tYWUnLCAnPG91dGZpbGUubWFlPic=

>  <r_lp_tautomer_probability>  (338) 
1

>  <r_epik_Ionization_Penalty>  (338) 
0.144791

>  <r_epik_Ionization_Penalty_Charging>  (338) 
0

>  <r_epik_Ionization_Penalty_Neutral>  (338) 
0.144791

>  <r_epik_State_Penalty>  (338) 
0.13409

>  <r_epik_Charging_Adjusted_Penalty>  (338) 
0.13409

>  <i_epik_Tot_Q>  (338) 
0

>  <i_epik_Tot_abs_Q>  (338) 
2

>  <s_lp_Force_Field>  (338) 
OPLS3e

>  <r_lp_Energy>  (338) 
94.8622

>  <b_lp_Chiralities_Consistent>  (338) 
1

>  <s_lp_Variant>  (338) 
101:0-1

>  <s_i_glide_gridfile>  (338) 
pfpi4k_grid

>  <i_i_glide_lignum>  (338) 
20

>  <i_i_glide_rotatable_bonds>  (338) 
10

>  <r_i_docking_score>  (338) 
-2.01225

>  <r_i_glide_ligand_efficiency>  (338) 
-0.0490793

>  <r_i_glide_ligand_efficiency_sa>  (338) 
-0.169236

>  <r_i_glide_ligand_efficiency_ln>  (338) 
-0.426906

>  <r_i_glide_gscore>  (338) 
-2.01225

>  <r_i_glide_lipo>  (338) 
-0.495265

>  <r_i_glide_hbond>  (338) 
-0.16

>  <r_i_glide_metal>  (338) 
-0

>  <r_i_glide_rewards>  (338) 
0

>  <r_i_glide_evdw>  (338) 
-28.5008

>  <r_i_glide_ecoul>  (338) 
-6.47541

>  <r_i_glide_erotb>  (338) 
0.295519

>  <r_i_glide_esite>  (338) 
-0.0196763

>  <r_i_glide_emodel>  (338) 
-32.5759

>  <r_i_glide_energy>  (338) 
-34.9763

>  <r_i_glide_einternal>  (338) 
4.07378

>  <r_i_glide_intrahb_reward>  (338) 
-0

>  <i_i_glide_confnum>  (338) 
4

>  <i_i_glide_posenum>  (338) 
11

>  <r_i_glide_eff_state_penalty>  (338) 
0

>  <ligand_id>  (338) 
101

>  <original_smiles>  (338) 
CC(CCC(O)C(C)(C)O)C1CCC2C3C(c4ccc(O)c([N+](=O)[O-])c4)CC4C(C)(C)CCCC4(C)C3CCC12C

>  <smiles>  (338) 
[H]Oc1c([H])c([H])c(C2([H])C([H])([H])C3([H])C(C([H])([H])[H])(C([H])([H])[H])C([H])([H])C([H])([H])C([H])([H])C3(C([H])([H])[H])C3([H])C([H])([H])C([H])([H])C4(C([H])([H])[H])C([H])(C([H])(C([H])([H])[H])C([H])([H])C([H])([H])C([H])(O[H])C(O[H])(C([H])([H])[H])C([H])([H])[H])C([H])([H])C([H])([H])C4([H])C23[H])c([H])c1[N+](=O)[O-]

$$$$
101:0:1
     RDKit          3D

 96100  0  0  1  0  0  0  0  0999 V2000
    1.3679    2.5851    2.9715 C   0  0  0  0  0  0  0  0  0  0  0  0
    1.5051    1.2492    3.6996 C   0  0  2  0  0  0  0  0  0  0  0  0
    1.2389    1.3828    5.2266 C   0  0  0  0  0  0  0  0  0  0  0  0
   -0.1462    1.9351    5.5989 C   0  0  0  0  0  0  0  0  0  0  0  0
   -0.4282    1.8993    7.1250 C   0  0  2  0  0  0  0  0  0  0  0  0
   -0.6190    0.5493    7.5243 O   0  0  0  0  0  0  0  0  0  0  0  0
   -1.6370    2.7771    7.5702 C   0  0  0  0  0  0  0  0  0  0  0  0
   -2.9503    2.3758    6.8748 C   0  0  0  0  0  0  0  0  0  0  0  0
   -1.8257    2.7687    9.0982 C   0  0  0  0  0  0  0  0  0  0  0  0
   -1.3848    4.1223    7.2125 O   0  0  0  0  0  0  0  0  0  0  0  0
    2.8753    0.5871    3.3939 C   0  0  2  0  0  0  0  0  0  0  0  0
    3.0968    0.3420    1.8798 C   0  0  0  0  0  0  0  0  0  0  0  0
    3.6074   -1.0788    1.7281 C   0  0  0  0  0  0  0  0  0  0  0  0
    4.0651   -1.4898    3.1301 C   0  0  2  0  0  0  0  0  0  0  0  0
    4.3019   -2.9945    3.4806 C   0  0  2  0  0  0  0  0  0  0  0  0
    3.7837   -4.0246    2.4528 C   0  0  1  0  0  0  0  0  0  0  0  0
    4.2736   -3.8049    1.0462 C   0  0  0  0  0  0  0  0  0  0  0  0
    5.6493   -3.7043    0.8059 C   0  0  0  0  0  0  0  0  0  0  0  0
    6.1042   -3.3978   -0.4789 C   0  0  0  0  0  0  0  0  0  0  0  0
    5.1869   -3.2093   -1.5283 C   0  0  0  0  0  0  0  0  0  0  0  0
    5.7183   -2.9501   -2.7554 O   0  0  0  0  0  0  0  0  0  0  0  0
    3.7981   -3.3180   -1.3111 C   0  0  0  0  0  0  0  0  0  0  0  0
    2.7767   -3.1009   -2.3633 N   0  0  0  0  0  0  0  0  0  0  0  0
    3.1382   -2.6334   -3.4527 O   0  0  0  0  0  0  0  0  0  0  0  0
    1.6202   -3.3902   -2.1314 O   0  0  0  0  0  0  0  0  0  0  0  0
    3.3469   -3.6437   -0.0034 C   0  0  0  0  0  0  0  0  0  0  0  0
    4.1437   -5.4595    2.8696 C   0  0  0  0  0  0  0  0  0  0  0  0
    3.7317   -5.8233    4.3201 C   0  0  2  0  0  0  0  0  0  0  0  0
    2.1884   -6.1349    4.4441 C   0  0  0  0  0  0  0  0  0  0  0  0
    1.2116   -5.0199    4.0454 C   0  0  0  0  0  0  0  0  0  0  0  0
    1.8181   -7.3151    3.5119 C   0  0  0  0  0  0  0  0  0  0  0  0
    1.8604   -6.5402    5.9069 C   0  0  0  0  0  0  0  0  0  0  0  0
    2.3264   -5.4702    6.9104 C   0  0  0  0  0  0  0  0  0  0  0  0
    3.8339   -5.2049    6.7747 C   0  0  0  0  0  0  0  0  0  0  0  0
    4.2872   -4.7760    5.3486 C   0  0  1  0  0  0  0  0  0  0  0  0
    5.8389   -4.8044    5.3503 C   0  0  0  0  0  0  0  0  0  0  0  0
    3.8622   -3.3486    4.9442 C   0  0  1  0  0  0  0  0  0  0  0  0
    4.2111   -2.1972    5.9152 C   0  0  0  0  0  0  0  0  0  0  0  0
    3.5644   -0.8486    5.4994 C   0  0  0  0  0  0  0  0  0  0  0  0
    3.0199   -0.8225    4.0338 C   0  0  1  0  0  0  0  0  0  0  0  0
    1.6358   -1.5325    3.8839 C   0  0  0  0  0  0  0  0  0  0  0  0
    2.0692    3.3111    3.3801 H   0  0  0  0  0  0  0  0  0  0  0  0
    0.3488    2.9631    3.0716 H   0  0  0  0  0  0  0  0  0  0  0  0
    1.5505    2.4901    1.8976 H   0  0  0  0  0  0  0  0  0  0  0  0
    0.7102    0.6440    3.2626 H   0  0  0  0  0  0  0  0  0  0  0  0
    1.2587    0.4213    5.7130 H   0  0  0  0  0  0  0  0  0  0  0  0
    2.0464    1.9564    5.6877 H   0  0  0  0  0  0  0  0  0  0  0  0
   -0.1934    2.9653    5.2381 H   0  0  0  0  0  0  0  0  0  0  0  0
   -0.9104    1.3660    5.0591 H   0  0  0  0  0  0  0  0  0  0  0  0
    0.4638    2.2611    7.6428 H   0  0  0  0  0  0  0  0  0  0  0  0
    0.2067    0.0913    7.4095 H   0  0  0  0  0  0  0  0  0  0  0  0
   -3.2098    1.3407    7.0931 H   0  0  0  0  0  0  0  0  0  0  0  0
   -2.8920    2.4890    5.7908 H   0  0  0  0  0  0  0  0  0  0  0  0
   -3.7824    2.9929    7.2131 H   0  0  0  0  0  0  0  0  0  0  0  0
   -1.9632    1.7567    9.4757 H   0  0  0  0  0  0  0  0  0  0  0  0
   -2.7052    3.3417    9.3945 H   0  0  0  0  0  0  0  0  0  0  0  0
   -0.9703    3.1980    9.6193 H   0  0  0  0  0  0  0  0  0  0  0  0
   -0.5968    4.4111    7.6562 H   0  0  0  0  0  0  0  0  0  0  0  0
    3.6823    1.2399    3.7415 H   0  0  0  0  0  0  0  0  0  0  0  0
    2.1763    0.4413    1.3009 H   0  0  0  0  0  0  0  0  0  0  0  0
    3.8174    1.0368    1.4613 H   0  0  0  0  0  0  0  0  0  0  0  0
    2.7572   -1.6851    1.4137 H   0  0  0  0  0  0  0  0  0  0  0  0
    4.3844   -1.1770    0.9694 H   0  0  0  0  0  0  0  0  0  0  0  0
    5.0338   -1.0030    3.2838 H   0  0  0  0  0  0  0  0  0  0  0  0
    5.4084   -3.0695    3.4478 H   0  0  0  0  0  0  0  0  0  0  0  0
    2.7307   -3.8312    2.3597 H   0  0  0  0  0  0  0  0  0  0  0  0
    6.3517   -3.8146    1.6289 H   0  0  0  0  0  0  0  0  0  0  0  0
    7.1682   -3.3251   -0.6414 H   0  0  0  0  0  0  0  0  0  0  0  0
    5.0544   -2.9359   -3.4280 H   0  0  0  0  0  0  0  0  0  0  0  0
    2.2936   -3.6745    0.2057 H   0  0  0  0  0  0  0  0  0  0  0  0
    3.7590   -6.1729    2.1428 H   0  0  0  0  0  0  0  0  0  0  0  0
    5.2268   -5.6023    2.7717 H   0  0  0  0  0  0  0  0  0  0  0  0
    4.2507   -6.7665    4.5495 H   0  0  0  0  0  0  0  0  0  0  0  0
    0.1783   -5.3247    4.1082 H   0  0  0  0  0  0  0  0  0  0  0  0
    1.3529   -4.7335    3.0068 H   0  0  0  0  0  0  0  0  0  0  0  0
    1.2648   -4.2192    4.7588 H   0  0  0  0  0  0  0  0  0  0  0  0
    0.7535   -7.5447    3.6063 H   0  0  0  0  0  0  0  0  0  0  0  0
    2.4009   -8.2222    3.7166 H   0  0  0  0  0  0  0  0  0  0  0  0
    1.9586   -7.0448    2.4639 H   0  0  0  0  0  0  0  0  0  0  0  0
    0.7798   -6.6846    5.9953 H   0  0  0  0  0  0  0  0  0  0  0  0
    2.3204   -7.5038    6.1593 H   0  0  0  0  0  0  0  0  0  0  0  0
    1.7621   -4.5422    6.7857 H   0  0  0  0  0  0  0  0  0  0  0  0
    2.0917   -5.8011    7.9194 H   0  0  0  0  0  0  0  0  0  0  0  0
    4.1517   -4.4833    7.5285 H   0  0  0  0  0  0  0  0  0  0  0  0
    4.3433   -6.1355    7.0399 H   0  0  0  0  0  0  0  0  0  0  0  0
    6.2274   -3.9834    5.9597 H   0  0  0  0  0  0  0  0  0  0  0  0
    6.2571   -4.6777    4.3485 H   0  0  0  0  0  0  0  0  0  0  0  0
    6.2252   -5.7573    5.7425 H   0  0  0  0  0  0  0  0  0  0  0  0
    2.8210   -3.3809    5.1072 H   0  0  0  0  0  0  0  0  0  0  0  0
    3.8361   -2.4238    6.9224 H   0  0  0  0  0  0  0  0  0  0  0  0
    5.3063   -2.0546    5.9870 H   0  0  0  0  0  0  0  0  0  0  0  0
    2.7587   -0.6552    6.1976 H   0  0  0  0  0  0  0  0  0  0  0  0
    4.2969   -0.0521    5.6597 H   0  0  0  0  0  0  0  0  0  0  0  0
    1.6820   -2.5857    3.9949 H   0  0  0  0  0  0  0  0  0  0  0  0
    1.2315   -1.4183    2.8776 H   0  0  0  0  0  0  0  0  0  0  0  0
    0.9053   -1.1748    4.6029 H   0  0  0  0  0  0  0  0  0  0  0  0
  1  2  1  0
  1 42  1  0
  1 43  1  0
  1 44  1  0
  2  3  1  0
  2 11  1  0
  2 45  1  6
  3  4  1  0
  3 46  1  0
  3 47  1  0
  4  5  1  0
  4 48  1  0
  4 49  1  0
  5  6  1  0
  5  7  1  0
  5 50  1  1
  6 51  1  0
  7  8  1  0
  7  9  1  0
  7 10  1  0
  8 52  1  0
  8 53  1  0
  8 54  1  0
  9 55  1  0
  9 56  1  0
  9 57  1  0
 10 58  1  0
 11 40  1  0
 11 12  1  0
 11 59  1  1
 12 13  1  0
 12 60  1  0
 12 61  1  0
 13 14  1  0
 13 62  1  0
 13 63  1  0
 14 40  1  0
 14 15  1  0
 14 64  1  1
 15 37  1  0
 15 16  1  0
 15 65  1  1
 16 17  1  0
 16 27  1  0
 16 66  1  6
 17 26  1  0
 17 18  2  0
 18 19  1  0
 18 67  1  0
 19 20  2  0
 19 68  1  0
 20 21  1  0
 20 22  1  0
 21 69  1  0
 22 23  1  0
 22 26  2  0
 23 24  2  0
 23 25  1  0
 26 70  1  0
 27 28  1  0
 27 71  1  0
 27 72  1  0
 28 35  1  0
 28 29  1  0
 28 73  1  1
 29 30  1  0
 29 31  1  0
 29 32  1  0
 30 74  1  0
 30 75  1  0
 30 76  1  0
 31 77  1  0
 31 78  1  0
 31 79  1  0
 32 33  1  0
 32 80  1  0
 32 81  1  0
 33 34  1  0
 33 82  1  0
 33 83  1  0
 34 35  1  0
 34 84  1  0
 34 85  1  0
 35 36  1  1
 35 37  1  0
 36 86  1  0
 36 87  1  0
 36 88  1  0
 37 38  1  0
 37 89  1  6
 38 39  1  0
 38 90  1  0
 38 91  1  0
 39 40  1  0
 39 92  1  0
 39 93  1  0
 40 41  1  1
 41 94  1  0
 41 95  1  0
 41 96  1  0
M  CHG  2  23   1  25  -1
M  END
>  <i_m_ct_stereo_status>  (339) 
1

>  <s_m_source_file>  (339) 
/var/tmp/pbs.5076255.sched01/tmpt25ahaql/1236iipj8y0.sdf

>  <i_m_source_file_index>  (339) 
20

>  <i_lp_mmshare_version>  (339) 
48012

>  <i_f3d_flags>  (339) 
0

>  <s_epik_input>  (339) 
W0NIM11DKFtDSDNdKShbT0hdKVtDQEBIXShbT0hdKVtDSDJdW0NIMl1bQ0BASF0oW0NIM10pW0NASF0oW0NIMl1bQ0gyXTEpW0NAXShbQ0gzXSkoW0NIMl1bQ0gyXVtDQEBIXTIzKVtDQEhdMVtDQEBIXTJbQ0BASF0oYzRbY0hdW2NIXWMoW09IXSljKFtOK10oPU8pW08tXSlbY0hdNClbQ0gyXVtDQEBIXShbQ0BAXTM1W0NIM10pQyhbQ0gzXSkoW0NIM10pW0NIMl1bQ0gyXVtDSDJdNQ==

>  <s_epik_cmdline>  (339) 
J2VwaWtfcHl0aG9uJywgJy1waHQnLCAnMi4wJywgJy1waCcsICc3LjAnLCAnLXRuJywgJzgnLCAnLW1hJywgJzIwMCcsICctaW1hZScsICc8aW5maWxlLm1hZT4nLCAnLW9tYWUnLCAnPG91dGZpbGUubWFlPic=

>  <r_lp_tautomer_probability>  (339) 
1

>  <r_epik_Ionization_Penalty>  (339) 
0.144791

>  <r_epik_Ionization_Penalty_Charging>  (339) 
0

>  <r_epik_Ionization_Penalty_Neutral>  (339) 
0.144791

>  <r_epik_State_Penalty>  (339) 
0.13409

>  <r_epik_Charging_Adjusted_Penalty>  (339) 
0.13409

>  <i_epik_Tot_Q>  (339) 
0

>  <i_epik_Tot_abs_Q>  (339) 
2

>  <s_lp_Force_Field>  (339) 
OPLS3e

>  <r_lp_Energy>  (339) 
94.8622

>  <b_lp_Chiralities_Consistent>  (339) 
1

>  <s_lp_Variant>  (339) 
101:0-1

>  <s_i_glide_gridfile>  (339) 
pfpi4k_grid

>  <i_i_glide_lignum>  (339) 
20

>  <i_i_glide_rotatable_bonds>  (339) 
10

>  <r_i_docking_score>  (339) 
-1.85312

>  <r_i_glide_ligand_efficiency>  (339) 
-0.045198

>  <r_i_glide_ligand_efficiency_sa>  (339) 
-0.155852

>  <r_i_glide_ligand_efficiency_ln>  (339) 
-0.393145

>  <r_i_glide_gscore>  (339) 
-1.85312

>  <r_i_glide_lipo>  (339) 
-0.485719

>  <r_i_glide_hbond>  (339) 
-0.0326022

>  <r_i_glide_metal>  (339) 
-0

>  <r_i_glide_rewards>  (339) 
-0.5

>  <r_i_glide_evdw>  (339) 
-30.4971

>  <r_i_glide_ecoul>  (339) 
-2.75164

>  <r_i_glide_erotb>  (339) 
0.295519

>  <r_i_glide_esite>  (339) 
-0.00486871

>  <r_i_glide_emodel>  (339) 
-36.823

>  <r_i_glide_energy>  (339) 
-33.2488

>  <r_i_glide_einternal>  (339) 
1.20291

>  <r_i_glide_intrahb_reward>  (339) 
-0.5

>  <i_i_glide_confnum>  (339) 
4

>  <i_i_glide_posenum>  (339) 
19

>  <r_i_glide_eff_state_penalty>  (339) 
0

>  <ligand_id>  (339) 
101

>  <original_smiles>  (339) 
CC(CCC(O)C(C)(C)O)C1CCC2C3C(c4ccc(O)c([N+](=O)[O-])c4)CC4C(C)(C)CCCC4(C)C3CCC12C

>  <smiles>  (339) 
[H]Oc1c([H])c([H])c(C2([H])C([H])([H])C3([H])C(C([H])([H])[H])(C([H])([H])[H])C([H])([H])C([H])([H])C([H])([H])C3(C([H])([H])[H])C3([H])C([H])([H])C([H])([H])C4(C([H])([H])[H])C([H])(C([H])(C([H])([H])[H])C([H])([H])C([H])([H])C([H])(O[H])C(O[H])(C([H])([H])[H])C([H])([H])[H])C([H])([H])C([H])([H])C4([H])C23[H])c([H])c1[N+](=O)[O-]

$$$$
101:0:2
     RDKit          3D

 96100  0  0  1  0  0  0  0  0999 V2000
    1.0890    1.9119    2.5525 C   0  0  0  0  0  0  0  0  0  0  0  0
    1.1106    0.5238    3.2044 C   0  0  2  0  0  0  0  0  0  0  0  0
    0.6485    0.5331    4.6945 C   0  0  0  0  0  0  0  0  0  0  0  0
   -0.5611    1.4286    5.0172 C   0  0  0  0  0  0  0  0  0  0  0  0
   -0.4785    2.0754    6.4142 C   0  0  2  0  0  0  0  0  0  0  0  0
   -0.8849    1.1088    7.3691 O   0  0  0  0  0  0  0  0  0  0  0  0
   -1.3121    3.3847    6.5490 C   0  0  0  0  0  0  0  0  0  0  0  0
   -2.8145    3.1591    6.3052 C   0  0  0  0  0  0  0  0  0  0  0  0
   -1.0841    4.0600    7.9122 C   0  0  0  0  0  0  0  0  0  0  0  0
   -0.8787    4.3270    5.5789 O   0  0  0  0  0  0  0  0  0  0  0  0
    2.5120   -0.1231    3.0380 C   0  0  2  0  0  0  0  0  0  0  0  0
    2.9600   -0.2118    1.5596 C   0  0  0  0  0  0  0  0  0  0  0  0
    3.4844   -1.6173    1.3422 C   0  0  0  0  0  0  0  0  0  0  0  0
    3.7353   -2.1746    2.7426 C   0  0  2  0  0  0  0  0  0  0  0  0
    3.9226   -3.7082    2.9667 C   0  0  2  0  0  0  0  0  0  0  0  0
    3.5565   -4.6247    1.7760 C   0  0  1  0  0  0  0  0  0  0  0  0
    4.2436   -4.2714    0.4823 C   0  0  0  0  0  0  0  0  0  0  0  0
    5.6332   -4.2420    0.4442 C   0  0  0  0  0  0  0  0  0  0  0  0
    6.2786   -3.8076   -0.7363 C   0  0  0  0  0  0  0  0  0  0  0  0
    5.5009   -3.4324   -1.8465 C   0  0  0  0  0  0  0  0  0  0  0  0
    6.2450   -3.0531   -2.9546 O   0  0  0  0  0  0  0  0  0  0  0  0
    4.1143   -3.4597   -1.8392 C   0  0  0  0  0  0  0  0  0  0  0  0
    3.2355   -3.0578   -2.9780 N   0  0  0  0  0  0  0  0  0  0  0  0
    3.7729   -2.7530   -4.0485 O   0  0  0  0  0  0  0  0  0  0  0  0
    2.0331   -3.0554   -2.8263 O   0  0  0  0  0  0  0  0  0  0  0  0
    3.4679   -3.9145   -0.6402 C   0  0  0  0  0  0  0  0  0  0  0  0
    3.8563   -6.1013    2.0947 C   0  0  0  0  0  0  0  0  0  0  0  0
    3.2431   -6.6030    3.4276 C   0  0  2  0  0  0  0  0  0  0  0  0
    1.7006   -6.9135    3.2996 C   0  0  0  0  0  0  0  0  0  0  0  0
    0.7911   -5.7472    2.8780 C   0  0  0  0  0  0  0  0  0  0  0  0
    1.4683   -7.9822    2.2070 C   0  0  0  0  0  0  0  0  0  0  0  0
    1.1633   -7.4520    4.6491 C   0  0  0  0  0  0  0  0  0  0  0  0
    1.4770   -6.4917    5.8102 C   0  0  0  0  0  0  0  0  0  0  0  0
    2.9892   -6.2334    5.9205 C   0  0  0  0  0  0  0  0  0  0  0  0
    3.6439   -5.6702    4.6262 C   0  0  1  0  0  0  0  0  0  0  0  0
    5.1765   -5.7162    4.8452 C   0  0  0  0  0  0  0  0  0  0  0  0
    3.2780   -4.2002    4.3168 C   0  0  1  0  0  0  0  0  0  0  0  0
    3.4658   -3.1522    5.4336 C   0  0  0  0  0  0  0  0  0  0  0  0
    2.8825   -1.7639    5.0580 C   0  0  0  0  0  0  0  0  0  0  0  0
    2.5701   -1.5868    3.5426 C   0  0  1  0  0  0  0  0  0  0  0  0
    1.2255   -2.2644    3.1293 C   0  0  0  0  0  0  0  0  0  0  0  0
    1.7064    2.6053    3.1276 H   0  0  0  0  0  0  0  0  0  0  0  0
    0.0687    2.2921    2.4747 H   0  0  0  0  0  0  0  0  0  0  0  0
    1.4351    1.8985    1.5177 H   0  0  0  0  0  0  0  0  0  0  0  0
    0.3785   -0.0335    2.6193 H   0  0  0  0  0  0  0  0  0  0  0  0
    0.3320   -0.4511    5.0251 H   0  0  0  0  0  0  0  0  0  0  0  0
    1.5094    0.7639    5.3250 H   0  0  0  0  0  0  0  0  0  0  0  0
   -0.6149    2.2343    4.3070 H   0  0  0  0  0  0  0  0  0  0  0  0
   -1.4837    0.8562    4.8745 H   0  0  0  0  0  0  0  0  0  0  0  0
    0.5669    2.3241    6.6142 H   0  0  0  0  0  0  0  0  0  0  0  0
   -0.6711    1.4597    8.2207 H   0  0  0  0  0  0  0  0  0  0  0  0
   -3.2262    2.4442    7.0185 H   0  0  0  0  0  0  0  0  0  0  0  0
   -3.0200    2.7940    5.2977 H   0  0  0  0  0  0  0  0  0  0  0  0
   -3.3711    4.0861    6.4250 H   0  0  0  0  0  0  0  0  0  0  0  0
   -1.3275    3.3869    8.7314 H   0  0  0  0  0  0  0  0  0  0  0  0
   -1.7085    4.9449    8.0295 H   0  0  0  0  0  0  0  0  0  0  0  0
   -0.0498    4.3774    8.0419 H   0  0  0  0  0  0  0  0  0  0  0  0
   -0.7863    3.8894    4.7428 H   0  0  0  0  0  0  0  0  0  0  0  0
    3.2574    0.4817    3.5602 H   0  0  0  0  0  0  0  0  0  0  0  0
    2.1283   -0.0494    0.8739 H   0  0  0  0  0  0  0  0  0  0  0  0
    3.7354    0.5148    1.3222 H   0  0  0  0  0  0  0  0  0  0  0  0
    2.6791   -2.1666    0.8569 H   0  0  0  0  0  0  0  0  0  0  0  0
    4.3587   -1.6533    0.6918 H   0  0  0  0  0  0  0  0  0  0  0  0
    4.6704   -1.7190    3.0821 H   0  0  0  0  0  0  0  0  0  0  0  0
    5.0189   -3.7953    3.0782 H   0  0  0  0  0  0  0  0  0  0  0  0
    2.5469   -4.4020    1.5459 H   0  0  0  0  0  0  0  0  0  0  0  0
    6.2172   -4.5031    1.3161 H   0  0  0  0  0  0  0  0  0  0  0  0
    7.3465   -3.8018   -0.7457 H   0  0  0  0  0  0  0  0  0  0  0  0
    7.1428   -3.2697   -2.9085 H   0  0  0  0  0  0  0  0  0  0  0  0
    2.3997   -3.9070   -0.5802 H   0  0  0  0  0  0  0  0  0  0  0  0
    3.5841   -6.7319    1.2516 H   0  0  0  0  0  0  0  0  0  0  0  0
    4.9408   -6.2489    2.1410 H   0  0  0  0  0  0  0  0  0  0  0  0
    3.7240   -7.5679    3.6321 H   0  0  0  0  0  0  0  0  0  0  0  0
   -0.2390   -6.0504    2.7614 H   0  0  0  0  0  0  0  0  0  0  0  0
    1.0639   -5.3744    1.9114 H   0  0  0  0  0  0  0  0  0  0  0  0
    0.7214   -5.0279    3.6636 H   0  0  0  0  0  0  0  0  0  0  0  0
    0.4026   -8.2067    2.1221 H   0  0  0  0  0  0  0  0  0  0  0  0
    2.0170   -8.9104    2.3993 H   0  0  0  0  0  0  0  0  0  0  0  0
    1.7560   -7.6102    1.2224 H   0  0  0  0  0  0  0  0  0  0  0  0
    0.0828   -7.5907    4.5661 H   0  0  0  0  0  0  0  0  0  0  0  0
    1.5843   -8.4390    4.8654 H   0  0  0  0  0  0  0  0  0  0  0  0
    0.9352   -5.5499    5.7005 H   0  0  0  0  0  0  0  0  0  0  0  0
    1.1010   -6.9205    6.7380 H   0  0  0  0  0  0  0  0  0  0  0  0
    3.1931   -5.5947    6.7799 H   0  0  0  0  0  0  0  0  0  0  0  0
    3.4565   -7.1902    6.1594 H   0  0  0  0  0  0  0  0  0  0  0  0
    5.4688   -4.9644    5.5824 H   0  0  0  0  0  0  0  0  0  0  0  0
    5.7347   -5.4979    3.9331 H   0  0  0  0  0  0  0  0  0  0  0  0
    5.5027   -6.7050    5.1887 H   0  0  0  0  0  0  0  0  0  0  0  0
    2.2458   -4.2406    4.3268 H   0  0  0  0  0  0  0  0  0  0  0  0
    2.9571   -3.4796    6.3493 H   0  0  0  0  0  0  0  0  0  0  0  0
    4.5351   -3.0331    5.6684 H   0  0  0  0  0  0  0  0  0  0  0  0
    1.9739   -1.6087    5.6297 H   0  0  0  0  0  0  0  0  0  0  0  0
    3.5785   -1.0010    5.4088 H   0  0  0  0  0  0  0  0  0  0  0  0
    1.2441   -3.3102    3.1318 H   0  0  0  0  0  0  0  0  0  0  0  0
    0.9784   -2.0411    2.0894 H   0  0  0  0  0  0  0  0  0  0  0  0
    0.3983   -1.9776    3.7708 H   0  0  0  0  0  0  0  0  0  0  0  0
  1  2  1  0
  1 42  1  0
  1 43  1  0
  1 44  1  0
  2  3  1  0
  2 11  1  0
  2 45  1  6
  3  4  1  0
  3 46  1  0
  3 47  1  0
  4  5  1  0
  4 48  1  0
  4 49  1  0
  5  6  1  0
  5  7  1  0
  5 50  1  1
  6 51  1  0
  7  8  1  0
  7  9  1  0
  7 10  1  0
  8 52  1  0
  8 53  1  0
  8 54  1  0
  9 55  1  0
  9 56  1  0
  9 57  1  0
 10 58  1  0
 11 40  1  0
 11 12  1  0
 11 59  1  1
 12 13  1  0
 12 60  1  0
 12 61  1  0
 13 14  1  0
 13 62  1  0
 13 63  1  0
 14 40  1  0
 14 15  1  0
 14 64  1  1
 15 37  1  0
 15 16  1  0
 15 65  1  1
 16 17  1  0
 16 27  1  0
 16 66  1  6
 17 26  1  0
 17 18  2  0
 18 19  1  0
 18 67  1  0
 19 20  2  0
 19 68  1  0
 20 21  1  0
 20 22  1  0
 21 69  1  0
 22 23  1  0
 22 26  2  0
 23 24  2  0
 23 25  1  0
 26 70  1  0
 27 28  1  0
 27 71  1  0
 27 72  1  0
 28 35  1  0
 28 29  1  0
 28 73  1  1
 29 30  1  0
 29 31  1  0
 29 32  1  0
 30 74  1  0
 30 75  1  0
 30 76  1  0
 31 77  1  0
 31 78  1  0
 31 79  1  0
 32 33  1  0
 32 80  1  0
 32 81  1  0
 33 34  1  0
 33 82  1  0
 33 83  1  0
 34 35  1  0
 34 84  1  0
 34 85  1  0
 35 36  1  1
 35 37  1  0
 36 86  1  0
 36 87  1  0
 36 88  1  0
 37 38  1  0
 37 89  1  6
 38 39  1  0
 38 90  1  0
 38 91  1  0
 39 40  1  0
 39 92  1  0
 39 93  1  0
 40 41  1  6
 41 94  1  0
 41 95  1  0
 41 96  1  0
M  CHG  2  23   1  25  -1
M  END
>  <i_m_ct_stereo_status>  (340) 
1

>  <s_m_source_file>  (340) 
/var/tmp/pbs.5076255.sched01/tmpt25ahaql/1236iipj8y0.sdf

>  <i_m_source_file_index>  (340) 
20

>  <i_lp_mmshare_version>  (340) 
48012

>  <i_f3d_flags>  (340) 
0

>  <s_epik_input>  (340) 
W0NIM11DKFtDSDNdKShbT0hdKVtDQEBIXShbT0hdKVtDSDJdW0NIMl1bQ0BASF0oW0NIM10pW0NASF0oW0NIMl1bQ0gyXTEpW0NAXShbQ0gzXSkoW0NIMl1bQ0gyXVtDQEBIXTIzKVtDQEhdMVtDQEBIXTJbQ0BASF0oYzRbY0hdW2NIXWMoW09IXSljKFtOK10oPU8pW08tXSlbY0hdNClbQ0gyXVtDQEBIXShbQ0BAXTM1W0NIM10pQyhbQ0gzXSkoW0NIM10pW0NIMl1bQ0gyXVtDSDJdNQ==

>  <s_epik_cmdline>  (340) 
J2VwaWtfcHl0aG9uJywgJy1waHQnLCAnMi4wJywgJy1waCcsICc3LjAnLCAnLXRuJywgJzgnLCAnLW1hJywgJzIwMCcsICctaW1hZScsICc8aW5maWxlLm1hZT4nLCAnLW9tYWUnLCAnPG91dGZpbGUubWFlPic=

>  <r_lp_tautomer_probability>  (340) 
1

>  <r_epik_Ionization_Penalty>  (340) 
0.144791

>  <r_epik_Ionization_Penalty_Charging>  (340) 
0

>  <r_epik_Ionization_Penalty_Neutral>  (340) 
0.144791

>  <r_epik_State_Penalty>  (340) 
0.13409

>  <r_epik_Charging_Adjusted_Penalty>  (340) 
0.13409

>  <i_epik_Tot_Q>  (340) 
0

>  <i_epik_Tot_abs_Q>  (340) 
2

>  <s_lp_Force_Field>  (340) 
OPLS3e

>  <r_lp_Energy>  (340) 
94.8622

>  <b_lp_Chiralities_Consistent>  (340) 
1

>  <s_lp_Variant>  (340) 
101:0-1

>  <s_i_glide_gridfile>  (340) 
pfpi4k_grid

>  <i_i_glide_lignum>  (340) 
20

>  <i_i_glide_rotatable_bonds>  (340) 
10

>  <r_i_docking_score>  (340) 
-1.62339

>  <r_i_glide_ligand_efficiency>  (340) 
-0.039595

>  <r_i_glide_ligand_efficiency_sa>  (340) 
-0.136532

>  <r_i_glide_ligand_efficiency_ln>  (340) 
-0.344408

>  <r_i_glide_gscore>  (340) 
-1.62339

>  <r_i_glide_lipo>  (340) 
-0.524514

>  <r_i_glide_hbond>  (340) 
0

>  <r_i_glide_metal>  (340) 
-0

>  <r_i_glide_rewards>  (340) 
-0.00132459

>  <r_i_glide_evdw>  (340) 
-30.6237

>  <r_i_glide_ecoul>  (340) 
-5.59312

>  <r_i_glide_erotb>  (340) 
0.295519

>  <r_i_glide_esite>  (340) 
-0.00158129

>  <r_i_glide_emodel>  (340) 
-31.8323

>  <r_i_glide_energy>  (340) 
-36.2169

>  <r_i_glide_einternal>  (340) 
5.48367

>  <r_i_glide_intrahb_reward>  (340) 
-0

>  <i_i_glide_confnum>  (340) 
4

>  <i_i_glide_posenum>  (340) 
25

>  <r_i_glide_eff_state_penalty>  (340) 
0

>  <ligand_id>  (340) 
101

>  <original_smiles>  (340) 
CC(CCC(O)C(C)(C)O)C1CCC2C3C(c4ccc(O)c([N+](=O)[O-])c4)CC4C(C)(C)CCCC4(C)C3CCC12C

>  <smiles>  (340) 
[H]Oc1c([H])c([H])c(C2([H])C([H])([H])C3([H])C(C([H])([H])[H])(C([H])([H])[H])C([H])([H])C([H])([H])C([H])([H])C3(C([H])([H])[H])C3([H])C([H])([H])C([H])([H])C4(C([H])([H])[H])C([H])(C([H])(C([H])([H])[H])C([H])([H])C([H])([H])C([H])(O[H])C(O[H])(C([H])([H])[H])C([H])([H])[H])C([H])([H])C([H])([H])C4([H])C23[H])c([H])c1[N+](=O)[O-]

$$$$
101:1:0
     RDKit          3D

 95 99  0  0  1  0  0  0  0  0999 V2000
   -2.0871   -3.9965    7.1606 C   0  0  0  0  0  0  0  0  0  0  0  0
   -0.7429   -3.9253    6.4342 C   0  0  2  0  0  0  0  0  0  0  0  0
    0.1808   -5.0721    6.8602 C   0  0  0  0  0  0  0  0  0  0  0  0
    0.0452   -6.3844    6.0536 C   0  0  0  0  0  0  0  0  0  0  0  0
    0.8021   -7.5761    6.6994 C   0  0  2  0  0  0  0  0  0  0  0  0
    0.2476   -7.8065    7.9848 O   0  0  0  0  0  0  0  0  0  0  0  0
    2.3679   -7.4886    6.7680 C   0  0  0  0  0  0  0  0  0  0  0  0
    2.9795   -8.6812    7.5246 C   0  0  0  0  0  0  0  0  0  0  0  0
    2.9949   -7.3788    5.3649 C   0  0  0  0  0  0  0  0  0  0  0  0
    2.8089   -6.3573    7.4948 O   0  0  0  0  0  0  0  0  0  0  0  0
   -0.0829   -2.5261    6.5311 C   0  0  2  0  0  0  0  0  0  0  0  0
   -1.0294   -1.3863    6.0673 C   0  0  0  0  0  0  0  0  0  0  0  0
   -0.2365   -0.4792    5.1581 C   0  0  0  0  0  0  0  0  0  0  0  0
    1.2272   -0.8445    5.4061 C   0  0  2  0  0  0  0  0  0  0  0  0
    2.3361   -0.3987    4.4037 C   0  0  2  0  0  0  0  0  0  0  0  0
    1.8437    0.1445    3.0418 C   0  0  1  0  0  0  0  0  0  0  0  0
    0.8600    1.2743    3.1270 C   0  0  0  0  0  0  0  0  0  0  0  0
   -0.4105    1.1706    2.5202 C   0  0  0  0  0  0  0  0  0  0  0  0
   -1.3664    2.1702    2.7407 C   0  0  0  0  0  0  0  0  0  0  0  0
   -1.0536    3.2981    3.5068 C   0  0  0  0  0  0  0  0  0  0  0  0
   -2.0395    4.2474    3.6314 O   0  0  0  0  0  0  0  0  0  0  0  0
    0.2429    3.4499    4.0824 C   0  0  0  0  0  0  0  0  0  0  0  0
    0.6721    4.6182    4.8833 N   0  0  0  0  0  0  0  0  0  0  0  0
   -0.1162    5.4867    5.1774 O   0  0  0  0  0  0  0  0  0  0  0  0
    1.8622    4.6508    5.2464 O   0  0  0  0  0  0  0  0  0  0  0  0
    1.1817    2.4214    3.8823 C   0  0  0  0  0  0  0  0  0  0  0  0
    3.0210    0.6045    2.1653 C   0  0  0  0  0  0  0  0  0  0  0  0
    4.1452   -0.4482    1.9980 C   0  0  2  0  0  0  0  0  0  0  0  0
    3.7798   -1.5837    0.9537 C   0  0  0  0  0  0  0  0  0  0  0  0
    2.5177   -2.4255    1.2188 C   0  0  0  0  0  0  0  0  0  0  0  0
    3.5242   -0.9532   -0.4181 C   0  0  0  0  0  0  0  0  0  0  0  0
    4.9663   -2.5594    0.8050 C   0  0  0  0  0  0  0  0  0  0  0  0
    5.3896   -3.1383    2.1630 C   0  0  0  0  0  0  0  0  0  0  0  0
    5.7574   -2.0163    3.1411 C   0  0  0  0  0  0  0  0  0  0  0  0
    4.6515   -0.9568    3.3921 C   0  0  1  0  0  0  0  0  0  0  0  0
    5.3071    0.1988    4.1946 C   0  0  0  0  0  0  0  0  0  0  0  0
    3.4697   -1.4732    4.2396 C   0  0  1  0  0  0  0  0  0  0  0  0
    3.7878   -2.1389    5.5936 C   0  0  0  0  0  0  0  0  0  0  0  0
    2.5435   -2.7998    6.2190 C   0  0  0  0  0  0  0  0  0  0  0  0
    1.1692   -2.3620    5.6117 C   0  0  1  0  0  0  0  0  0  0  0  0
    0.8445   -3.0928    4.2741 C   0  0  0  0  0  0  0  0  0  0  0  0
   -1.9053   -3.9213    8.2344 H   0  0  0  0  0  0  0  0  0  0  0  0
   -2.5771   -4.9433    6.9288 H   0  0  0  0  0  0  0  0  0  0  0  0
   -2.7654   -3.1980    6.8531 H   0  0  0  0  0  0  0  0  0  0  0  0
   -0.9752   -4.0960    5.3888 H   0  0  0  0  0  0  0  0  0  0  0  0
    1.1754   -4.7792    6.6962 H   0  0  0  0  0  0  0  0  0  0  0  0
    0.0994   -5.2269    7.9361 H   0  0  0  0  0  0  0  0  0  0  0  0
   -1.0158   -6.6243    5.9452 H   0  0  0  0  0  0  0  0  0  0  0  0
    0.4048   -6.2459    5.0268 H   0  0  0  0  0  0  0  0  0  0  0  0
    0.5545   -8.4578    6.1062 H   0  0  0  0  0  0  0  0  0  0  0  0
    0.6426   -8.5877    8.3335 H   0  0  0  0  0  0  0  0  0  0  0  0
    2.7257   -9.6295    7.0513 H   0  0  0  0  0  0  0  0  0  0  0  0
    2.6429   -8.7234    8.5616 H   0  0  0  0  0  0  0  0  0  0  0  0
    4.0673   -8.6038    7.5524 H   0  0  0  0  0  0  0  0  0  0  0  0
    2.7158   -8.2258    4.7381 H   0  0  0  0  0  0  0  0  0  0  0  0
    4.0832   -7.3622    5.4237 H   0  0  0  0  0  0  0  0  0  0  0  0
    2.6939   -6.4681    4.8469 H   0  0  0  0  0  0  0  0  0  0  0  0
    2.5027   -6.4425    8.3816 H   0  0  0  0  0  0  0  0  0  0  0  0
    0.1944   -2.3319    7.5709 H   0  0  0  0  0  0  0  0  0  0  0  0
   -1.8946   -1.7451    5.5118 H   0  0  0  0  0  0  0  0  0  0  0  0
   -1.3886   -0.7811    6.8822 H   0  0  0  0  0  0  0  0  0  0  0  0
   -0.5299   -0.7430    4.1443 H   0  0  0  0  0  0  0  0  0  0  0  0
   -0.4625    0.5776    5.3131 H   0  0  0  0  0  0  0  0  0  0  0  0
    1.4930   -0.3656    6.3562 H   0  0  0  0  0  0  0  0  0  0  0  0
    2.7820    0.4619    4.9305 H   0  0  0  0  0  0  0  0  0  0  0  0
    1.2319   -0.6232    2.6387 H   0  0  0  0  0  0  0  0  0  0  0  0
   -0.6745    0.2717    1.9759 H   0  0  0  0  0  0  0  0  0  0  0  0
   -2.3409    2.0385    2.2982 H   0  0  0  0  0  0  0  0  0  0  0  0
    2.1698    2.4507    4.3438 H   0  0  0  0  0  0  0  0  0  0  0  0
    2.6529    0.9819    1.2160 H   0  0  0  0  0  0  0  0  0  0  0  0
    3.4444    1.5153    2.5973 H   0  0  0  0  0  0  0  0  0  0  0  0
    4.9973    0.0938    1.5643 H   0  0  0  0  0  0  0  0  0  0  0  0
    2.3028   -3.1286    0.4242 H   0  0  0  0  0  0  0  0  0  0  0  0
    1.6387   -1.8153    1.2613 H   0  0  0  0  0  0  0  0  0  0  0  0
    2.6865   -3.0813    2.0385 H   0  0  0  0  0  0  0  0  0  0  0  0
    3.2413   -1.7056   -1.1577 H   0  0  0  0  0  0  0  0  0  0  0  0
    4.3398   -0.3329   -0.7991 H   0  0  0  0  0  0  0  0  0  0  0  0
    2.6636   -0.3102   -0.3099 H   0  0  0  0  0  0  0  0  0  0  0  0
    4.6663   -3.3699    0.1356 H   0  0  0  0  0  0  0  0  0  0  0  0
    5.8234   -2.0655    0.3314 H   0  0  0  0  0  0  0  0  0  0  0  0
    4.6105   -3.7753    2.5875 H   0  0  0  0  0  0  0  0  0  0  0  0
    6.2366   -3.8065    2.0172 H   0  0  0  0  0  0  0  0  0  0  0  0
    6.0638   -2.4739    4.0794 H   0  0  0  0  0  0  0  0  0  0  0  0
    6.6217   -1.5044    2.7188 H   0  0  0  0  0  0  0  0  0  0  0  0
    5.5236   -0.1291    5.2168 H   0  0  0  0  0  0  0  0  0  0  0  0
    4.6489    1.0674    4.2798 H   0  0  0  0  0  0  0  0  0  0  0  0
    6.2359    0.5440    3.7218 H   0  0  0  0  0  0  0  0  0  0  0  0
    3.2198   -2.3360    3.7248 H   0  0  0  0  0  0  0  0  0  0  0  0
    4.5128   -2.9531    5.4461 H   0  0  0  0  0  0  0  0  0  0  0  0
    4.2152   -1.4239    6.3186 H   0  0  0  0  0  0  0  0  0  0  0  0
    2.7211   -3.8479    6.0505 H   0  0  0  0  0  0  0  0  0  0  0  0
    2.5624   -2.6328    7.2972 H   0  0  0  0  0  0  0  0  0  0  0  0
    1.4162   -2.8022    3.4510 H   0  0  0  0  0  0  0  0  0  0  0  0
   -0.1557   -2.8488    3.9113 H   0  0  0  0  0  0  0  0  0  0  0  0
    0.9475   -4.1699    4.3946 H   0  0  0  0  0  0  0  0  0  0  0  0
  1  2  1  0
  1 42  1  0
  1 43  1  0
  1 44  1  0
  2  3  1  0
  2 11  1  0
  2 45  1  6
  3  4  1  0
  3 46  1  0
  3 47  1  0
  4  5  1  0
  4 48  1  0
  4 49  1  0
  5  6  1  0
  5  7  1  0
  5 50  1  6
  6 51  1  0
  7  8  1  0
  7  9  1  0
  7 10  1  0
  8 52  1  0
  8 53  1  0
  8 54  1  0
  9 55  1  0
  9 56  1  0
  9 57  1  0
 10 58  1  0
 11 40  1  0
 11 12  1  0
 11 59  1  1
 12 13  1  0
 12 60  1  0
 12 61  1  0
 13 14  1  0
 13 62  1  0
 13 63  1  0
 14 40  1  0
 14 15  1  0
 14 64  1  1
 15 37  1  0
 15 16  1  0
 15 65  1  1
 16 17  1  0
 16 27  1  0
 16 66  1  6
 17 26  1  0
 17 18  2  0
 18 19  1  0
 18 67  1  0
 19 20  2  0
 19 68  1  0
 20 21  1  0
 20 22  1  0
 22 23  1  0
 22 26  2  0
 23 24  2  0
 23 25  1  0
 26 69  1  0
 27 28  1  0
 27 70  1  0
 27 71  1  0
 28 35  1  0
 28 29  1  0
 28 72  1  6
 29 30  1  0
 29 31  1  0
 29 32  1  0
 30 73  1  0
 30 74  1  0
 30 75  1  0
 31 76  1  0
 31 77  1  0
 31 78  1  0
 32 33  1  0
 32 79  1  0
 32 80  1  0
 33 34  1  0
 33 81  1  0
 33 82  1  0
 34 35  1  0
 34 83  1  0
 34 84  1  0
 35 36  1  1
 35 37  1  0
 36 85  1  0
 36 86  1  0
 36 87  1  0
 37 38  1  0
 37 88  1  6
 38 39  1  0
 38 89  1  0
 38 90  1  0
 39 40  1  0
 39 91  1  0
 39 92  1  0
 40 41  1  6
 41 93  1  0
 41 94  1  0
 41 95  1  0
M  CHG  3  21  -1  23   1  25  -1
M  END
>  <i_m_ct_stereo_status>  (341) 
1

>  <s_m_source_file>  (341) 
/var/tmp/pbs.5076255.sched01/tmpt25ahaql/1236iipj8y0.sdf

>  <i_m_source_file_index>  (341) 
21

>  <i_lp_mmshare_version>  (341) 
48012

>  <i_f3d_flags>  (341) 
0

>  <s_epik_input>  (341) 
W0NIM11DKFtDSDNdKShbT0hdKVtDQEBIXShbT0hdKVtDSDJdW0NIMl1bQ0BASF0oW0NIM10pW0NASF0oW0NIMl1bQ0gyXTEpW0NAXShbQ0gzXSkoW0NIMl1bQ0gyXVtDQEBIXTIzKVtDQEhdMVtDQEBIXTJbQ0BASF0oYzRbY0hdW2NIXWMoW09IXSljKFtOK10oPU8pW08tXSlbY0hdNClbQ0gyXVtDQEBIXShbQ0BAXTM1W0NIM10pQyhbQ0gzXSkoW0NIM10pW0NIMl1bQ0gyXVtDSDJdNQ==

>  <s_epik_cmdline>  (341) 
J2VwaWtfcHl0aG9uJywgJy1waHQnLCAnMi4wJywgJy1waCcsICc3LjAnLCAnLXRuJywgJzgnLCAnLW1hJywgJzIwMCcsICctaW1hZScsICc8aW5maWxlLm1hZT4nLCAnLW9tYWUnLCAnPG91dGZpbGUubWFlPic=

>  <r_epik_Ionization_Penalty>  (341) 
0.905759

>  <r_epik_Ionization_Penalty_Charging>  (341) 
0.905758

>  <r_epik_Ionization_Penalty_Neutral>  (341) 
1.09276e-06

>  <r_epik_State_Penalty>  (341) 
0.946104

>  <r_epik_Charging_Adjusted_Penalty>  (341) 
1.85186

>  <i_epik_Tot_Q>  (341) 
-1

>  <i_epik_Tot_abs_Q>  (341) 
3

>  <s_lp_Force_Field>  (341) 
OPLS3e

>  <r_lp_Energy>  (341) 
93.1216

>  <b_lp_Chiralities_Consistent>  (341) 
1

>  <s_lp_Variant>  (341) 
101:0-2

>  <s_i_glide_gridfile>  (341) 
pfpi4k_grid

>  <i_i_glide_lignum>  (341) 
21

>  <i_i_glide_rotatable_bonds>  (341) 
9

>  <r_i_docking_score>  (341) 
-1.62342

>  <r_i_glide_ligand_efficiency>  (341) 
-0.0395956

>  <r_i_glide_ligand_efficiency_sa>  (341) 
-0.136534

>  <r_i_glide_ligand_efficiency_ln>  (341) 
-0.344414

>  <r_i_glide_gscore>  (341) 
-1.62342

>  <r_i_glide_lipo>  (341) 
-0.460827

>  <r_i_glide_hbond>  (341) 
-0.150363

>  <r_i_glide_metal>  (341) 
-0

>  <r_i_glide_rewards>  (341) 
0

>  <r_i_glide_evdw>  (341) 
-21.7412

>  <r_i_glide_ecoul>  (341) 
-2.83572

>  <r_i_glide_erotb>  (341) 
0.297787

>  <r_i_glide_esite>  (341) 
-0.0730169

>  <r_i_glide_emodel>  (341) 
-20.9777

>  <r_i_glide_energy>  (341) 
-24.5769

>  <r_i_glide_einternal>  (341) 
8.04762

>  <r_i_glide_intrahb_reward>  (341) 
-0

>  <i_i_glide_confnum>  (341) 
1

>  <i_i_glide_posenum>  (341) 
5

>  <r_i_glide_eff_state_penalty>  (341) 
0

>  <ligand_id>  (341) 
101

>  <original_smiles>  (341) 
CC(CCC(O)C(C)(C)O)C1CCC2C3C(c4ccc(O)c([N+](=O)[O-])c4)CC4C(C)(C)CCCC4(C)C3CCC12C

>  <smiles>  (341) 
[H]OC([H])(C([H])([H])C([H])([H])C([H])(C([H])([H])[H])C1([H])C([H])([H])C([H])([H])C2([H])C3([H])C([H])(c4c([H])c([H])c([O-])c([N+](=O)[O-])c4[H])C([H])([H])C4([H])C(C([H])([H])[H])(C([H])([H])[H])C([H])([H])C([H])([H])C([H])([H])C4(C([H])([H])[H])C3([H])C([H])([H])C([H])([H])C12C([H])([H])[H])C(O[H])(C([H])([H])[H])C([H])([H])[H]

$$$$
101:1:1
     RDKit          3D

 95 99  0  0  1  0  0  0  0  0999 V2000
    3.8212   -4.0436   -0.3886 C   0  0  0  0  0  0  0  0  0  0  0  0
    4.5757   -3.7894    0.9131 C   0  0  2  0  0  0  0  0  0  0  0  0
    6.0391   -4.3312    0.8539 C   0  0  0  0  0  0  0  0  0  0  0  0
    6.1788   -5.8606    1.0326 C   0  0  0  0  0  0  0  0  0  0  0  0
    7.4898   -6.3350    1.7288 C   0  0  2  0  0  0  0  0  0  0  0  0
    8.5259   -6.2861    0.7600 O   0  0  0  0  0  0  0  0  0  0  0  0
    7.3780   -7.7606    2.3770 C   0  0  0  0  0  0  0  0  0  0  0  0
    6.4697   -7.8529    3.6176 C   0  0  0  0  0  0  0  0  0  0  0  0
    6.9430   -8.8360    1.3709 C   0  0  0  0  0  0  0  0  0  0  0  0
    8.6412   -8.0894    2.8945 O   0  0  0  0  0  0  0  0  0  0  0  0
    3.7652   -4.2545    2.1586 C   0  0  2  0  0  0  0  0  0  0  0  0
    2.3597   -3.6336    2.2533 C   0  0  0  0  0  0  0  0  0  0  0  0
    2.1798   -3.1870    3.6921 C   0  0  0  0  0  0  0  0  0  0  0  0
    3.2732   -3.9082    4.4845 C   0  0  2  0  0  0  0  0  0  0  0  0
    3.6936   -3.4591    5.9205 C   0  0  2  0  0  0  0  0  0  0  0  0
    3.1469   -2.0914    6.3601 C   0  0  1  0  0  0  0  0  0  0  0  0
    1.6535   -1.9496    6.2437 C   0  0  0  0  0  0  0  0  0  0  0  0
    1.0948   -0.8169    5.6205 C   0  0  0  0  0  0  0  0  0  0  0  0
   -0.2802   -0.7582    5.4164 C   0  0  0  0  0  0  0  0  0  0  0  0
   -1.1104   -1.8014    5.8531 C   0  0  0  0  0  0  0  0  0  0  0  0
   -2.4231   -1.6164    5.7405 O   0  0  0  0  0  0  0  0  0  0  0  0
   -0.5535   -2.9579    6.5147 C   0  0  0  0  0  0  0  0  0  0  0  0
   -1.3697   -4.0979    7.0072 N   0  0  0  0  0  0  0  0  0  0  0  0
   -2.5642   -4.1100    6.8814 O   0  0  0  0  0  0  0  0  0  0  0  0
   -0.7502   -5.0181    7.5839 O   0  0  0  0  0  0  0  0  0  0  0  0
    0.8131   -2.9871    6.7090 C   0  0  0  0  0  0  0  0  0  0  0  0
    3.5374   -1.7781    7.8128 C   0  0  0  0  0  0  0  0  0  0  0  0
    5.0517   -1.9152    8.0996 C   0  0  2  0  0  0  0  0  0  0  0  0
    5.8856   -0.6779    7.5696 C   0  0  0  0  0  0  0  0  0  0  0  0
    5.8189   -0.3551    6.0667 C   0  0  0  0  0  0  0  0  0  0  0  0
    5.3771    0.6178    8.2376 C   0  0  0  0  0  0  0  0  0  0  0  0
    7.3778   -0.8709    7.9509 C   0  0  0  0  0  0  0  0  0  0  0  0
    7.9198   -2.2180    7.4548 C   0  0  0  0  0  0  0  0  0  0  0  0
    7.1067   -3.3996    7.9910 C   0  0  0  0  0  0  0  0  0  0  0  0
    5.5855   -3.3262    7.6776 C   0  0  1  0  0  0  0  0  0  0  0  0
    4.9082   -4.4452    8.5106 C   0  0  0  0  0  0  0  0  0  0  0  0
    5.2357   -3.5810    6.1979 C   0  0  1  0  0  0  0  0  0  0  0  0
    5.7830   -4.8649    5.5405 C   0  0  0  0  0  0  0  0  0  0  0  0
    5.5026   -4.8585    4.0194 C   0  0  0  0  0  0  0  0  0  0  0  0
    4.4457   -3.8626    3.5011 C   0  0  1  0  0  0  0  0  0  0  0  0
    5.0256   -2.4193    3.3336 C   0  0  0  0  0  0  0  0  0  0  0  0
    3.7740   -5.1121   -0.5914 H   0  0  0  0  0  0  0  0  0  0  0  0
    4.3233   -3.5359   -1.2169 H   0  0  0  0  0  0  0  0  0  0  0  0
    2.7991   -3.6524   -0.3567 H   0  0  0  0  0  0  0  0  0  0  0  0
    4.6325   -2.7019    0.9235 H   0  0  0  0  0  0  0  0  0  0  0  0
    6.4951   -4.0134   -0.0859 H   0  0  0  0  0  0  0  0  0  0  0  0
    6.6783   -3.8547    1.5903 H   0  0  0  0  0  0  0  0  0  0  0  0
    5.3417   -6.2609    1.5993 H   0  0  0  0  0  0  0  0  0  0  0  0
    6.0638   -6.3051    0.0468 H   0  0  0  0  0  0  0  0  0  0  0  0
    7.8043   -5.6510    2.5153 H   0  0  0  0  0  0  0  0  0  0  0  0
    9.2527   -6.8015    1.0944 H   0  0  0  0  0  0  0  0  0  0  0  0
    5.4378   -7.6702    3.3374 H   0  0  0  0  0  0  0  0  0  0  0  0
    6.7858   -7.1505    4.3890 H   0  0  0  0  0  0  0  0  0  0  0  0
    6.4688   -8.8356    4.0832 H   0  0  0  0  0  0  0  0  0  0  0  0
    5.9659   -8.5926    0.9478 H   0  0  0  0  0  0  0  0  0  0  0  0
    6.8458   -9.8052    1.8667 H   0  0  0  0  0  0  0  0  0  0  0  0
    7.6545   -8.9296    0.5492 H   0  0  0  0  0  0  0  0  0  0  0  0
    9.2935   -8.0798    2.1987 H   0  0  0  0  0  0  0  0  0  0  0  0
    3.5860   -5.3347    2.1021 H   0  0  0  0  0  0  0  0  0  0  0  0
    2.2452   -2.7686    1.6013 H   0  0  0  0  0  0  0  0  0  0  0  0
    1.5986   -4.3678    2.0030 H   0  0  0  0  0  0  0  0  0  0  0  0
    2.3523   -2.1129    3.7209 H   0  0  0  0  0  0  0  0  0  0  0  0
    1.1801   -3.3824    4.0649 H   0  0  0  0  0  0  0  0  0  0  0  0
    2.9426   -4.9525    4.5854 H   0  0  0  0  0  0  0  0  0  0  0  0
    3.2036   -4.2286    6.5367 H   0  0  0  0  0  0  0  0  0  0  0  0
    3.4749   -1.3987    5.6248 H   0  0  0  0  0  0  0  0  0  0  0  0
    1.7340   -0.0414    5.2195 H   0  0  0  0  0  0  0  0  0  0  0  0
   -0.6986    0.0976    4.9107 H   0  0  0  0  0  0  0  0  0  0  0  0
    1.2876   -3.8588    7.1671 H   0  0  0  0  0  0  0  0  0  0  0  0
    3.1479   -0.8028    8.1023 H   0  0  0  0  0  0  0  0  0  0  0  0
    2.9863   -2.4447    8.4846 H   0  0  0  0  0  0  0  0  0  0  0  0
    5.1489   -1.8969    9.1967 H   0  0  0  0  0  0  0  0  0  0  0  0
    6.3917    0.5221    5.7964 H   0  0  0  0  0  0  0  0  0  0  0  0
    4.8153   -0.1551    5.7509 H   0  0  0  0  0  0  0  0  0  0  0  0
    6.3082   -1.1229    5.5361 H   0  0  0  0  0  0  0  0  0  0  0  0
    5.9637    1.4727    7.8848 H   0  0  0  0  0  0  0  0  0  0  0  0
    5.4142    0.5815    9.3352 H   0  0  0  0  0  0  0  0  0  0  0  0
    4.3526    0.8387    7.9329 H   0  0  0  0  0  0  0  0  0  0  0  0
    7.9614   -0.0556    7.5074 H   0  0  0  0  0  0  0  0  0  0  0  0
    7.5288   -0.8079    9.0373 H   0  0  0  0  0  0  0  0  0  0  0  0
    7.8809   -2.2368    6.3756 H   0  0  0  0  0  0  0  0  0  0  0  0
    8.9717   -2.3163    7.7203 H   0  0  0  0  0  0  0  0  0  0  0  0
    7.5465   -4.3381    7.6450 H   0  0  0  0  0  0  0  0  0  0  0  0
    7.2422   -3.3960    9.0744 H   0  0  0  0  0  0  0  0  0  0  0  0
    5.1711   -5.4321    8.1075 H   0  0  0  0  0  0  0  0  0  0  0  0
    3.8149   -4.3812    8.4865 H   0  0  0  0  0  0  0  0  0  0  0  0
    5.2118   -4.3966    9.5683 H   0  0  0  0  0  0  0  0  0  0  0  0
    5.8488   -2.9142    5.7027 H   0  0  0  0  0  0  0  0  0  0  0  0
    6.8778   -4.9238    5.6696 H   0  0  0  0  0  0  0  0  0  0  0  0
    5.3522   -5.7815    5.9824 H   0  0  0  0  0  0  0  0  0  0  0  0
    6.4315   -4.6503    3.5250 H   0  0  0  0  0  0  0  0  0  0  0  0
    5.1234   -5.8233    3.7704 H   0  0  0  0  0  0  0  0  0  0  0  0
    5.2267   -1.9645    4.2535 H   0  0  0  0  0  0  0  0  0  0  0  0
    4.2945   -1.7638    2.8552 H   0  0  0  0  0  0  0  0  0  0  0  0
    5.9530   -2.4287    2.7667 H   0  0  0  0  0  0  0  0  0  0  0  0
  1  2  1  0
  1 42  1  0
  1 43  1  0
  1 44  1  0
  2  3  1  0
  2 11  1  0
  2 45  1  1
  3  4  1  0
  3 46  1  0
  3 47  1  0
  4  5  1  0
  4 48  1  0
  4 49  1  0
  5  6  1  0
  5  7  1  0
  5 50  1  1
  6 51  1  0
  7  8  1  0
  7  9  1  0
  7 10  1  0
  8 52  1  0
  8 53  1  0
  8 54  1  0
  9 55  1  0
  9 56  1  0
  9 57  1  0
 10 58  1  0
 11 40  1  0
 11 12  1  0
 11 59  1  1
 12 13  1  0
 12 60  1  0
 12 61  1  0
 13 14  1  0
 13 62  1  0
 13 63  1  0
 14 40  1  0
 14 15  1  0
 14 64  1  1
 15 37  1  0
 15 16  1  0
 15 65  1  1
 16 17  1  0
 16 27  1  0
 16 66  1  6
 17 26  1  0
 17 18  2  0
 18 19  1  0
 18 67  1  0
 19 20  2  0
 19 68  1  0
 20 21  1  0
 20 22  1  0
 22 23  1  0
 22 26  2  0
 23 24  2  0
 23 25  1  0
 26 69  1  0
 27 28  1  0
 27 70  1  0
 27 71  1  0
 28 35  1  0
 28 29  1  0
 28 72  1  1
 29 30  1  0
 29 31  1  0
 29 32  1  0
 30 73  1  0
 30 74  1  0
 30 75  1  0
 31 76  1  0
 31 77  1  0
 31 78  1  0
 32 33  1  0
 32 79  1  0
 32 80  1  0
 33 34  1  0
 33 81  1  0
 33 82  1  0
 34 35  1  0
 34 83  1  0
 34 84  1  0
 35 36  1  1
 35 37  1  0
 36 85  1  0
 36 86  1  0
 36 87  1  0
 37 38  1  0
 37 88  1  6
 38 39  1  0
 38 89  1  0
 38 90  1  0
 39 40  1  0
 39 91  1  0
 39 92  1  0
 40 41  1  6
 41 93  1  0
 41 94  1  0
 41 95  1  0
M  CHG  3  21  -1  23   1  25  -1
M  END
>  <i_m_ct_stereo_status>  (342) 
1

>  <s_m_source_file>  (342) 
/var/tmp/pbs.5076255.sched01/tmpt25ahaql/1236iipj8y0.sdf

>  <i_m_source_file_index>  (342) 
21

>  <i_lp_mmshare_version>  (342) 
48012

>  <i_f3d_flags>  (342) 
0

>  <s_epik_input>  (342) 
W0NIM11DKFtDSDNdKShbT0hdKVtDQEBIXShbT0hdKVtDSDJdW0NIMl1bQ0BASF0oW0NIM10pW0NASF0oW0NIMl1bQ0gyXTEpW0NAXShbQ0gzXSkoW0NIMl1bQ0gyXVtDQEBIXTIzKVtDQEhdMVtDQEBIXTJbQ0BASF0oYzRbY0hdW2NIXWMoW09IXSljKFtOK10oPU8pW08tXSlbY0hdNClbQ0gyXVtDQEBIXShbQ0BAXTM1W0NIM10pQyhbQ0gzXSkoW0NIM10pW0NIMl1bQ0gyXVtDSDJdNQ==

>  <s_epik_cmdline>  (342) 
J2VwaWtfcHl0aG9uJywgJy1waHQnLCAnMi4wJywgJy1waCcsICc3LjAnLCAnLXRuJywgJzgnLCAnLW1hJywgJzIwMCcsICctaW1hZScsICc8aW5maWxlLm1hZT4nLCAnLW9tYWUnLCAnPG91dGZpbGUubWFlPic=

>  <r_epik_Ionization_Penalty>  (342) 
0.905759

>  <r_epik_Ionization_Penalty_Charging>  (342) 
0.905758

>  <r_epik_Ionization_Penalty_Neutral>  (342) 
1.09276e-06

>  <r_epik_State_Penalty>  (342) 
0.946104

>  <r_epik_Charging_Adjusted_Penalty>  (342) 
1.85186

>  <i_epik_Tot_Q>  (342) 
-1

>  <i_epik_Tot_abs_Q>  (342) 
3

>  <s_lp_Force_Field>  (342) 
OPLS3e

>  <r_lp_Energy>  (342) 
93.1216

>  <b_lp_Chiralities_Consistent>  (342) 
1

>  <s_lp_Variant>  (342) 
101:0-2

>  <s_i_glide_gridfile>  (342) 
pfpi4k_grid

>  <i_i_glide_lignum>  (342) 
21

>  <i_i_glide_rotatable_bonds>  (342) 
9

>  <r_i_docking_score>  (342) 
-1.41499

>  <r_i_glide_ligand_efficiency>  (342) 
-0.0345119

>  <r_i_glide_ligand_efficiency_sa>  (342) 
-0.119005

>  <r_i_glide_ligand_efficiency_ln>  (342) 
-0.300194

>  <r_i_glide_gscore>  (342) 
-1.41499

>  <r_i_glide_lipo>  (342) 
-0.526605

>  <r_i_glide_hbond>  (342) 
-0.0143175

>  <r_i_glide_metal>  (342) 
-0

>  <r_i_glide_rewards>  (342) 
0

>  <r_i_glide_evdw>  (342) 
-19.0897

>  <r_i_glide_ecoul>  (342) 
-7.14789

>  <r_i_glide_erotb>  (342) 
0.297787

>  <r_i_glide_esite>  (342) 
-0.038953

>  <r_i_glide_emodel>  (342) 
-20.383

>  <r_i_glide_energy>  (342) 
-26.2376

>  <r_i_glide_einternal>  (342) 
9.99782

>  <r_i_glide_intrahb_reward>  (342) 
-0

>  <i_i_glide_confnum>  (342) 
1

>  <i_i_glide_posenum>  (342) 
15

>  <r_i_glide_eff_state_penalty>  (342) 
0

>  <ligand_id>  (342) 
101

>  <original_smiles>  (342) 
CC(CCC(O)C(C)(C)O)C1CCC2C3C(c4ccc(O)c([N+](=O)[O-])c4)CC4C(C)(C)CCCC4(C)C3CCC12C

>  <smiles>  (342) 
[H]OC([H])(C([H])([H])C([H])([H])C([H])(C([H])([H])[H])C1([H])C([H])([H])C([H])([H])C2([H])C3([H])C([H])(c4c([H])c([H])c([O-])c([N+](=O)[O-])c4[H])C([H])([H])C4([H])C(C([H])([H])[H])(C([H])([H])[H])C([H])([H])C([H])([H])C([H])([H])C4(C([H])([H])[H])C3([H])C([H])([H])C([H])([H])C12C([H])([H])[H])C(O[H])(C([H])([H])[H])C([H])([H])[H]

$$$$
101:1:2
     RDKit          3D

 95 99  0  0  1  0  0  0  0  0999 V2000
   -0.8312   -5.4590    6.1269 C   0  0  0  0  0  0  0  0  0  0  0  0
    0.2373   -5.4289    5.0453 C   0  0  2  0  0  0  0  0  0  0  0  0
    0.9932   -6.7705    4.9465 C   0  0  0  0  0  0  0  0  0  0  0  0
    0.1396   -8.0091    4.6579 C   0  0  0  0  0  0  0  0  0  0  0  0
    0.8828   -9.3540    4.8340 C   0  0  2  0  0  0  0  0  0  0  0  0
    1.2868   -9.4629    6.1888 O   0  0  0  0  0  0  0  0  0  0  0  0
    2.0600   -9.6374    3.8437 C   0  0  0  0  0  0  0  0  0  0  0  0
    2.7309  -10.9948    4.1196 C   0  0  0  0  0  0  0  0  0  0  0  0
    1.5964   -9.5743    2.3723 C   0  0  0  0  0  0  0  0  0  0  0  0
    3.0795   -8.6695    4.0011 O   0  0  0  0  0  0  0  0  0  0  0  0
    1.2009   -4.2254    5.2358 C   0  0  2  0  0  0  0  0  0  0  0  0
    0.4466   -2.8731    5.2959 C   0  0  0  0  0  0  0  0  0  0  0  0
    1.1732   -1.9130    4.3743 C   0  0  0  0  0  0  0  0  0  0  0  0
    2.5398   -2.5584    4.1312 C   0  0  2  0  0  0  0  0  0  0  0  0
    3.4413   -2.0888    2.9540 C   0  0  2  0  0  0  0  0  0  0  0  0
    2.7893   -1.1498    1.9233 C   0  0  1  0  0  0  0  0  0  0  0  0
    2.1221    0.0724    2.4998 C   0  0  0  0  0  0  0  0  0  0  0  0
    0.7885    0.3625    2.1733 C   0  0  0  0  0  0  0  0  0  0  0  0
    0.1497    1.4363    2.8187 C   0  0  0  0  0  0  0  0  0  0  0  0
    0.8534    2.2177    3.7535 C   0  0  0  0  0  0  0  0  0  0  0  0
    0.1555    3.2435    4.3180 O   0  0  0  0  0  0  0  0  0  0  0  0
    2.2099    1.9385    4.0738 C   0  0  0  0  0  0  0  0  0  0  0  0
    3.0371    2.7003    5.0362 N   0  0  0  0  0  0  0  0  0  0  0  0
    2.6149    3.7624    5.4859 O   0  0  0  0  0  0  0  0  0  0  0  0
    4.1327    2.2518    5.3449 O   0  0  0  0  0  0  0  0  0  0  0  0
    2.8325    0.8426    3.4237 C   0  0  0  0  0  0  0  0  0  0  0  0
    3.7906   -0.6925    0.8560 C   0  0  0  0  0  0  0  0  0  0  0  0
    4.5798   -1.8375    0.1771 C   0  0  2  0  0  0  0  0  0  0  0  0
    3.7481   -2.6029   -0.9179 C   0  0  0  0  0  0  0  0  0  0  0  0
    2.4598   -3.2828   -0.4532 C   0  0  0  0  0  0  0  0  0  0  0  0
    3.2915   -1.6110   -2.0081 C   0  0  0  0  0  0  0  0  0  0  0  0
    4.6029   -3.6975   -1.5678 C   0  0  0  0  0  0  0  0  0  0  0  0
    5.1932   -4.6480   -0.5181 C   0  0  0  0  0  0  0  0  0  0  0  0
    6.0367   -3.8786    0.5083 C   0  0  0  0  0  0  0  0  0  0  0  0
    5.2637   -2.7459    1.2405 C   0  0  1  0  0  0  0  0  0  0  0  0
    6.2768   -1.9236    2.0164 C   0  0  0  0  0  0  0  0  0  0  0  0
    4.2522   -3.2504    2.2909 C   0  0  1  0  0  0  0  0  0  0  0  0
    4.6989   -4.2905    3.3299 C   0  0  0  0  0  0  0  0  0  0  0  0
    3.5363   -4.8552    4.1741 C   0  0  0  0  0  0  0  0  0  0  0  0
    2.2115   -4.0495    4.0706 C   0  0  1  0  0  0  0  0  0  0  0  0
    1.4350   -4.3833    2.7786 C   0  0  0  0  0  0  0  0  0  0  0  0
   -0.3856   -5.7015    7.0885 H   0  0  0  0  0  0  0  0  0  0  0  0
   -1.5869   -6.1916    5.8625 H   0  0  0  0  0  0  0  0  0  0  0  0
   -1.3637   -4.5155    6.2126 H   0  0  0  0  0  0  0  0  0  0  0  0
   -0.3272   -5.3011    4.1259 H   0  0  0  0  0  0  0  0  0  0  0  0
    1.6484   -6.7542    4.1006 H   0  0  0  0  0  0  0  0  0  0  0  0
    1.6329   -6.9020    5.8188 H   0  0  0  0  0  0  0  0  0  0  0  0
   -0.7077   -8.0098    5.3324 H   0  0  0  0  0  0  0  0  0  0  0  0
   -0.2797   -7.9287    3.6530 H   0  0  0  0  0  0  0  0  0  0  0  0
    0.1344  -10.1328    4.6947 H   0  0  0  0  0  0  0  0  0  0  0  0
    1.4153  -10.3827    6.4025 H   0  0  0  0  0  0  0  0  0  0  0  0
    2.0201  -11.8162    4.0357 H   0  0  0  0  0  0  0  0  0  0  0  0
    3.1689  -11.0351    5.1180 H   0  0  0  0  0  0  0  0  0  0  0  0
    3.5374  -11.1870    3.4100 H   0  0  0  0  0  0  0  0  0  0  0  0
    0.7840  -10.2764    2.1809 H   0  0  0  0  0  0  0  0  0  0  0  0
    2.4080   -9.8244    1.6880 H   0  0  0  0  0  0  0  0  0  0  0  0
    1.2429   -8.5822    2.0898 H   0  0  0  0  0  0  0  0  0  0  0  0
    3.8131   -8.9000    3.4517 H   0  0  0  0  0  0  0  0  0  0  0  0
    1.7443   -4.3443    6.1754 H   0  0  0  0  0  0  0  0  0  0  0  0
   -0.5837   -2.9558    4.9497 H   0  0  0  0  0  0  0  0  0  0  0  0
    0.4300   -2.4763    6.3079 H   0  0  0  0  0  0  0  0  0  0  0  0
    0.6062   -1.8554    3.4445 H   0  0  0  0  0  0  0  0  0  0  0  0
    1.2347   -0.9055    4.7804 H   0  0  0  0  0  0  0  0  0  0  0  0
    3.1272   -2.3722    5.0326 H   0  0  0  0  0  0  0  0  0  0  0  0
    4.1864   -1.4790    3.4656 H   0  0  0  0  0  0  0  0  0  0  0  0
    1.9258   -1.6618    1.5842 H   0  0  0  0  0  0  0  0  0  0  0  0
    0.2232   -0.2590    1.4921 H   0  0  0  0  0  0  0  0  0  0  0  0
   -0.8748    1.6506    2.5780 H   0  0  0  0  0  0  0  0  0  0  0  0
    3.8484    0.5652    3.6580 H   0  0  0  0  0  0  0  0  0  0  0  0
    3.2973   -0.0573    0.1368 H   0  0  0  0  0  0  0  0  0  0  0  0
    4.4890    0.0085    1.3167 H   0  0  0  0  0  0  0  0  0  0  0  0
    5.4002   -1.3512   -0.3633 H   0  0  0  0  0  0  0  0  0  0  0  0
    1.8627   -3.7180   -1.2299 H   0  0  0  0  0  0  0  0  0  0  0  0
    1.7983   -2.6015   -0.0067 H   0  0  0  0  0  0  0  0  0  0  0  0
    2.6408   -4.1268    0.1540 H   0  0  0  0  0  0  0  0  0  0  0  0
    2.6811   -2.1282   -2.7573 H   0  0  0  0  0  0  0  0  0  0  0  0
    4.1261   -1.0903   -2.4901 H   0  0  0  0  0  0  0  0  0  0  0  0
    2.6256   -0.8460   -1.5987 H   0  0  0  0  0  0  0  0  0  0  0  0
    3.9778   -4.2575   -2.2644 H   0  0  0  0  0  0  0  0  0  0  0  0
    5.4002   -3.2522   -2.1647 H   0  0  0  0  0  0  0  0  0  0  0  0
    4.4143   -5.2297   -0.0242 H   0  0  0  0  0  0  0  0  0  0  0  0
    5.8027   -5.3907   -1.0150 H   0  0  0  0  0  0  0  0  0  0  0  0
    6.4959   -4.5767    1.2074 H   0  0  0  0  0  0  0  0  0  0  0  0
    6.8697   -3.4298   -0.0330 H   0  0  0  0  0  0  0  0  0  0  0  0
    6.5825   -2.5398    2.8695 H   0  0  0  0  0  0  0  0  0  0  0  0
    5.8955   -1.0151    2.4627 H   0  0  0  0  0  0  0  0  0  0  0  0
    7.1421   -1.6484    1.4093 H   0  0  0  0  0  0  0  0  0  0  0  0
    3.6975   -3.8992    1.7172 H   0  0  0  0  0  0  0  0  0  0  0  0
    5.1796   -5.1418    2.8367 H   0  0  0  0  0  0  0  0  0  0  0  0
    5.4194   -3.8335    4.0085 H   0  0  0  0  0  0  0  0  0  0  0  0
    3.3960   -5.8685    3.8338 H   0  0  0  0  0  0  0  0  0  0  0  0
    3.8581   -4.9400    5.2113 H   0  0  0  0  0  0  0  0  0  0  0  0
    1.8250   -4.0108    1.8903 H   0  0  0  0  0  0  0  0  0  0  0  0
    0.4980   -3.8569    2.7917 H   0  0  0  0  0  0  0  0  0  0  0  0
    1.2894   -5.4429    2.6068 H   0  0  0  0  0  0  0  0  0  0  0  0
  1  2  1  0
  1 42  1  0
  1 43  1  0
  1 44  1  0
  2  3  1  0
  2 11  1  0
  2 45  1  6
  3  4  1  0
  3 46  1  0
  3 47  1  0
  4  5  1  0
  4 48  1  0
  4 49  1  0
  5  6  1  0
  5  7  1  0
  5 50  1  6
  6 51  1  0
  7  8  1  0
  7  9  1  0
  7 10  1  0
  8 52  1  0
  8 53  1  0
  8 54  1  0
  9 55  1  0
  9 56  1  0
  9 57  1  0
 10 58  1  0
 11 40  1  0
 11 12  1  0
 11 59  1  1
 12 13  1  0
 12 60  1  0
 12 61  1  0
 13 14  1  0
 13 62  1  0
 13 63  1  0
 14 40  1  0
 14 15  1  0
 14 64  1  1
 15 37  1  0
 15 16  1  0
 15 65  1  1
 16 17  1  0
 16 27  1  0
 16 66  1  6
 17 26  1  0
 17 18  2  0
 18 19  1  0
 18 67  1  0
 19 20  2  0
 19 68  1  0
 20 21  1  0
 20 22  1  0
 22 23  1  0
 22 26  2  0
 23 24  2  0
 23 25  1  0
 26 69  1  0
 27 28  1  0
 27 70  1  0
 27 71  1  0
 28 35  1  0
 28 29  1  0
 28 72  1  6
 29 30  1  0
 29 31  1  0
 29 32  1  0
 30 73  1  0
 30 74  1  0
 30 75  1  0
 31 76  1  0
 31 77  1  0
 31 78  1  0
 32 33  1  0
 32 79  1  0
 32 80  1  0
 33 34  1  0
 33 81  1  0
 33 82  1  0
 34 35  1  0
 34 83  1  0
 34 84  1  0
 35 36  1  1
 35 37  1  0
 36 85  1  0
 36 86  1  0
 36 87  1  0
 37 38  1  0
 37 88  1  6
 38 39  1  0
 38 89  1  0
 38 90  1  0
 39 40  1  0
 39 91  1  0
 39 92  1  0
 40 41  1  6
 41 93  1  0
 41 94  1  0
 41 95  1  0
M  CHG  3  21  -1  23   1  25  -1
M  END
>  <i_m_ct_stereo_status>  (343) 
1

>  <s_m_source_file>  (343) 
/var/tmp/pbs.5076255.sched01/tmpt25ahaql/1236iipj8y0.sdf

>  <i_m_source_file_index>  (343) 
21

>  <i_lp_mmshare_version>  (343) 
48012

>  <i_f3d_flags>  (343) 
0

>  <s_epik_input>  (343) 
W0NIM11DKFtDSDNdKShbT0hdKVtDQEBIXShbT0hdKVtDSDJdW0NIMl1bQ0BASF0oW0NIM10pW0NASF0oW0NIMl1bQ0gyXTEpW0NAXShbQ0gzXSkoW0NIMl1bQ0gyXVtDQEBIXTIzKVtDQEhdMVtDQEBIXTJbQ0BASF0oYzRbY0hdW2NIXWMoW09IXSljKFtOK10oPU8pW08tXSlbY0hdNClbQ0gyXVtDQEBIXShbQ0BAXTM1W0NIM10pQyhbQ0gzXSkoW0NIM10pW0NIMl1bQ0gyXVtDSDJdNQ==

>  <s_epik_cmdline>  (343) 
J2VwaWtfcHl0aG9uJywgJy1waHQnLCAnMi4wJywgJy1waCcsICc3LjAnLCAnLXRuJywgJzgnLCAnLW1hJywgJzIwMCcsICctaW1hZScsICc8aW5maWxlLm1hZT4nLCAnLW9tYWUnLCAnPG91dGZpbGUubWFlPic=

>  <r_epik_Ionization_Penalty>  (343) 
0.905759

>  <r_epik_Ionization_Penalty_Charging>  (343) 
0.905758

>  <r_epik_Ionization_Penalty_Neutral>  (343) 
1.09276e-06

>  <r_epik_State_Penalty>  (343) 
0.946104

>  <r_epik_Charging_Adjusted_Penalty>  (343) 
1.85186

>  <i_epik_Tot_Q>  (343) 
-1

>  <i_epik_Tot_abs_Q>  (343) 
3

>  <s_lp_Force_Field>  (343) 
OPLS3e

>  <r_lp_Energy>  (343) 
93.1216

>  <b_lp_Chiralities_Consistent>  (343) 
1

>  <s_lp_Variant>  (343) 
101:0-2

>  <s_i_glide_gridfile>  (343) 
pfpi4k_grid

>  <i_i_glide_lignum>  (343) 
21

>  <i_i_glide_rotatable_bonds>  (343) 
9

>  <r_i_docking_score>  (343) 
-0.618581

>  <r_i_glide_ligand_efficiency>  (343) 
-0.0150873

>  <r_i_glide_ligand_efficiency_sa>  (343) 
-0.0520244

>  <r_i_glide_ligand_efficiency_ln>  (343) 
-0.131234

>  <r_i_glide_gscore>  (343) 
-0.618581

>  <r_i_glide_lipo>  (343) 
-0.425146

>  <r_i_glide_hbond>  (343) 
0

>  <r_i_glide_metal>  (343) 
-0

>  <r_i_glide_rewards>  (343) 
0

>  <r_i_glide_evdw>  (343) 
-22.2624

>  <r_i_glide_ecoul>  (343) 
-2.20822

>  <r_i_glide_erotb>  (343) 
0.297787

>  <r_i_glide_esite>  (343) 
-0.00416084

>  <r_i_glide_emodel>  (343) 
-17.7253

>  <r_i_glide_energy>  (343) 
-24.4706

>  <r_i_glide_einternal>  (343) 
7.0049

>  <r_i_glide_intrahb_reward>  (343) 
-0

>  <i_i_glide_confnum>  (343) 
1

>  <i_i_glide_posenum>  (343) 
27

>  <r_i_glide_eff_state_penalty>  (343) 
0

>  <ligand_id>  (343) 
101

>  <original_smiles>  (343) 
CC(CCC(O)C(C)(C)O)C1CCC2C3C(c4ccc(O)c([N+](=O)[O-])c4)CC4C(C)(C)CCCC4(C)C3CCC12C

>  <smiles>  (343) 
[H]OC([H])(C([H])([H])C([H])([H])C([H])(C([H])([H])[H])C1([H])C([H])([H])C([H])([H])C2([H])C3([H])C([H])(c4c([H])c([H])c([O-])c([N+](=O)[O-])c4[H])C([H])([H])C4([H])C(C([H])([H])[H])(C([H])([H])[H])C([H])([H])C([H])([H])C([H])([H])C4(C([H])([H])[H])C3([H])C([H])([H])C([H])([H])C12C([H])([H])[H])C(O[H])(C([H])([H])[H])C([H])([H])[H]

$$$$
102:0:0
     RDKit          3D

 33 35  0  0  1  0  0  0  0  0999 V2000
    2.2938   -3.5810   -3.6972 C   0  0  0  0  0  0  0  0  0  0  0  0
    2.7794   -2.3137   -3.1262 N   0  0  2  0  0  0  0  0  0  0  0  0
    3.0108   -1.3189   -4.1865 C   0  0  0  0  0  0  0  0  0  0  0  0
    3.8431   -0.2275   -3.5399 C   0  0  0  0  0  0  0  0  0  0  0  0
    4.5358   -0.9051   -2.3717 C   0  0  0  0  0  0  0  0  0  0  0  0
    4.0633   -2.3785   -2.3888 C   0  0  1  0  0  0  0  0  0  0  0  0
    4.0020   -3.0927   -1.0002 C   0  0  2  0  0  0  0  0  0  0  0  0
    3.2108   -2.3265    0.1018 C   0  0  0  0  0  0  0  0  0  0  0  0
    4.2600   -2.1562    1.2189 C   0  0  2  0  0  0  0  0  0  0  0  0
    5.3861   -1.2820    0.6952 C   0  0  0  0  0  0  0  0  0  0  0  0
    6.0928   -2.0056   -0.1661 C   0  0  0  0  0  0  0  0  0  0  0  0
    5.3885   -3.3322   -0.3201 C   0  0  1  0  0  0  0  0  0  0  0  0
    4.9486   -3.5276    1.1354 C   0  0  0  0  0  0  0  0  0  0  0  0
    3.0651   -4.1009   -4.2807 H   0  0  0  0  0  0  0  0  0  0  0  0
    1.4255   -3.4075   -4.3312 H   0  0  0  0  0  0  0  0  0  0  0  0
    1.9660   -4.2243   -2.8785 H   0  0  0  0  0  0  0  0  0  0  0  0
    3.6257   -1.7815   -4.9576 H   0  0  0  0  0  0  0  0  0  0  0  0
    2.1065   -0.9383   -4.6711 H   0  0  0  0  0  0  0  0  0  0  0  0
    4.5641    0.2197   -4.2310 H   0  0  0  0  0  0  0  0  0  0  0  0
    3.1928    0.5428   -3.1524 H   0  0  0  0  0  0  0  0  0  0  0  0
    5.6131   -0.8338   -2.4550 H   0  0  0  0  0  0  0  0  0  0  0  0
    4.2148   -0.3629   -1.4778 H   0  0  0  0  0  0  0  0  0  0  0  0
    4.7541   -2.9520   -3.0116 H   0  0  0  0  0  0  0  0  0  0  0  0
    3.5488   -4.0771   -1.1226 H   0  0  0  0  0  0  0  0  0  0  0  0
    2.7949   -1.3786   -0.2274 H   0  0  0  0  0  0  0  0  0  0  0  0
    2.3696   -2.9304    0.4483 H   0  0  0  0  0  0  0  0  0  0  0  0
    3.8770   -1.8664    2.1974 H   0  0  0  0  0  0  0  0  0  0  0  0
    5.5485   -0.2451    0.9519 H   0  0  0  0  0  0  0  0  0  0  0  0
    6.9459   -1.6974   -0.7553 H   0  0  0  0  0  0  0  0  0  0  0  0
    6.0018   -4.1298   -0.7439 H   0  0  0  0  0  0  0  0  0  0  0  0
    5.8027   -3.6134    1.8132 H   0  0  0  0  0  0  0  0  0  0  0  0
    4.2779   -4.3767    1.2842 H   0  0  0  0  0  0  0  0  0  0  0  0
    2.0932   -1.9387   -2.4771 H   0  0  0  0  0  0  0  0  0  0  0  0
  1  2  1  0
  1 14  1  0
  1 15  1  0
  1 16  1  0
  2  6  1  0
  2  3  1  0
  2 33  1  1
  3  4  1  0
  3 17  1  0
  3 18  1  0
  4  5  1  0
  4 19  1  0
  4 20  1  0
  5  6  1  0
  5 21  1  0
  5 22  1  0
  6  7  1  0
  6 23  1  6
  7 12  1  0
  7  8  1  0
  7 24  1  6
  8  9  1  0
  8 25  1  0
  8 26  1  0
  9 13  1  0
  9 10  1  0
  9 27  1  1
 10 11  2  0
 10 28  1  0
 11 12  1  0
 11 29  1  0
 12 13  1  0
 12 30  1  6
 13 31  1  0
 13 32  1  0
M  CHG  1   2   1
M  END
>  <i_m_ct_stereo_status>  (344) 
1

>  <s_m_source_file>  (344) 
/var/tmp/pbs.5076255.sched01/tmpt25ahaql/1236iipj8y0.sdf

>  <i_m_source_file_index>  (344) 
22

>  <i_lp_mmshare_version>  (344) 
48012

>  <i_f3d_flags>  (344) 
0

>  <s_epik_input>  (344) 
W0NIM11OMVtDSDJdW0NIMl1bQ0gyXVtDQEhdMVtDQEhdKFtDSDJdW0NASF0yMylbQ0BIXShbQ0gyXTMpW0NIXT1bQ0hdMg==

>  <s_epik_cmdline>  (344) 
J2VwaWtfcHl0aG9uJywgJy1waHQnLCAnMi4wJywgJy1waCcsICc3LjAnLCAnLXRuJywgJzgnLCAnLW1hJywgJzIwMCcsICctaW1hZScsICc8aW5maWxlLm1hZT4nLCAnLW9tYWUnLCAnPG91dGZpbGUubWFlPic=

>  <r_epik_Ionization_Penalty>  (344) 
0.000619834

>  <r_epik_Ionization_Penalty_Charging>  (344) 
0.000619834

>  <r_epik_Ionization_Penalty_Neutral>  (344) 
0

>  <r_epik_State_Penalty>  (344) 
0.000391244

>  <r_epik_Charging_Adjusted_Penalty>  (344) 
0.00101108

>  <i_epik_Tot_Q>  (344) 
1

>  <i_epik_Tot_abs_Q>  (344) 
1

>  <s_lp_Force_Field>  (344) 
OPLS3e

>  <r_lp_Energy>  (344) 
34.7531

>  <b_lp_Chiralities_Consistent>  (344) 
1

>  <s_lp_Variant>  (344) 
102:0-1

>  <s_i_glide_gridfile>  (344) 
pfpi4k_grid

>  <i_i_glide_lignum>  (344) 
22

>  <i_i_glide_rotatable_bonds>  (344) 
1

>  <r_i_docking_score>  (344) 
-3.44843

>  <r_i_glide_ligand_efficiency>  (344) 
-0.265264

>  <r_i_glide_ligand_efficiency_sa>  (344) 
-0.623723

>  <r_i_glide_ligand_efficiency_ln>  (344) 
-0.967314

>  <r_i_glide_gscore>  (344) 
-3.44843

>  <r_i_glide_lipo>  (344) 
-0.567143

>  <r_i_glide_hbond>  (344) 
-0.0561657

>  <r_i_glide_metal>  (344) 
-0

>  <r_i_glide_rewards>  (344) 
-2.19345

>  <r_i_glide_evdw>  (344) 
-13.0442

>  <r_i_glide_ecoul>  (344) 
-3.15486

>  <r_i_glide_erotb>  (344) 
0.493771

>  <r_i_glide_esite>  (344) 
0

>  <r_i_glide_emodel>  (344) 
-15.3082

>  <r_i_glide_energy>  (344) 
-16.199

>  <r_i_glide_einternal>  (344) 
8.2475

>  <r_i_glide_intrahb_reward>  (344) 
-0

>  <i_i_glide_confnum>  (344) 
3

>  <i_i_glide_posenum>  (344) 
11

>  <r_i_glide_eff_state_penalty>  (344) 
0

>  <ligand_id>  (344) 
102

>  <original_smiles>  (344) 
CN1CCCC1C1CC2C=CC1C2

>  <smiles>  (344) 
[H]C1=C([H])C2([H])C([H])([H])C1([H])C([H])([H])C2([H])C1([H])C([H])([H])C([H])([H])C([H])([H])[N+]1([H])C([H])([H])[H]

$$$$
102:0:1
     RDKit          3D

 33 35  0  0  1  0  0  0  0  0999 V2000
    6.1958   -3.6971    0.6680 C   0  0  0  0  0  0  0  0  0  0  0  0
    4.7358   -3.9994    0.8550 N   0  0  2  0  0  0  0  0  0  0  0  0
    4.5256   -5.3040    1.5162 C   0  0  0  0  0  0  0  0  0  0  0  0
    3.0356   -5.6063    1.3418 C   0  0  0  0  0  0  0  0  0  0  0  0
    2.5935   -4.7552    0.1332 C   0  0  0  0  0  0  0  0  0  0  0  0
    3.8689   -4.0421   -0.3436 C   0  0  1  0  0  0  0  0  0  0  0  0
    3.5887   -2.6685   -1.0404 C   0  0  2  0  0  0  0  0  0  0  0  0
    2.7635   -2.8220   -2.3666 C   0  0  0  0  0  0  0  0  0  0  0  0
    3.6849   -2.2145   -3.4378 C   0  0  2  0  0  0  0  0  0  0  0  0
    4.9208   -3.0891   -3.5211 C   0  0  0  0  0  0  0  0  0  0  0  0
    5.6395   -2.8802   -2.4143 C   0  0  0  0  0  0  0  0  0  0  0  0
    4.8590   -1.9169   -1.5433 C   0  0  1  0  0  0  0  0  0  0  0  0
    4.2362   -1.0383   -2.6309 C   0  0  0  0  0  0  0  0  0  0  0  0
    6.6276   -4.4071   -0.0366 H   0  0  0  0  0  0  0  0  0  0  0  0
    6.7269   -3.8742    1.6045 H   0  0  0  0  0  0  0  0  0  0  0  0
    6.4035   -2.6926    0.3346 H   0  0  0  0  0  0  0  0  0  0  0  0
    5.0891   -6.0444    0.9596 H   0  0  0  0  0  0  0  0  0  0  0  0
    4.8565   -5.3289    2.5458 H   0  0  0  0  0  0  0  0  0  0  0  0
    2.8620   -6.6758    1.1880 H   0  0  0  0  0  0  0  0  0  0  0  0
    2.4751   -5.3026    2.2341 H   0  0  0  0  0  0  0  0  0  0  0  0
    2.1515   -5.3603   -0.6516 H   0  0  0  0  0  0  0  0  0  0  0  0
    1.8421   -4.0367    0.4531 H   0  0  0  0  0  0  0  0  0  0  0  0
    4.3382   -4.7310   -1.0607 H   0  0  0  0  0  0  0  0  0  0  0  0
    3.0322   -2.0094   -0.3640 H   0  0  0  0  0  0  0  0  0  0  0  0
    2.5179   -3.8492   -2.6181 H   0  0  0  0  0  0  0  0  0  0  0  0
    1.8232   -2.2765   -2.3209 H   0  0  0  0  0  0  0  0  0  0  0  0
    3.2313   -1.9529   -4.3968 H   0  0  0  0  0  0  0  0  0  0  0  0
    5.1437   -3.7834   -4.3194 H   0  0  0  0  0  0  0  0  0  0  0  0
    6.5560   -3.3836   -2.1533 H   0  0  0  0  0  0  0  0  0  0  0  0
    5.4261   -1.3504   -0.8104 H   0  0  0  0  0  0  0  0  0  0  0  0
    4.9803   -0.4567   -3.1723 H   0  0  0  0  0  0  0  0  0  0  0  0
    3.4609   -0.3606   -2.2618 H   0  0  0  0  0  0  0  0  0  0  0  0
    4.3202   -3.2898    1.4747 H   0  0  0  0  0  0  0  0  0  0  0  0
  1  2  1  0
  1 14  1  0
  1 15  1  0
  1 16  1  0
  2  6  1  0
  2  3  1  0
  2 33  1  1
  3  4  1  0
  3 17  1  0
  3 18  1  0
  4  5  1  0
  4 19  1  0
  4 20  1  0
  5  6  1  0
  5 21  1  0
  5 22  1  0
  6  7  1  0
  6 23  1  6
  7 12  1  0
  7  8  1  0
  7 24  1  1
  8  9  1  0
  8 25  1  0
  8 26  1  0
  9 13  1  0
  9 10  1  0
  9 27  1  6
 10 11  2  0
 10 28  1  0
 11 12  1  0
 11 29  1  0
 12 13  1  0
 12 30  1  1
 13 31  1  0
 13 32  1  0
M  CHG  1   2   1
M  END
>  <i_m_ct_stereo_status>  (345) 
1

>  <s_m_source_file>  (345) 
/var/tmp/pbs.5076255.sched01/tmpt25ahaql/1236iipj8y0.sdf

>  <i_m_source_file_index>  (345) 
22

>  <i_lp_mmshare_version>  (345) 
48012

>  <i_f3d_flags>  (345) 
0

>  <s_epik_input>  (345) 
W0NIM11OMVtDSDJdW0NIMl1bQ0gyXVtDQEhdMVtDQEhdKFtDSDJdW0NASF0yMylbQ0BIXShbQ0gyXTMpW0NIXT1bQ0hdMg==

>  <s_epik_cmdline>  (345) 
J2VwaWtfcHl0aG9uJywgJy1waHQnLCAnMi4wJywgJy1waCcsICc3LjAnLCAnLXRuJywgJzgnLCAnLW1hJywgJzIwMCcsICctaW1hZScsICc8aW5maWxlLm1hZT4nLCAnLW9tYWUnLCAnPG91dGZpbGUubWFlPic=

>  <r_epik_Ionization_Penalty>  (345) 
0.000619834

>  <r_epik_Ionization_Penalty_Charging>  (345) 
0.000619834

>  <r_epik_Ionization_Penalty_Neutral>  (345) 
0

>  <r_epik_State_Penalty>  (345) 
0.000391244

>  <r_epik_Charging_Adjusted_Penalty>  (345) 
0.00101108

>  <i_epik_Tot_Q>  (345) 
1

>  <i_epik_Tot_abs_Q>  (345) 
1

>  <s_lp_Force_Field>  (345) 
OPLS3e

>  <r_lp_Energy>  (345) 
34.7531

>  <b_lp_Chiralities_Consistent>  (345) 
1

>  <s_lp_Variant>  (345) 
102:0-1

>  <s_i_glide_gridfile>  (345) 
pfpi4k_grid

>  <i_i_glide_lignum>  (345) 
22

>  <i_i_glide_rotatable_bonds>  (345) 
1

>  <r_i_docking_score>  (345) 
-3.40702

>  <r_i_glide_ligand_efficiency>  (345) 
-0.262078

>  <r_i_glide_ligand_efficiency_sa>  (345) 
-0.616234

>  <r_i_glide_ligand_efficiency_ln>  (345) 
-0.9557

>  <r_i_glide_gscore>  (345) 
-3.40702

>  <r_i_glide_lipo>  (345) 
-0.639037

>  <r_i_glide_hbond>  (345) 
0

>  <r_i_glide_metal>  (345) 
-0

>  <r_i_glide_rewards>  (345) 
-2.19345

>  <r_i_glide_evdw>  (345) 
-14.5095

>  <r_i_glide_ecoul>  (345) 
-2.28552

>  <r_i_glide_erotb>  (345) 
0.493771

>  <r_i_glide_esite>  (345) 
0

>  <r_i_glide_emodel>  (345) 
-20.2657

>  <r_i_glide_energy>  (345) 
-16.795

>  <r_i_glide_einternal>  (345) 
0.216809

>  <r_i_glide_intrahb_reward>  (345) 
-0

>  <i_i_glide_confnum>  (345) 
5

>  <i_i_glide_posenum>  (345) 
23

>  <r_i_glide_eff_state_penalty>  (345) 
0

>  <ligand_id>  (345) 
102

>  <original_smiles>  (345) 
CN1CCCC1C1CC2C=CC1C2

>  <smiles>  (345) 
[H]C1=C([H])C2([H])C([H])([H])C1([H])C([H])([H])C2([H])C1([H])C([H])([H])C([H])([H])C([H])([H])[N+]1([H])C([H])([H])[H]

$$$$
102:0:2
     RDKit          3D

 33 35  0  0  1  0  0  0  0  0999 V2000
    3.9535   -0.9253   -0.1045 C   0  0  0  0  0  0  0  0  0  0  0  0
    4.0370   -1.7633   -1.3164 N   0  0  2  0  0  0  0  0  0  0  0  0
    3.7830   -0.9976   -2.5403 C   0  0  0  0  0  0  0  0  0  0  0  0
    3.6376   -2.0367   -3.6539 C   0  0  0  0  0  0  0  0  0  0  0  0
    3.2561   -3.3379   -2.9267 C   0  0  0  0  0  0  0  0  0  0  0  0
    3.2150   -2.9554   -1.4242 C   0  0  1  0  0  0  0  0  0  0  0  0
    3.5835   -4.1521   -0.5034 C   0  0  2  0  0  0  0  0  0  0  0  0
    3.5437   -3.8545    1.0197 C   0  0  0  0  0  0  0  0  0  0  0  0
    4.9936   -4.1579    1.4686 C   0  0  2  0  0  0  0  0  0  0  0  0
    5.9462   -3.2289    0.7356 C   0  0  0  0  0  0  0  0  0  0  0  0
    5.9940   -3.5951   -0.5291 C   0  0  0  0  0  0  0  0  0  0  0  0
    5.0056   -4.7301   -0.7031 C   0  0  1  0  0  0  0  0  0  0  0  0
    5.2209   -5.4349    0.6516 C   0  0  0  0  0  0  0  0  0  0  0  0
    2.9157   -0.6329    0.1016 H   0  0  0  0  0  0  0  0  0  0  0  0
    4.5193   -0.0126   -0.2340 H   0  0  0  0  0  0  0  0  0  0  0  0
    4.3293   -1.4202    0.7926 H   0  0  0  0  0  0  0  0  0  0  0  0
    2.8184   -0.4889   -2.4184 H   0  0  0  0  0  0  0  0  0  0  0  0
    4.5356   -0.2544   -2.7446 H   0  0  0  0  0  0  0  0  0  0  0  0
    2.8797   -1.7418   -4.3847 H   0  0  0  0  0  0  0  0  0  0  0  0
    4.5861   -2.1665   -4.1851 H   0  0  0  0  0  0  0  0  0  0  0  0
    2.3102   -3.7580   -3.2862 H   0  0  0  0  0  0  0  0  0  0  0  0
    4.0307   -4.0872   -3.1452 H   0  0  0  0  0  0  0  0  0  0  0  0
    2.1679   -2.6794   -1.2074 H   0  0  0  0  0  0  0  0  0  0  0  0
    2.8817   -4.9521   -0.6969 H   0  0  0  0  0  0  0  0  0  0  0  0
    3.1718   -2.8571    1.2643 H   0  0  0  0  0  0  0  0  0  0  0  0
    2.8654   -4.5549    1.5017 H   0  0  0  0  0  0  0  0  0  0  0  0
    5.1638   -4.2463    2.5388 H   0  0  0  0  0  0  0  0  0  0  0  0
    6.4995   -2.4081    1.1934 H   0  0  0  0  0  0  0  0  0  0  0  0
    6.5617   -3.1350   -1.3476 H   0  0  0  0  0  0  0  0  0  0  0  0
    5.1540   -5.3660   -1.5749 H   0  0  0  0  0  0  0  0  0  0  0  0
    6.2301   -5.8485    0.7574 H   0  0  0  0  0  0  0  0  0  0  0  0
    4.4946   -6.2303    0.8423 H   0  0  0  0  0  0  0  0  0  0  0  0
    5.0183   -2.1018   -1.3796 H   0  0  0  0  0  0  0  0  0  0  0  0
  1  2  1  0
  1 14  1  0
  1 15  1  0
  1 16  1  0
  2  6  1  0
  2  3  1  0
  2 33  1  6
  3  4  1  0
  3 17  1  0
  3 18  1  0
  4  5  1  0
  4 19  1  0
  4 20  1  0
  5  6  1  0
  5 21  1  0
  5 22  1  0
  6  7  1  0
  6 23  1  1
  7 12  1  0
  7  8  1  0
  7 24  1  1
  8  9  1  0
  8 25  1  0
  8 26  1  0
  9 13  1  0
  9 10  1  0
  9 27  1  1
 10 11  2  0
 10 28  1  0
 11 12  1  0
 11 29  1  0
 12 13  1  0
 12 30  1  6
 13 31  1  0
 13 32  1  0
M  CHG  1   2   1
M  END
>  <i_m_ct_stereo_status>  (346) 
1

>  <s_m_source_file>  (346) 
/var/tmp/pbs.5076255.sched01/tmpt25ahaql/1236iipj8y0.sdf

>  <i_m_source_file_index>  (346) 
22

>  <i_lp_mmshare_version>  (346) 
48012

>  <i_f3d_flags>  (346) 
0

>  <s_epik_input>  (346) 
W0NIM11OMVtDSDJdW0NIMl1bQ0gyXVtDQEhdMVtDQEhdKFtDSDJdW0NASF0yMylbQ0BIXShbQ0gyXTMpW0NIXT1bQ0hdMg==

>  <s_epik_cmdline>  (346) 
J2VwaWtfcHl0aG9uJywgJy1waHQnLCAnMi4wJywgJy1waCcsICc3LjAnLCAnLXRuJywgJzgnLCAnLW1hJywgJzIwMCcsICctaW1hZScsICc8aW5maWxlLm1hZT4nLCAnLW9tYWUnLCAnPG91dGZpbGUubWFlPic=

>  <r_epik_Ionization_Penalty>  (346) 
0.000619834

>  <r_epik_Ionization_Penalty_Charging>  (346) 
0.000619834

>  <r_epik_Ionization_Penalty_Neutral>  (346) 
0

>  <r_epik_State_Penalty>  (346) 
0.000391244

>  <r_epik_Charging_Adjusted_Penalty>  (346) 
0.00101108

>  <i_epik_Tot_Q>  (346) 
1

>  <i_epik_Tot_abs_Q>  (346) 
1

>  <s_lp_Force_Field>  (346) 
OPLS3e

>  <r_lp_Energy>  (346) 
34.7531

>  <b_lp_Chiralities_Consistent>  (346) 
1

>  <s_lp_Variant>  (346) 
102:0-1

>  <s_i_glide_gridfile>  (346) 
pfpi4k_grid

>  <i_i_glide_lignum>  (346) 
22

>  <i_i_glide_rotatable_bonds>  (346) 
1

>  <r_i_docking_score>  (346) 
-3.38049

>  <r_i_glide_ligand_efficiency>  (346) 
-0.260038

>  <r_i_glide_ligand_efficiency_sa>  (346) 
-0.611436

>  <r_i_glide_ligand_efficiency_ln>  (346) 
-0.948258

>  <r_i_glide_gscore>  (346) 
-3.38049

>  <r_i_glide_lipo>  (346) 
-0.480937

>  <r_i_glide_hbond>  (346) 
0

>  <r_i_glide_metal>  (346) 
-0

>  <r_i_glide_rewards>  (346) 
-2.19345

>  <r_i_glide_evdw>  (346) 
-13.7284

>  <r_i_glide_ecoul>  (346) 
-3.13249

>  <r_i_glide_erotb>  (346) 
0.493771

>  <r_i_glide_esite>  (346) 
-0.0435834

>  <r_i_glide_emodel>  (346) 
-13.7125

>  <r_i_glide_energy>  (346) 
-16.8609

>  <r_i_glide_einternal>  (346) 
11.4188

>  <r_i_glide_intrahb_reward>  (346) 
-0

>  <i_i_glide_confnum>  (346) 
3

>  <i_i_glide_posenum>  (346) 
1

>  <r_i_glide_eff_state_penalty>  (346) 
0

>  <ligand_id>  (346) 
102

>  <original_smiles>  (346) 
CN1CCCC1C1CC2C=CC1C2

>  <smiles>  (346) 
[H]C1=C([H])C2([H])C([H])([H])C1([H])C([H])([H])C2([H])C1([H])C([H])([H])C([H])([H])C([H])([H])[N+]1([H])C([H])([H])[H]

$$$$
103:0:0
     RDKit          3D

 58 63  0  0  1  0  0  0  0  0999 V2000
    2.3704    0.1735    3.0544 C   0  0  0  0  0  0  0  0  0  0  0  0
    2.1754   -0.7728    4.1027 O   0  0  0  0  0  0  0  0  0  0  0  0
    1.0805   -1.6467    3.8646 C   0  0  2  0  0  0  0  0  0  0  0  0
    0.5467   -2.1930    5.2035 C   0  0  0  0  0  0  0  0  0  0  0  0
   -0.1422   -1.5308    5.9787 O   0  0  0  0  0  0  0  0  0  0  0  0
    0.9140   -3.4906    5.3582 O   0  0  0  0  0  0  0  0  0  0  0  0
    1.8608   -3.8632    4.3763 C   0  0  1  0  0  0  0  0  0  0  0  0
    1.9862   -5.2485    3.7173 C   0  0  1  0  0  0  0  0  0  0  0  0
    0.6885   -5.7674    3.4171 O   0  0  0  0  0  0  0  0  0  0  0  0
    0.6935   -7.1608    3.1228 C   0  0  0  0  0  0  0  0  0  0  0  0
    2.7523   -4.9073    2.3892 C   0  0  1  0  0  0  0  0  0  0  0  0
    2.3960   -3.3425    2.1001 C   0  0  1  0  0  0  0  0  0  0  0  0
    1.4207   -3.0012    3.2289 C   0  0  2  0  0  0  0  0  0  0  0  0
    3.7340   -2.5196    2.1088 C   0  0  1  0  0  0  0  0  0  0  0  0
    4.2695   -3.7856    1.9243 C   0  0  2  0  0  0  0  0  0  0  0  0
    4.1963   -4.1982    0.3108 C   0  0  1  0  0  0  0  0  0  0  0  0
    3.3876   -3.4869   -0.8290 C   0  0  0  0  0  0  0  0  0  0  0  0
    4.2451   -2.8980   -1.9519 C   0  0  0  0  0  0  0  0  0  0  0  0
    4.2469   -3.3194   -3.0909 O   0  0  0  0  0  0  0  0  0  0  0  0
    5.1035   -1.7149   -1.5329 C   0  0  0  0  0  0  0  0  0  0  0  0
    4.7899   -1.2679   -0.1020 C   0  0  0  0  0  0  0  0  0  0  0  0
    5.0283   -2.3146    1.0630 C   0  0  1  0  0  0  0  0  0  0  0  0
    6.1540   -1.7337    1.7652 O   0  0  0  0  0  0  0  0  0  0  0  0
    5.9810   -0.5069    2.5044 C   0  0  0  0  0  0  0  0  0  0  0  0
    5.5235   -3.8933    0.6086 C   0  0  1  0  0  0  0  0  0  0  0  0
    5.5496   -5.1091    1.6154 N   0  0  2  0  0  0  0  0  0  0  0  0
    5.9194   -6.4535    1.1334 C   0  0  0  0  0  0  0  0  0  0  0  0
    4.3357   -5.0342    2.5865 C   0  0  2  0  0  0  0  0  0  0  0  0
    3.2465    0.7848    3.2767 H   0  0  0  0  0  0  0  0  0  0  0  0
    1.5172    0.8417    2.9339 H   0  0  0  0  0  0  0  0  0  0  0  0
    2.5340   -0.2971    2.0885 H   0  0  0  0  0  0  0  0  0  0  0  0
    0.2725   -1.1320    3.3513 H   0  0  0  0  0  0  0  0  0  0  0  0
    2.8446   -3.5430    4.7308 H   0  0  0  0  0  0  0  0  0  0  0  0
    2.5301   -5.9258    4.3809 H   0  0  0  0  0  0  0  0  0  0  0  0
   -0.3209   -7.4907    2.8897 H   0  0  0  0  0  0  0  0  0  0  0  0
    1.0456   -7.7371    3.9795 H   0  0  0  0  0  0  0  0  0  0  0  0
    1.3205   -7.3999    2.2643 H   0  0  0  0  0  0  0  0  0  0  0  0
    2.4096   -5.5580    1.5841 H   0  0  0  0  0  0  0  0  0  0  0  0
    1.8200   -3.2236    1.1824 H   0  0  0  0  0  0  0  0  0  0  0  0
    0.4664   -3.3724    2.8818 H   0  0  0  0  0  0  0  0  0  0  0  0
    3.8880   -2.1701    3.1386 H   0  0  0  0  0  0  0  0  0  0  0  0
    5.0666   -3.4906    2.7155 H   0  0  0  0  0  0  0  0  0  0  0  0
    3.9847   -5.2478    0.0710 H   0  0  0  0  0  0  0  0  0  0  0  0
    2.7316   -4.2288   -1.2921 H   0  0  0  0  0  0  0  0  0  0  0  0
    2.7297   -2.6962   -0.4839 H   0  0  0  0  0  0  0  0  0  0  0  0
    6.1612   -1.9608   -1.6537 H   0  0  0  0  0  0  0  0  0  0  0  0
    4.8802   -0.8880   -2.2126 H   0  0  0  0  0  0  0  0  0  0  0  0
    5.4335   -0.4011   -0.0322 H   0  0  0  0  0  0  0  0  0  0  0  0
    3.7662   -0.8891   -0.0435 H   0  0  0  0  0  0  0  0  0  0  0  0
    6.8803   -0.2915    3.0901 H   0  0  0  0  0  0  0  0  0  0  0  0
    5.1668   -0.5262    3.2193 H   0  0  0  0  0  0  0  0  0  0  0  0
    5.8048    0.3508    1.8543 H   0  0  0  0  0  0  0  0  0  0  0  0
    6.2303   -3.9676   -0.2220 H   0  0  0  0  0  0  0  0  0  0  0  0
    5.1169   -6.9568    0.5796 H   0  0  0  0  0  0  0  0  0  0  0  0
    6.1632   -7.0992    1.9851 H   0  0  0  0  0  0  0  0  0  0  0  0
    6.8070   -6.4052    0.4935 H   0  0  0  0  0  0  0  0  0  0  0  0
    4.6227   -5.0268    3.6468 H   0  0  0  0  0  0  0  0  0  0  0  0
    6.3395   -4.8727    2.2195 H   0  0  0  0  0  0  0  0  0  0  0  0
  1  2  1  0
  1 29  1  0
  1 30  1  0
  1 31  1  0
  2  3  1  0
  3 13  1  0
  3  4  1  0
  3 32  1  6
  4  5  2  0
  4  6  1  0
  6  7  1  0
  7 13  1  0
  7  8  1  0
  7 33  1  1
  8  9  1  0
  8 11  1  0
  8 34  1  1
  9 10  1  0
 10 35  1  0
 10 36  1  0
 10 37  1  0
 11 28  1  0
 11 12  1  0
 11 38  1  6
 12 13  1  0
 12 14  1  0
 12 39  1  6
 13 40  1  6
 14 22  1  0
 14 15  1  0
 14 41  1  1
 15 28  1  0
 15 16  1  0
 15 42  1  6
 16 25  1  0
 16 17  1  0
 16 43  1  1
 17 18  1  0
 17 44  1  0
 17 45  1  0
 18 19  2  0
 18 20  1  0
 20 21  1  0
 20 46  1  0
 20 47  1  0
 21 22  1  0
 21 48  1  0
 21 49  1  0
 22 23  1  1
 22 25  1  0
 23 24  1  0
 24 50  1  0
 24 51  1  0
 24 52  1  0
 25 26  1  0
 25 53  1  6
 26 27  1  0
 26 28  1  0
 26 58  1  1
 27 54  1  0
 27 55  1  0
 27 56  1  0
 28 57  1  1
M  CHG  1  26   1
M  END
>  <i_m_ct_stereo_status>  (347) 
1

>  <s_m_source_file>  (347) 
/var/tmp/pbs.5076255.sched01/tmpt25ahaql/1236iipj8y0.sdf

>  <i_m_source_file_index>  (347) 
23

>  <i_lp_mmshare_version>  (347) 
48012

>  <i_f3d_flags>  (347) 
0

>  <s_epik_input>  (347) 
W0NIM11PW0NASF0oQyg9TylPMSlbQ0BASF0yW0NAQEhdMVtDQEBIXShPW0NIM10pW0NAQEhdKFtDQEBIXTJbQ0BASF0zW0NAXTQ1T1tDSDNdKVtDQEhdNltDQEhdM1tDQEhdKFtDQEBIXTVONltDSDNdKVtDSDJdQyg9TylbQ0gyXVtDSDJdNA==

>  <s_epik_cmdline>  (347) 
J2VwaWtfcHl0aG9uJywgJy1waHQnLCAnMi4wJywgJy1waCcsICc3LjAnLCAnLXRuJywgJzgnLCAnLW1hJywgJzIwMCcsICctaW1hZScsICc8aW5maWxlLm1hZT4nLCAnLW9tYWUnLCAnPG91dGZpbGUubWFlPic=

>  <r_lp_tautomer_probability>  (347) 
1

>  <r_epik_Ionization_Penalty>  (347) 
0.0476718

>  <r_epik_Ionization_Penalty_Charging>  (347) 
0.0476718

>  <r_epik_Ionization_Penalty_Neutral>  (347) 
2.70997e-12

>  <r_epik_State_Penalty>  (347) 
0.0406114

>  <r_epik_Charging_Adjusted_Penalty>  (347) 
0.0882832

>  <i_epik_Tot_Q>  (347) 
1

>  <i_epik_Tot_abs_Q>  (347) 
1

>  <s_epik_Chemistry_Notes>  (347) 
This compound has an ester and may undergo hydrolysis at high or low pH.

>  <s_lp_Force_Field>  (347) 
OPLS3e

>  <r_lp_Energy>  (347) 
359.205

>  <b_lp_Chiralities_Consistent>  (347) 
1

>  <s_lp_Variant>  (347) 
103:0-1

>  <s_i_glide_gridfile>  (347) 
pfpi4k_grid

>  <i_i_glide_lignum>  (347) 
23

>  <i_i_glide_rotatable_bonds>  (347) 
3

>  <r_i_docking_score>  (347) 
-2.87029

>  <r_i_glide_ligand_efficiency>  (347) 
-0.10251

>  <r_i_glide_ligand_efficiency_sa>  (347) 
-0.311282

>  <r_i_glide_ligand_efficiency_ln>  (347) 
-0.662547

>  <r_i_glide_gscore>  (347) 
-2.87029

>  <r_i_glide_lipo>  (347) 
-0.319978

>  <r_i_glide_hbond>  (347) 
-0.000314448

>  <r_i_glide_metal>  (347) 
-0

>  <r_i_glide_rewards>  (347) 
-0.733186

>  <r_i_glide_evdw>  (347) 
-20.9303

>  <r_i_glide_ecoul>  (347) 
-5.03641

>  <r_i_glide_erotb>  (347) 
0

>  <r_i_glide_esite>  (347) 
-0.0148334

>  <r_i_glide_emodel>  (347) 
-26.4294

>  <r_i_glide_energy>  (347) 
-25.9667

>  <r_i_glide_einternal>  (347) 
7.48395

>  <r_i_glide_intrahb_reward>  (347) 
-0

>  <i_i_glide_confnum>  (347) 
2

>  <i_i_glide_posenum>  (347) 
21

>  <r_i_glide_eff_state_penalty>  (347) 
0

>  <ligand_id>  (347) 
103

>  <original_smiles>  (347) 
COC1C(=O)OC2C(OC)C3C(C12)C1C2C4CC(=O)CCC1(OC)C4N(C)C32

>  <smiles>  (347) 
[H]C([H])([H])OC1([H])C(=O)OC2([H])C([H])(OC([H])([H])[H])C3([H])C([H])(C12[H])C1([H])C2([H])C4([H])C([H])([H])C(=O)C([H])([H])C([H])([H])C1(OC([H])([H])[H])C4([H])[N+]([H])(C([H])([H])[H])C32[H]

$$$$
103:0:1
     RDKit          3D

 58 63  0  0  1  0  0  0  0  0999 V2000
    0.5832   -3.2581    4.4180 C   0  0  0  0  0  0  0  0  0  0  0  0
    1.6997   -3.9634    3.8869 O   0  0  0  0  0  0  0  0  0  0  0  0
    1.3654   -5.2101    3.2873 C   0  0  2  0  0  0  0  0  0  0  0  0
    1.2131   -6.3047    4.3604 C   0  0  0  0  0  0  0  0  0  0  0  0
    0.2285   -6.4198    5.0819 O   0  0  0  0  0  0  0  0  0  0  0  0
    2.3116   -7.1061    4.3550 O   0  0  0  0  0  0  0  0  0  0  0  0
    3.3161   -6.5664    3.5170 C   0  0  1  0  0  0  0  0  0  0  0  0
    4.3013   -7.3673    2.6448 C   0  0  1  0  0  0  0  0  0  0  0  0
    3.6564   -8.4254    1.9356 O   0  0  0  0  0  0  0  0  0  0  0  0
    3.5191   -9.6319    2.6751 C   0  0  0  0  0  0  0  0  0  0  0  0
    4.7475   -6.2861    1.6036 C   0  0  1  0  0  0  0  0  0  0  0  0
    3.5196   -5.2117    1.5443 C   0  0  1  0  0  0  0  0  0  0  0  0
    2.4903   -5.8545    2.4883 C   0  0  2  0  0  0  0  0  0  0  0  0
    4.0496   -3.7628    1.9284 C   0  0  1  0  0  0  0  0  0  0  0  0
    5.2630   -4.4049    1.6568 C   0  0  2  0  0  0  0  0  0  0  0  0
    5.5467   -4.3411    0.0240 C   0  0  1  0  0  0  0  0  0  0  0  0
    4.5384   -3.9495   -1.1110 C   0  0  0  0  0  0  0  0  0  0  0  0
    4.8806   -2.6799   -1.8792 C   0  0  0  0  0  0  0  0  0  0  0  0
    5.1994   -2.7025   -3.0654 O   0  0  0  0  0  0  0  0  0  0  0  0
    4.7979   -1.3837   -1.0884 C   0  0  0  0  0  0  0  0  0  0  0  0
    4.2127   -1.6450    0.3140 C   0  0  0  0  0  0  0  0  0  0  0  0
    5.0457   -2.6193    1.2247 C   0  0  1  0  0  0  0  0  0  0  0  0
    5.4699   -1.7471    2.2847 O   0  0  0  0  0  0  0  0  0  0  0  0
    6.4016   -0.7127    1.9862 C   0  0  0  0  0  0  0  0  0  0  0  0
    6.4113   -3.4248    0.6065 C   0  0  1  0  0  0  0  0  0  0  0  0
    7.1140   -4.6103    1.3772 N   0  0  2  0  0  0  0  0  0  0  0  0
    8.2666   -5.3025    0.7387 C   0  0  0  0  0  0  0  0  0  0  0  0
    6.0502   -5.5114    2.0825 C   0  0  2  0  0  0  0  0  0  0  0  0
    0.9072   -2.2993    4.8241 H   0  0  0  0  0  0  0  0  0  0  0  0
    0.0794   -3.8004    5.2183 H   0  0  0  0  0  0  0  0  0  0  0  0
   -0.1562   -3.0423    3.6486 H   0  0  0  0  0  0  0  0  0  0  0  0
    0.4637   -5.1358    2.6818 H   0  0  0  0  0  0  0  0  0  0  0  0
    3.8774   -5.8376    4.1044 H   0  0  0  0  0  0  0  0  0  0  0  0
    5.1456   -7.7504    3.2191 H   0  0  0  0  0  0  0  0  0  0  0  0
    3.0110  -10.3828    2.0698 H   0  0  0  0  0  0  0  0  0  0  0  0
    2.9335   -9.4982    3.5843 H   0  0  0  0  0  0  0  0  0  0  0  0
    4.4914  -10.0397    2.9517 H   0  0  0  0  0  0  0  0  0  0  0  0
    4.9114   -6.7823    0.6474 H   0  0  0  0  0  0  0  0  0  0  0  0
    3.0459   -5.2265    0.5639 H   0  0  0  0  0  0  0  0  0  0  0  0
    1.9925   -6.6059    1.8700 H   0  0  0  0  0  0  0  0  0  0  0  0
    3.8738   -3.5365    2.9862 H   0  0  0  0  0  0  0  0  0  0  0  0
    5.6586   -3.9520    2.6431 H   0  0  0  0  0  0  0  0  0  0  0  0
    6.0111   -5.2202   -0.4300 H   0  0  0  0  0  0  0  0  0  0  0  0
    4.5535   -4.7560   -1.8399 H   0  0  0  0  0  0  0  0  0  0  0  0
    3.5074   -3.8516   -0.7775 H   0  0  0  0  0  0  0  0  0  0  0  0
    5.7885   -0.9235   -1.0373 H   0  0  0  0  0  0  0  0  0  0  0  0
    4.1455   -0.6979   -1.6342 H   0  0  0  0  0  0  0  0  0  0  0  0
    4.0503   -0.6815    0.7954 H   0  0  0  0  0  0  0  0  0  0  0  0
    3.1904   -2.0166    0.2158 H   0  0  0  0  0  0  0  0  0  0  0  0
    6.5254   -0.1251    2.8975 H   0  0  0  0  0  0  0  0  0  0  0  0
    6.0723   -0.0241    1.2075 H   0  0  0  0  0  0  0  0  0  0  0  0
    7.3806   -1.0803    1.6789 H   0  0  0  0  0  0  0  0  0  0  0  0
    7.0570   -2.8638   -0.0688 H   0  0  0  0  0  0  0  0  0  0  0  0
    7.9756   -6.0145   -0.0328 H   0  0  0  0  0  0  0  0  0  0  0  0
    8.8208   -5.8694    1.4887 H   0  0  0  0  0  0  0  0  0  0  0  0
    8.9490   -4.5697    0.3024 H   0  0  0  0  0  0  0  0  0  0  0  0
    6.2427   -5.6346    3.1518 H   0  0  0  0  0  0  0  0  0  0  0  0
    7.5595   -4.1338    2.1504 H   0  0  0  0  0  0  0  0  0  0  0  0
  1  2  1  0
  1 29  1  0
  1 30  1  0
  1 31  1  0
  2  3  1  0
  3 13  1  0
  3  4  1  0
  3 32  1  6
  4  5  2  0
  4  6  1  0
  6  7  1  0
  7 13  1  0
  7  8  1  0
  7 33  1  1
  8  9  1  0
  8 11  1  0
  8 34  1  1
  9 10  1  0
 10 35  1  0
 10 36  1  0
 10 37  1  0
 11 28  1  0
 11 12  1  0
 11 38  1  6
 12 13  1  0
 12 14  1  0
 12 39  1  6
 13 40  1  6
 14 22  1  0
 14 15  1  0
 14 41  1  1
 15 28  1  0
 15 16  1  0
 15 42  1  1
 16 25  1  0
 16 17  1  0
 16 43  1  6
 17 18  1  0
 17 44  1  0
 17 45  1  0
 18 19  2  0
 18 20  1  0
 20 21  1  0
 20 46  1  0
 20 47  1  0
 21 22  1  0
 21 48  1  0
 21 49  1  0
 22 23  1  1
 22 25  1  0
 23 24  1  0
 24 50  1  0
 24 51  1  0
 24 52  1  0
 25 26  1  0
 25 53  1  6
 26 27  1  0
 26 28  1  0
 26 58  1  1
 27 54  1  0
 27 55  1  0
 27 56  1  0
 28 57  1  1
M  CHG  1  26   1
M  END
>  <i_m_ct_stereo_status>  (348) 
1

>  <s_m_source_file>  (348) 
/var/tmp/pbs.5076255.sched01/tmpt25ahaql/1236iipj8y0.sdf

>  <i_m_source_file_index>  (348) 
23

>  <i_lp_mmshare_version>  (348) 
48012

>  <i_f3d_flags>  (348) 
0

>  <s_epik_input>  (348) 
W0NIM11PW0NASF0oQyg9TylPMSlbQ0BASF0yW0NAQEhdMVtDQEBIXShPW0NIM10pW0NAQEhdKFtDQEBIXTJbQ0BASF0zW0NAXTQ1T1tDSDNdKVtDQEhdNltDQEhdM1tDQEhdKFtDQEBIXTVONltDSDNdKVtDSDJdQyg9TylbQ0gyXVtDSDJdNA==

>  <s_epik_cmdline>  (348) 
J2VwaWtfcHl0aG9uJywgJy1waHQnLCAnMi4wJywgJy1waCcsICc3LjAnLCAnLXRuJywgJzgnLCAnLW1hJywgJzIwMCcsICctaW1hZScsICc8aW5maWxlLm1hZT4nLCAnLW9tYWUnLCAnPG91dGZpbGUubWFlPic=

>  <r_lp_tautomer_probability>  (348) 
1

>  <r_epik_Ionization_Penalty>  (348) 
0.0476718

>  <r_epik_Ionization_Penalty_Charging>  (348) 
0.0476718

>  <r_epik_Ionization_Penalty_Neutral>  (348) 
2.70997e-12

>  <r_epik_State_Penalty>  (348) 
0.0406114

>  <r_epik_Charging_Adjusted_Penalty>  (348) 
0.0882832

>  <i_epik_Tot_Q>  (348) 
1

>  <i_epik_Tot_abs_Q>  (348) 
1

>  <s_epik_Chemistry_Notes>  (348) 
This compound has an ester and may undergo hydrolysis at high or low pH.

>  <s_lp_Force_Field>  (348) 
OPLS3e

>  <r_lp_Energy>  (348) 
359.205

>  <b_lp_Chiralities_Consistent>  (348) 
1

>  <s_lp_Variant>  (348) 
103:0-1

>  <s_i_glide_gridfile>  (348) 
pfpi4k_grid

>  <i_i_glide_lignum>  (348) 
23

>  <i_i_glide_rotatable_bonds>  (348) 
3

>  <r_i_docking_score>  (348) 
-2.80484

>  <r_i_glide_ligand_efficiency>  (348) 
-0.100173

>  <r_i_glide_ligand_efficiency_sa>  (348) 
-0.304184

>  <r_i_glide_ligand_efficiency_ln>  (348) 
-0.647439

>  <r_i_glide_gscore>  (348) 
-2.80484

>  <r_i_glide_lipo>  (348) 
-0.472815

>  <r_i_glide_hbond>  (348) 
0

>  <r_i_glide_metal>  (348) 
-0

>  <r_i_glide_rewards>  (348) 
-0.754703

>  <r_i_glide_evdw>  (348) 
-21.0232

>  <r_i_glide_ecoul>  (348) 
-3.46366

>  <r_i_glide_erotb>  (348) 
0

>  <r_i_glide_esite>  (348) 
-0.00660978

>  <r_i_glide_emodel>  (348) 
-28.8076

>  <r_i_glide_energy>  (348) 
-24.4869

>  <r_i_glide_einternal>  (348) 
0.718588

>  <r_i_glide_intrahb_reward>  (348) 
-0

>  <i_i_glide_confnum>  (348) 
1

>  <i_i_glide_posenum>  (348) 
11

>  <r_i_glide_eff_state_penalty>  (348) 
0

>  <ligand_id>  (348) 
103

>  <original_smiles>  (348) 
COC1C(=O)OC2C(OC)C3C(C12)C1C2C4CC(=O)CCC1(OC)C4N(C)C32

>  <smiles>  (348) 
[H]C([H])([H])OC1([H])C(=O)OC2([H])C([H])(OC([H])([H])[H])C3([H])C([H])(C12[H])C1([H])C2([H])C4([H])C([H])([H])C(=O)C([H])([H])C([H])([H])C1(OC([H])([H])[H])C4([H])[N+]([H])(C([H])([H])[H])C32[H]

$$$$
103:0:2
     RDKit          3D

 58 63  0  0  1  0  0  0  0  0999 V2000
    4.5595   -3.8577   -2.4836 C   0  0  0  0  0  0  0  0  0  0  0  0
    4.4466   -3.5879   -1.0861 O   0  0  0  0  0  0  0  0  0  0  0  0
    3.7616   -2.3755   -0.7744 C   0  0  2  0  0  0  0  0  0  0  0  0
    4.6791   -1.1608   -1.0453 C   0  0  0  0  0  0  0  0  0  0  0  0
    4.9361   -0.7307   -2.1634 O   0  0  0  0  0  0  0  0  0  0  0  0
    5.1628   -0.6795    0.1283 O   0  0  0  0  0  0  0  0  0  0  0  0
    4.8428   -1.5510    1.1912 C   0  0  1  0  0  0  0  0  0  0  0  0
    4.5271   -1.1226    2.6331 C   0  0  1  0  0  0  0  0  0  0  0  0
    3.6787    0.0206    2.6209 O   0  0  0  0  0  0  0  0  0  0  0  0
    3.5852    0.6791    3.8760 C   0  0  0  0  0  0  0  0  0  0  0  0
    3.7488   -2.3745    3.1692 C   0  0  1  0  0  0  0  0  0  0  0  0
    3.1175   -3.0817    1.8408 C   0  0  1  0  0  0  0  0  0  0  0  0
    3.5355   -2.1175    0.7178 C   0  0  2  0  0  0  0  0  0  0  0  0
    3.6820   -4.5505    1.7228 C   0  0  1  0  0  0  0  0  0  0  0  0
    3.9951   -4.3037    3.0666 C   0  0  2  0  0  0  0  0  0  0  0  0
    2.6518   -4.6109    3.9999 C   0  0  1  0  0  0  0  0  0  0  0  0
    1.1753   -4.8262    3.5198 C   0  0  0  0  0  0  0  0  0  0  0  0
    0.6034   -6.2032    3.8195 C   0  0  0  0  0  0  0  0  0  0  0  0
   -0.3472   -6.3602    4.5831 O   0  0  0  0  0  0  0  0  0  0  0  0
    1.2383   -7.3552    3.0621 C   0  0  0  0  0  0  0  0  0  0  0  0
    2.2426   -6.8525    2.0131 C   0  0  0  0  0  0  0  0  0  0  0  0
    3.4679   -6.0025    2.5311 C   0  0  1  0  0  0  0  0  0  0  0  0
    4.5836   -6.8829    2.2580 O   0  0  0  0  0  0  0  0  0  0  0  0
    4.9422   -7.1970    0.8987 C   0  0  0  0  0  0  0  0  0  0  0  0
    3.5408   -5.6597    4.2108 C   0  0  1  0  0  0  0  0  0  0  0  0
    4.5629   -4.6244    4.8321 N   0  0  2  0  0  0  0  0  0  0  0  0
    4.4954   -4.3160    6.2864 C   0  0  0  0  0  0  0  0  0  0  0  0
    4.7425   -3.4060    3.8736 C   0  0  2  0  0  0  0  0  0  0  0  0
    5.0091   -4.8347   -2.6386 H   0  0  0  0  0  0  0  0  0  0  0  0
    5.2011   -3.1399   -3.0000 H   0  0  0  0  0  0  0  0  0  0  0  0
    3.5809   -3.8556   -2.9705 H   0  0  0  0  0  0  0  0  0  0  0  0
    2.8247   -2.3013   -1.3281 H   0  0  0  0  0  0  0  0  0  0  0  0
    5.6076   -2.3324    1.2130 H   0  0  0  0  0  0  0  0  0  0  0  0
    5.4523   -0.9096    3.1757 H   0  0  0  0  0  0  0  0  0  0  0  0
    2.8989    1.5229    3.7958 H   0  0  0  0  0  0  0  0  0  0  0  0
    4.5570    1.0664    4.1877 H   0  0  0  0  0  0  0  0  0  0  0  0
    3.2074    0.0233    4.6619 H   0  0  0  0  0  0  0  0  0  0  0  0
    2.9679   -2.0500    3.8543 H   0  0  0  0  0  0  0  0  0  0  0  0
    2.0281   -3.0423    1.8586 H   0  0  0  0  0  0  0  0  0  0  0  0
    2.7816   -1.3261    0.7448 H   0  0  0  0  0  0  0  0  0  0  0  0
    4.5614   -4.5268    1.0811 H   0  0  0  0  0  0  0  0  0  0  0  0
    5.0438   -4.7520    2.8590 H   0  0  0  0  0  0  0  0  0  0  0  0
    2.4674   -3.9497    4.8553 H   0  0  0  0  0  0  0  0  0  0  0  0
    0.5371   -4.0946    4.0191 H   0  0  0  0  0  0  0  0  0  0  0  0
    1.0387   -4.6534    2.4590 H   0  0  0  0  0  0  0  0  0  0  0  0
    1.7113   -8.0517    3.7582 H   0  0  0  0  0  0  0  0  0  0  0  0
    0.4453   -7.9080    2.5511 H   0  0  0  0  0  0  0  0  0  0  0  0
    2.5409   -7.7775    1.5393 H   0  0  0  0  0  0  0  0  0  0  0  0
    1.7263   -6.2879    1.2355 H   0  0  0  0  0  0  0  0  0  0  0  0
    5.8972   -7.7242    0.9182 H   0  0  0  0  0  0  0  0  0  0  0  0
    5.0767   -6.3308    0.2542 H   0  0  0  0  0  0  0  0  0  0  0  0
    4.2369   -7.8638    0.4005 H   0  0  0  0  0  0  0  0  0  0  0  0
    3.2076   -6.4388    4.8994 H   0  0  0  0  0  0  0  0  0  0  0  0
    3.6747   -3.6481    6.5620 H   0  0  0  0  0  0  0  0  0  0  0  0
    5.4175   -3.8209    6.6035 H   0  0  0  0  0  0  0  0  0  0  0  0
    4.3991   -5.2305    6.8770 H   0  0  0  0  0  0  0  0  0  0  0  0
    5.7913   -3.2201    3.6169 H   0  0  0  0  0  0  0  0  0  0  0  0
    5.4433   -5.1218    4.7602 H   0  0  0  0  0  0  0  0  0  0  0  0
  1  2  1  0
  1 29  1  0
  1 30  1  0
  1 31  1  0
  2  3  1  0
  3 13  1  0
  3  4  1  0
  3 32  1  6
  4  5  2  0
  4  6  1  0
  6  7  1  0
  7 13  1  0
  7  8  1  0
  7 33  1  1
  8  9  1  0
  8 11  1  0
  8 34  1  1
  9 10  1  0
 10 35  1  0
 10 36  1  0
 10 37  1  0
 11 28  1  0
 11 12  1  0
 11 38  1  1
 12 13  1  0
 12 14  1  0
 12 39  1  1
 13 40  1  6
 14 22  1  0
 14 15  1  0
 14 41  1  6
 15 28  1  0
 15 16  1  0
 15 42  1  1
 16 25  1  0
 16 17  1  0
 16 43  1  1
 17 18  1  0
 17 44  1  0
 17 45  1  0
 18 19  2  0
 18 20  1  0
 20 21  1  0
 20 46  1  0
 20 47  1  0
 21 22  1  0
 21 48  1  0
 21 49  1  0
 22 23  1  6
 22 25  1  0
 23 24  1  0
 24 50  1  0
 24 51  1  0
 24 52  1  0
 25 26  1  0
 25 53  1  1
 26 27  1  0
 26 28  1  0
 26 58  1  1
 27 54  1  0
 27 55  1  0
 27 56  1  0
 28 57  1  6
M  CHG  1  26   1
M  END
>  <i_m_ct_stereo_status>  (349) 
1

>  <s_m_source_file>  (349) 
/var/tmp/pbs.5076255.sched01/tmpt25ahaql/1236iipj8y0.sdf

>  <i_m_source_file_index>  (349) 
23

>  <i_lp_mmshare_version>  (349) 
48012

>  <i_f3d_flags>  (349) 
0

>  <s_epik_input>  (349) 
W0NIM11PW0NASF0oQyg9TylPMSlbQ0BASF0yW0NAQEhdMVtDQEBIXShPW0NIM10pW0NAQEhdKFtDQEBIXTJbQ0BASF0zW0NAXTQ1T1tDSDNdKVtDQEhdNltDQEhdM1tDQEhdKFtDQEBIXTVONltDSDNdKVtDSDJdQyg9TylbQ0gyXVtDSDJdNA==

>  <s_epik_cmdline>  (349) 
J2VwaWtfcHl0aG9uJywgJy1waHQnLCAnMi4wJywgJy1waCcsICc3LjAnLCAnLXRuJywgJzgnLCAnLW1hJywgJzIwMCcsICctaW1hZScsICc8aW5maWxlLm1hZT4nLCAnLW9tYWUnLCAnPG91dGZpbGUubWFlPic=

>  <r_lp_tautomer_probability>  (349) 
1

>  <r_epik_Ionization_Penalty>  (349) 
0.0476718

>  <r_epik_Ionization_Penalty_Charging>  (349) 
0.0476718

>  <r_epik_Ionization_Penalty_Neutral>  (349) 
2.70997e-12

>  <r_epik_State_Penalty>  (349) 
0.0406114

>  <r_epik_Charging_Adjusted_Penalty>  (349) 
0.0882832

>  <i_epik_Tot_Q>  (349) 
1

>  <i_epik_Tot_abs_Q>  (349) 
1

>  <s_epik_Chemistry_Notes>  (349) 
This compound has an ester and may undergo hydrolysis at high or low pH.

>  <s_lp_Force_Field>  (349) 
OPLS3e

>  <r_lp_Energy>  (349) 
359.205

>  <b_lp_Chiralities_Consistent>  (349) 
1

>  <s_lp_Variant>  (349) 
103:0-1

>  <s_i_glide_gridfile>  (349) 
pfpi4k_grid

>  <i_i_glide_lignum>  (349) 
23

>  <i_i_glide_rotatable_bonds>  (349) 
3

>  <r_i_docking_score>  (349) 
-2.4776

>  <r_i_glide_ligand_efficiency>  (349) 
-0.0884857

>  <r_i_glide_ligand_efficiency_sa>  (349) 
-0.268695

>  <r_i_glide_ligand_efficiency_ln>  (349) 
-0.571903

>  <r_i_glide_gscore>  (349) 
-2.4776

>  <r_i_glide_lipo>  (349) 
-0.208006

>  <r_i_glide_hbond>  (349) 
0

>  <r_i_glide_metal>  (349) 
-0

>  <r_i_glide_rewards>  (349) 
-0.733186

>  <r_i_glide_evdw>  (349) 
-21.7832

>  <r_i_glide_ecoul>  (349) 
-2.48423

>  <r_i_glide_erotb>  (349) 
0

>  <r_i_glide_esite>  (349) 
-0.0746129

>  <r_i_glide_emodel>  (349) 
-24.169

>  <r_i_glide_energy>  (349) 
-24.2674

>  <r_i_glide_einternal>  (349) 
7.94113

>  <r_i_glide_intrahb_reward>  (349) 
-0

>  <i_i_glide_confnum>  (349) 
1

>  <i_i_glide_posenum>  (349) 
4

>  <r_i_glide_eff_state_penalty>  (349) 
0

>  <ligand_id>  (349) 
103

>  <original_smiles>  (349) 
COC1C(=O)OC2C(OC)C3C(C12)C1C2C4CC(=O)CCC1(OC)C4N(C)C32

>  <smiles>  (349) 
[H]C([H])([H])OC1([H])C(=O)OC2([H])C([H])(OC([H])([H])[H])C3([H])C([H])(C12[H])C1([H])C2([H])C4([H])C([H])([H])C(=O)C([H])([H])C([H])([H])C1(OC([H])([H])[H])C4([H])[N+]([H])(C([H])([H])[H])C32[H]

$$$$
103:1:0
     RDKit          3D

 57 62  0  0  1  0  0  0  0  0999 V2000
    1.8227   -2.3391    2.4469 C   0  0  0  0  0  0  0  0  0  0  0  0
    2.4773   -3.3890    3.1466 O   0  0  0  0  0  0  0  0  0  0  0  0
    2.1780   -4.6840    2.6331 C   0  0  2  0  0  0  0  0  0  0  0  0
    2.3935   -5.7156    3.7354 C   0  0  0  0  0  0  0  0  0  0  0  0
    1.6350   -5.8885    4.6856 O   0  0  0  0  0  0  0  0  0  0  0  0
    3.5362   -6.4402    3.4831 O   0  0  0  0  0  0  0  0  0  0  0  0
    4.2565   -5.8359    2.4209 C   0  0  1  0  0  0  0  0  0  0  0  0
    5.0954   -6.5783    1.3598 C   0  0  1  0  0  0  0  0  0  0  0  0
    4.4207   -7.7313    0.8598 O   0  0  0  0  0  0  0  0  0  0  0  0
    4.6050   -8.9075    1.6325 C   0  0  0  0  0  0  0  0  0  0  0  0
    5.1652   -5.5110    0.2219 C   0  0  1  0  0  0  0  0  0  0  0  0
    3.8683   -4.5492    0.4569 C   0  0  1  0  0  0  0  0  0  0  0  0
    3.1421   -5.2554    1.6056 C   0  0  2  0  0  0  0  0  0  0  0  0
    4.3737   -3.0904    0.7864 C   0  0  1  0  0  0  0  0  0  0  0  0
    5.5164   -3.5998    0.1576 C   0  0  2  0  0  0  0  0  0  0  0  0
    5.3862   -3.4604   -1.4802 C   0  0  1  0  0  0  0  0  0  0  0  0
    4.1024   -3.1315   -2.3218 C   0  0  0  0  0  0  0  0  0  0  0  0
    4.1840   -1.8216   -3.0998 C   0  0  0  0  0  0  0  0  0  0  0  0
    4.1705   -1.7856   -4.3186 O   0  0  0  0  0  0  0  0  0  0  0  0
    4.2431   -0.5641   -2.2547 C   0  0  0  0  0  0  0  0  0  0  0  0
    4.0195   -0.8823   -0.7658 C   0  0  0  0  0  0  0  0  0  0  0  0
    5.0595   -1.8116   -0.0632 C   0  0  1  0  0  0  0  0  0  0  0  0
    5.7216   -0.9124    0.8615 O   0  0  0  0  0  0  0  0  0  0  0  0
    5.0008   -0.3712    1.9717 C   0  0  0  0  0  0  0  0  0  0  0  0
    6.2753   -2.4799   -1.0322 C   0  0  1  0  0  0  0  0  0  0  0  0
    7.2315   -3.6415   -0.6023 N   0  0  0  0  0  0  0  0  0  0  0  0
    8.5354   -3.2146   -0.0915 C   0  0  0  0  0  0  0  0  0  0  0  0
    6.4735   -4.6201    0.3387 C   0  0  2  0  0  0  0  0  0  0  0  0
    2.1473   -1.3744    2.8416 H   0  0  0  0  0  0  0  0  0  0  0  0
    0.7371   -2.3959    2.5436 H   0  0  0  0  0  0  0  0  0  0  0  0
    2.0452   -2.3516    1.3787 H   0  0  0  0  0  0  0  0  0  0  0  0
    1.1356   -4.7402    2.3096 H   0  0  0  0  0  0  0  0  0  0  0  0
    4.8685   -5.0481    2.8634 H   0  0  0  0  0  0  0  0  0  0  0  0
    6.0878   -6.8471    1.7301 H   0  0  0  0  0  0  0  0  0  0  0  0
    4.0453   -9.7309    1.1869 H   0  0  0  0  0  0  0  0  0  0  0  0
    4.2529   -8.7895    2.6580 H   0  0  0  0  0  0  0  0  0  0  0  0
    5.6559   -9.2002    1.6606 H   0  0  0  0  0  0  0  0  0  0  0  0
    5.1133   -6.0155   -0.7485 H   0  0  0  0  0  0  0  0  0  0  0  0
    3.1899   -4.5874   -0.3908 H   0  0  0  0  0  0  0  0  0  0  0  0
    2.5983   -6.0753    1.1308 H   0  0  0  0  0  0  0  0  0  0  0  0
    4.4885   -2.9958    1.8751 H   0  0  0  0  0  0  0  0  0  0  0  0
    6.1216   -3.1526    1.0458 H   0  0  0  0  0  0  0  0  0  0  0  0
    5.8196   -4.2514   -2.1085 H   0  0  0  0  0  0  0  0  0  0  0  0
    3.9554   -3.9193   -3.0521 H   0  0  0  0  0  0  0  0  0  0  0  0
    3.1899   -3.1008   -1.7361 H   0  0  0  0  0  0  0  0  0  0  0  0
    5.1908   -0.0437   -2.3927 H   0  0  0  0  0  0  0  0  0  0  0  0
    3.4630    0.0942   -2.6387 H   0  0  0  0  0  0  0  0  0  0  0  0
    4.0113    0.0972   -0.2977 H   0  0  0  0  0  0  0  0  0  0  0  0
    3.0138   -1.2772   -0.6265 H   0  0  0  0  0  0  0  0  0  0  0  0
    5.6932    0.1713    2.6109 H   0  0  0  0  0  0  0  0  0  0  0  0
    4.5396   -1.1338    2.6074 H   0  0  0  0  0  0  0  0  0  0  0  0
    4.2178    0.3396    1.6939 H   0  0  0  0  0  0  0  0  0  0  0  0
    6.6834   -1.8566   -1.8224 H   0  0  0  0  0  0  0  0  0  0  0  0
    9.1661   -4.0793    0.1235 H   0  0  0  0  0  0  0  0  0  0  0  0
    8.4277   -2.6351    0.8198 H   0  0  0  0  0  0  0  0  0  0  0  0
    9.0498   -2.6056   -0.8338 H   0  0  0  0  0  0  0  0  0  0  0  0
    6.9484   -4.7154    1.3275 H   0  0  0  0  0  0  0  0  0  0  0  0
  1  2  1  0
  1 29  1  0
  1 30  1  0
  1 31  1  0
  2  3  1  0
  3 13  1  0
  3  4  1  0
  3 32  1  6
  4  5  2  0
  4  6  1  0
  6  7  1  0
  7 13  1  0
  7  8  1  0
  7 33  1  1
  8  9  1  0
  8 11  1  0
  8 34  1  1
  9 10  1  0
 10 35  1  0
 10 36  1  0
 10 37  1  0
 11 28  1  0
 11 12  1  0
 11 38  1  6
 12 13  1  0
 12 14  1  0
 12 39  1  6
 13 40  1  6
 14 22  1  0
 14 15  1  0
 14 41  1  1
 15 28  1  0
 15 16  1  0
 15 42  1  1
 16 25  1  0
 16 17  1  0
 16 43  1  6
 17 18  1  0
 17 44  1  0
 17 45  1  0
 18 19  2  0
 18 20  1  0
 20 21  1  0
 20 46  1  0
 20 47  1  0
 21 22  1  0
 21 48  1  0
 21 49  1  0
 22 23  1  1
 22 25  1  0
 23 24  1  0
 24 50  1  0
 24 51  1  0
 24 52  1  0
 25 26  1  0
 25 53  1  6
 26 27  1  0
 26 28  1  0
 27 54  1  0
 27 55  1  0
 27 56  1  0
 28 57  1  1
M  END
>  <i_m_ct_stereo_status>  (350) 
1

>  <s_m_source_file>  (350) 
/var/tmp/pbs.5076255.sched01/tmpt25ahaql/1236iipj8y0.sdf

>  <i_m_source_file_index>  (350) 
24

>  <i_lp_mmshare_version>  (350) 
48012

>  <i_f3d_flags>  (350) 
0

>  <s_epik_input>  (350) 
W0NIM11PW0NASF0oQyg9TylPMSlbQ0BASF0yW0NAQEhdMVtDQEBIXShPW0NIM10pW0NAQEhdKFtDQEBIXTJbQ0BASF0zW0NAXTQ1T1tDSDNdKVtDQEhdNltDQEhdM1tDQEhdKFtDQEBIXTVONltDSDNdKVtDSDJdQyg9TylbQ0gyXVtDSDJdNA==

>  <s_epik_cmdline>  (350) 
J2VwaWtfcHl0aG9uJywgJy1waHQnLCAnMi4wJywgJy1waCcsICc3LjAnLCAnLXRuJywgJzgnLCAnLW1hJywgJzIwMCcsICctaW1hZScsICc8aW5maWxlLm1hZT4nLCAnLW9tYWUnLCAnPG91dGZpbGUubWFlPic=

>  <r_lp_tautomer_probability>  (350) 
1

>  <r_epik_Ionization_Penalty>  (350) 
1.51673

>  <r_epik_Ionization_Penalty_Charging>  (350) 
0

>  <r_epik_Ionization_Penalty_Neutral>  (350) 
1.51673

>  <r_epik_State_Penalty>  (350) 
1.60822

>  <r_epik_Charging_Adjusted_Penalty>  (350) 
1.60822

>  <i_epik_Tot_Q>  (350) 
0

>  <i_epik_Tot_abs_Q>  (350) 
0

>  <s_epik_Chemistry_Notes>  (350) 
This compound has an ester and may undergo hydrolysis at high or low pH.

>  <s_lp_Force_Field>  (350) 
OPLS3e

>  <r_lp_Energy>  (350) 
354.4

>  <b_lp_Chiralities_Consistent>  (350) 
1

>  <s_lp_Variant>  (350) 
103:0-2

>  <s_i_glide_gridfile>  (350) 
pfpi4k_grid

>  <i_i_glide_lignum>  (350) 
24

>  <i_i_glide_rotatable_bonds>  (350) 
3

>  <r_i_docking_score>  (350) 
-3.85917

>  <r_i_glide_ligand_efficiency>  (350) 
-0.137828

>  <r_i_glide_ligand_efficiency_sa>  (350) 
-0.418526

>  <r_i_glide_ligand_efficiency_ln>  (350) 
-0.89081

>  <r_i_glide_gscore>  (350) 
-3.85917

>  <r_i_glide_lipo>  (350) 
-0.723709

>  <r_i_glide_hbond>  (350) 
-0.32

>  <r_i_glide_metal>  (350) 
-0

>  <r_i_glide_rewards>  (350) 
-0.862107

>  <r_i_glide_evdw>  (350) 
-25.8058

>  <r_i_glide_ecoul>  (350) 
-4.41887

>  <r_i_glide_erotb>  (350) 
0

>  <r_i_glide_esite>  (350) 
-0.000237636

>  <r_i_glide_emodel>  (350) 
-32.667

>  <r_i_glide_energy>  (350) 
-30.2247

>  <r_i_glide_einternal>  (350) 
7.50886

>  <r_i_glide_intrahb_reward>  (350) 
-0

>  <i_i_glide_confnum>  (350) 
1

>  <i_i_glide_posenum>  (350) 
20

>  <r_i_glide_eff_state_penalty>  (350) 
0

>  <ligand_id>  (350) 
103

>  <original_smiles>  (350) 
COC1C(=O)OC2C(OC)C3C(C12)C1C2C4CC(=O)CCC1(OC)C4N(C)C32

>  <smiles>  (350) 
[H]C([H])([H])OC1([H])C(=O)OC2([H])C([H])(OC([H])([H])[H])C3([H])C4([H])N(C([H])([H])[H])C5([H])C6([H])C([H])([H])C(=O)C([H])([H])C([H])([H])C5(OC([H])([H])[H])C([H])(C46[H])C3([H])C12[H]

$$$$
103:1:1
     RDKit          3D

 57 62  0  0  1  0  0  0  0  0999 V2000
    2.3046   -0.5072    2.9513 C   0  0  0  0  0  0  0  0  0  0  0  0
    2.3749   -1.5774    3.8836 O   0  0  0  0  0  0  0  0  0  0  0  0
    1.3989   -2.5875    3.6484 C   0  0  2  0  0  0  0  0  0  0  0  0
    1.1323   -3.3647    4.9389 C   0  0  0  0  0  0  0  0  0  0  0  0
    0.4666   -2.9310    5.8709 O   0  0  0  0  0  0  0  0  0  0  0  0
    1.7004   -4.6028    4.8596 O   0  0  0  0  0  0  0  0  0  0  0  0
    2.5579   -4.6892    3.7387 C   0  0  1  0  0  0  0  0  0  0  0  0
    2.7667   -5.9372    2.8665 C   0  0  1  0  0  0  0  0  0  0  0  0
    1.5311   -6.6174    2.6541 O   0  0  0  0  0  0  0  0  0  0  0  0
    1.6874   -7.9440    2.1731 C   0  0  0  0  0  0  0  0  0  0  0  0
    3.2958   -5.3031    1.5301 C   0  0  1  0  0  0  0  0  0  0  0  0
    2.7514   -3.7601    1.5461 C   0  0  1  0  0  0  0  0  0  0  0  0
    1.8672   -3.7616    2.7894 C   0  0  2  0  0  0  0  0  0  0  0  0
    3.9892   -2.7713    1.5453 C   0  0  1  0  0  0  0  0  0  0  0  0
    4.5624   -3.9423    1.0604 C   0  0  2  0  0  0  0  0  0  0  0  0
    4.3659   -4.0777   -0.5755 C   0  0  1  0  0  0  0  0  0  0  0  0
    3.3844   -3.2365   -1.4750 C   0  0  0  0  0  0  0  0  0  0  0  0
    4.0911   -2.3440   -2.4946 C   0  0  0  0  0  0  0  0  0  0  0  0
    4.0599   -2.5687   -3.6977 O   0  0  0  0  0  0  0  0  0  0  0  0
    4.8598   -1.1650   -1.9204 C   0  0  0  0  0  0  0  0  0  0  0  0
    4.6638   -1.0663   -0.3943 C   0  0  0  0  0  0  0  0  0  0  0  0
    5.1441   -2.2987    0.4454 C   0  0  1  0  0  0  0  0  0  0  0  0
    6.2007   -1.7311    1.2384 O   0  0  0  0  0  0  0  0  0  0  0  0
    7.4650   -1.6097    0.6170 C   0  0  0  0  0  0  0  0  0  0  0  0
    5.6881   -3.7004   -0.3410 C   0  0  1  0  0  0  0  0  0  0  0  0
    5.9297   -5.0822    0.3759 N   0  0  0  0  0  0  0  0  0  0  0  0
    7.3042   -5.2908    0.8387 C   0  0  0  0  0  0  0  0  0  0  0  0
    4.8734   -5.2487    1.4922 C   0  0  2  0  0  0  0  0  0  0  0  0
    3.1322    0.1790    3.1330 H   0  0  0  0  0  0  0  0  0  0  0  0
    1.3647    0.0406    3.0270 H   0  0  0  0  0  0  0  0  0  0  0  0
    2.3780   -0.8418    1.9170 H   0  0  0  0  0  0  0  0  0  0  0  0
    0.4561   -2.1555    3.3053 H   0  0  0  0  0  0  0  0  0  0  0  0
    3.5295   -4.2765    4.0164 H   0  0  0  0  0  0  0  0  0  0  0  0
    3.4939   -6.5995    3.3401 H   0  0  0  0  0  0  0  0  0  0  0  0
    0.7113   -8.4055    2.0024 H   0  0  0  0  0  0  0  0  0  0  0  0
    2.2300   -8.5627    2.8923 H   0  0  0  0  0  0  0  0  0  0  0  0
    2.2304   -7.9719    1.2284 H   0  0  0  0  0  0  0  0  0  0  0  0
    2.9087   -5.8520    0.6674 H   0  0  0  0  0  0  0  0  0  0  0  0
    2.0775   -3.5756    0.7157 H   0  0  0  0  0  0  0  0  0  0  0  0
    0.9510   -4.2612    2.4833 H   0  0  0  0  0  0  0  0  0  0  0  0
    4.2698   -2.5044    2.5730 H   0  0  0  0  0  0  0  0  0  0  0  0
    5.3937   -3.7417    1.8370 H   0  0  0  0  0  0  0  0  0  0  0  0
    4.2322   -5.0896   -0.9914 H   0  0  0  0  0  0  0  0  0  0  0  0
    2.7592   -3.9273   -2.0345 H   0  0  0  0  0  0  0  0  0  0  0  0
    2.6807   -2.6142   -0.9230 H   0  0  0  0  0  0  0  0  0  0  0  0
    5.9139   -1.2745   -2.1713 H   0  0  0  0  0  0  0  0  0  0  0  0
    4.4883   -0.2609   -2.4002 H   0  0  0  0  0  0  0  0  0  0  0  0
    5.1604   -0.1638   -0.0416 H   0  0  0  0  0  0  0  0  0  0  0  0
    3.6082   -0.8681   -0.2002 H   0  0  0  0  0  0  0  0  0  0  0  0
    8.1406   -1.0481    1.2700 H   0  0  0  0  0  0  0  0  0  0  0  0
    7.3846   -1.0667   -0.3119 H   0  0  0  0  0  0  0  0  0  0  0  0
    7.9272   -2.5750    0.4325 H   0  0  0  0  0  0  0  0  0  0  0  0
    6.2903   -3.5639   -1.2391 H   0  0  0  0  0  0  0  0  0  0  0  0
    7.4296   -6.2938    1.2466 H   0  0  0  0  0  0  0  0  0  0  0  0
    7.5713   -4.5759    1.6117 H   0  0  0  0  0  0  0  0  0  0  0  0
    8.0099   -5.1788    0.0166 H   0  0  0  0  0  0  0  0  0  0  0  0
    5.3112   -5.3671    2.4978 H   0  0  0  0  0  0  0  0  0  0  0  0
  1  2  1  0
  1 29  1  0
  1 30  1  0
  1 31  1  0
  2  3  1  0
  3 13  1  0
  3  4  1  0
  3 32  1  6
  4  5  2  0
  4  6  1  0
  6  7  1  0
  7 13  1  0
  7  8  1  0
  7 33  1  1
  8  9  1  0
  8 11  1  0
  8 34  1  1
  9 10  1  0
 10 35  1  0
 10 36  1  0
 10 37  1  0
 11 28  1  0
 11 12  1  0
 11 38  1  6
 12 13  1  0
 12 14  1  0
 12 39  1  6
 13 40  1  6
 14 22  1  0
 14 15  1  0
 14 41  1  1
 15 28  1  0
 15 16  1  0
 15 42  1  6
 16 25  1  0
 16 17  1  0
 16 43  1  1
 17 18  1  0
 17 44  1  0
 17 45  1  0
 18 19  2  0
 18 20  1  0
 20 21  1  0
 20 46  1  0
 20 47  1  0
 21 22  1  0
 21 48  1  0
 21 49  1  0
 22 23  1  1
 22 25  1  0
 23 24  1  0
 24 50  1  0
 24 51  1  0
 24 52  1  0
 25 26  1  0
 25 53  1  6
 26 27  1  0
 26 28  1  0
 27 54  1  0
 27 55  1  0
 27 56  1  0
 28 57  1  1
M  END
>  <i_m_ct_stereo_status>  (351) 
1

>  <s_m_source_file>  (351) 
/var/tmp/pbs.5076255.sched01/tmpt25ahaql/1236iipj8y0.sdf

>  <i_m_source_file_index>  (351) 
24

>  <i_lp_mmshare_version>  (351) 
48012

>  <i_f3d_flags>  (351) 
0

>  <s_epik_input>  (351) 
W0NIM11PW0NASF0oQyg9TylPMSlbQ0BASF0yW0NAQEhdMVtDQEBIXShPW0NIM10pW0NAQEhdKFtDQEBIXTJbQ0BASF0zW0NAXTQ1T1tDSDNdKVtDQEhdNltDQEhdM1tDQEhdKFtDQEBIXTVONltDSDNdKVtDSDJdQyg9TylbQ0gyXVtDSDJdNA==

>  <s_epik_cmdline>  (351) 
J2VwaWtfcHl0aG9uJywgJy1waHQnLCAnMi4wJywgJy1waCcsICc3LjAnLCAnLXRuJywgJzgnLCAnLW1hJywgJzIwMCcsICctaW1hZScsICc8aW5maWxlLm1hZT4nLCAnLW9tYWUnLCAnPG91dGZpbGUubWFlPic=

>  <r_lp_tautomer_probability>  (351) 
1

>  <r_epik_Ionization_Penalty>  (351) 
1.51673

>  <r_epik_Ionization_Penalty_Charging>  (351) 
0

>  <r_epik_Ionization_Penalty_Neutral>  (351) 
1.51673

>  <r_epik_State_Penalty>  (351) 
1.60822

>  <r_epik_Charging_Adjusted_Penalty>  (351) 
1.60822

>  <i_epik_Tot_Q>  (351) 
0

>  <i_epik_Tot_abs_Q>  (351) 
0

>  <s_epik_Chemistry_Notes>  (351) 
This compound has an ester and may undergo hydrolysis at high or low pH.

>  <s_lp_Force_Field>  (351) 
OPLS3e

>  <r_lp_Energy>  (351) 
354.4

>  <b_lp_Chiralities_Consistent>  (351) 
1

>  <s_lp_Variant>  (351) 
103:0-2

>  <s_i_glide_gridfile>  (351) 
pfpi4k_grid

>  <i_i_glide_lignum>  (351) 
24

>  <i_i_glide_rotatable_bonds>  (351) 
3

>  <r_i_docking_score>  (351) 
-3.08963

>  <r_i_glide_ligand_efficiency>  (351) 
-0.110344

>  <r_i_glide_ligand_efficiency_sa>  (351) 
-0.33507

>  <r_i_glide_ligand_efficiency_ln>  (351) 
-0.713178

>  <r_i_glide_gscore>  (351) 
-3.08963

>  <r_i_glide_lipo>  (351) 
-0.346755

>  <r_i_glide_hbond>  (351) 
0

>  <r_i_glide_metal>  (351) 
-0

>  <r_i_glide_rewards>  (351) 
-0.868161

>  <r_i_glide_evdw>  (351) 
-23.856

>  <r_i_glide_ecoul>  (351) 
-4.54611

>  <r_i_glide_erotb>  (351) 
0

>  <r_i_glide_esite>  (351) 
0

>  <r_i_glide_emodel>  (351) 
-33.2964

>  <r_i_glide_energy>  (351) 
-28.4021

>  <r_i_glide_einternal>  (351) 
0.664977

>  <r_i_glide_intrahb_reward>  (351) 
-0

>  <i_i_glide_confnum>  (351) 
2

>  <i_i_glide_posenum>  (351) 
24

>  <r_i_glide_eff_state_penalty>  (351) 
0

>  <ligand_id>  (351) 
103

>  <original_smiles>  (351) 
COC1C(=O)OC2C(OC)C3C(C12)C1C2C4CC(=O)CCC1(OC)C4N(C)C32

>  <smiles>  (351) 
[H]C([H])([H])OC1([H])C(=O)OC2([H])C([H])(OC([H])([H])[H])C3([H])C4([H])N(C([H])([H])[H])C5([H])C6([H])C([H])([H])C(=O)C([H])([H])C([H])([H])C5(OC([H])([H])[H])C([H])(C46[H])C3([H])C12[H]

$$$$
103:1:2
     RDKit          3D

 57 62  0  0  1  0  0  0  0  0999 V2000
    2.8470    0.4257    2.3656 C   0  0  0  0  0  0  0  0  0  0  0  0
    2.7536   -0.4539    3.4808 O   0  0  0  0  0  0  0  0  0  0  0  0
    1.5895   -1.2647    3.4406 C   0  0  2  0  0  0  0  0  0  0  0  0
    1.2390   -1.7482    4.8591 C   0  0  0  0  0  0  0  0  0  0  0  0
    0.7276   -1.0368    5.7187 O   0  0  0  0  0  0  0  0  0  0  0  0
    1.5473   -3.0753    4.9863 O   0  0  0  0  0  0  0  0  0  0  0  0
    2.3101   -3.5130    3.8821 C   0  0  1  0  0  0  0  0  0  0  0  0
    2.2432   -4.9129    3.2487 C   0  0  1  0  0  0  0  0  0  0  0  0
    0.8934   -5.3722    3.1782 O   0  0  0  0  0  0  0  0  0  0  0  0
    0.7728   -6.7633    2.9156 C   0  0  0  0  0  0  0  0  0  0  0  0
    2.8153   -4.6309    1.8177 C   0  0  1  0  0  0  0  0  0  0  0  0
    2.5779   -3.0341    1.5631 C   0  0  1  0  0  0  0  0  0  0  0  0
    1.7698   -2.6333    2.7986 C   0  0  2  0  0  0  0  0  0  0  0  0
    3.9876   -2.3265    1.3626 C   0  0  1  0  0  0  0  0  0  0  0  0
    4.3116   -3.6563    1.0971 C   0  0  2  0  0  0  0  0  0  0  0  0
    4.0048   -4.0310   -0.4811 C   0  0  1  0  0  0  0  0  0  0  0  0
    3.1692   -3.1963   -1.5146 C   0  0  0  0  0  0  0  0  0  0  0  0
    3.9822   -2.6419   -2.6812 C   0  0  0  0  0  0  0  0  0  0  0  0
    3.8402   -3.0392   -3.8349 O   0  0  0  0  0  0  0  0  0  0  0  0
    4.9931   -1.5597   -2.3319 C   0  0  0  0  0  0  0  0  0  0  0  0
    4.8943   -1.1554   -0.8533 C   0  0  0  0  0  0  0  0  0  0  0  0
    5.1641   -2.2939    0.1853 C   0  0  1  0  0  0  0  0  0  0  0  0
    6.3504   -1.8066    0.8399 O   0  0  0  0  0  0  0  0  0  0  0  0
    7.6040   -2.1228    0.2536 C   0  0  0  0  0  0  0  0  0  0  0  0
    5.3876   -3.8918   -0.3418 C   0  0  1  0  0  0  0  0  0  0  0  0
    5.3834   -5.1516    0.6061 N   0  0  0  0  0  0  0  0  0  0  0  0
    6.7089   -5.5529    1.0777 C   0  0  0  0  0  0  0  0  0  0  0  0
    4.3723   -4.9056    1.7487 C   0  0  2  0  0  0  0  0  0  0  0  0
    3.8007    0.9535    2.4124 H   0  0  0  0  0  0  0  0  0  0  0  0
    2.0345    1.1554    2.3464 H   0  0  0  0  0  0  0  0  0  0  0  0
    2.8120   -0.0959    1.4085 H   0  0  0  0  0  0  0  0  0  0  0  0
    0.7366   -0.7203    3.0340 H   0  0  0  0  0  0  0  0  0  0  0  0
    3.3531   -3.2600    4.0804 H   0  0  0  0  0  0  0  0  0  0  0  0
    2.8508   -5.6124    3.8263 H   0  0  0  0  0  0  0  0  0  0  0  0
   -0.2818   -7.0367    2.8514 H   0  0  0  0  0  0  0  0  0  0  0  0
    1.2231   -7.3572    3.7132 H   0  0  0  0  0  0  0  0  0  0  0  0
    1.2399   -7.0451    1.9711 H   0  0  0  0  0  0  0  0  0  0  0  0
    2.2875   -5.2324    1.0770 H   0  0  0  0  0  0  0  0  0  0  0  0
    1.9112   -2.8560    0.7243 H   0  0  0  0  0  0  0  0  0  0  0  0
    0.7494   -2.9554    2.6020 H   0  0  0  0  0  0  0  0  0  0  0  0
    4.3587   -1.9296    2.3161 H   0  0  0  0  0  0  0  0  0  0  0  0
    5.2058   -3.4936    1.8112 H   0  0  0  0  0  0  0  0  0  0  0  0
    3.6686   -5.0532   -0.7062 H   0  0  0  0  0  0  0  0  0  0  0  0
    2.4029   -3.8467   -1.9315 H   0  0  0  0  0  0  0  0  0  0  0  0
    2.6242   -2.3677   -1.0739 H   0  0  0  0  0  0  0  0  0  0  0  0
    5.9907   -1.9290   -2.5657 H   0  0  0  0  0  0  0  0  0  0  0  0
    4.7871   -0.7005   -2.9708 H   0  0  0  0  0  0  0  0  0  0  0  0
    5.5690   -0.3174   -0.6856 H   0  0  0  0  0  0  0  0  0  0  0  0
    3.9100   -0.7177   -0.6831 H   0  0  0  0  0  0  0  0  0  0  0  0
    8.3893   -1.5873    0.7866 H   0  0  0  0  0  0  0  0  0  0  0  0
    7.6558   -1.8564   -0.8008 H   0  0  0  0  0  0  0  0  0  0  0  0
    7.8350   -3.1806    0.3380 H   0  0  0  0  0  0  0  0  0  0  0  0
    5.9639   -4.0318   -1.2528 H   0  0  0  0  0  0  0  0  0  0  0  0
    6.6524   -6.4753    1.6562 H   0  0  0  0  0  0  0  0  0  0  0  0
    7.1494   -4.7904    1.7159 H   0  0  0  0  0  0  0  0  0  0  0  0
    7.3775   -5.7280    0.2368 H   0  0  0  0  0  0  0  0  0  0  0  0
    4.8227   -4.9514    2.7530 H   0  0  0  0  0  0  0  0  0  0  0  0
  1  2  1  0
  1 29  1  0
  1 30  1  0
  1 31  1  0
  2  3  1  0
  3 13  1  0
  3  4  1  0
  3 32  1  6
  4  5  2  0
  4  6  1  0
  6  7  1  0
  7 13  1  0
  7  8  1  0
  7 33  1  1
  8  9  1  0
  8 11  1  0
  8 34  1  1
  9 10  1  0
 10 35  1  0
 10 36  1  0
 10 37  1  0
 11 28  1  0
 11 12  1  0
 11 38  1  6
 12 13  1  0
 12 14  1  0
 12 39  1  6
 13 40  1  6
 14 22  1  0
 14 15  1  0
 14 41  1  1
 15 28  1  0
 15 16  1  0
 15 42  1  6
 16 25  1  0
 16 17  1  0
 16 43  1  1
 17 18  1  0
 17 44  1  0
 17 45  1  0
 18 19  2  0
 18 20  1  0
 20 21  1  0
 20 46  1  0
 20 47  1  0
 21 22  1  0
 21 48  1  0
 21 49  1  0
 22 23  1  1
 22 25  1  0
 23 24  1  0
 24 50  1  0
 24 51  1  0
 24 52  1  0
 25 26  1  0
 25 53  1  6
 26 27  1  0
 26 28  1  0
 27 54  1  0
 27 55  1  0
 27 56  1  0
 28 57  1  1
M  END
>  <i_m_ct_stereo_status>  (352) 
1

>  <s_m_source_file>  (352) 
/var/tmp/pbs.5076255.sched01/tmpt25ahaql/1236iipj8y0.sdf

>  <i_m_source_file_index>  (352) 
24

>  <i_lp_mmshare_version>  (352) 
48012

>  <i_f3d_flags>  (352) 
0

>  <s_epik_input>  (352) 
W0NIM11PW0NASF0oQyg9TylPMSlbQ0BASF0yW0NAQEhdMVtDQEBIXShPW0NIM10pW0NAQEhdKFtDQEBIXTJbQ0BASF0zW0NAXTQ1T1tDSDNdKVtDQEhdNltDQEhdM1tDQEhdKFtDQEBIXTVONltDSDNdKVtDSDJdQyg9TylbQ0gyXVtDSDJdNA==

>  <s_epik_cmdline>  (352) 
J2VwaWtfcHl0aG9uJywgJy1waHQnLCAnMi4wJywgJy1waCcsICc3LjAnLCAnLXRuJywgJzgnLCAnLW1hJywgJzIwMCcsICctaW1hZScsICc8aW5maWxlLm1hZT4nLCAnLW9tYWUnLCAnPG91dGZpbGUubWFlPic=

>  <r_lp_tautomer_probability>  (352) 
1

>  <r_epik_Ionization_Penalty>  (352) 
1.51673

>  <r_epik_Ionization_Penalty_Charging>  (352) 
0

>  <r_epik_Ionization_Penalty_Neutral>  (352) 
1.51673

>  <r_epik_State_Penalty>  (352) 
1.60822

>  <r_epik_Charging_Adjusted_Penalty>  (352) 
1.60822

>  <i_epik_Tot_Q>  (352) 
0

>  <i_epik_Tot_abs_Q>  (352) 
0

>  <s_epik_Chemistry_Notes>  (352) 
This compound has an ester and may undergo hydrolysis at high or low pH.

>  <s_lp_Force_Field>  (352) 
OPLS3e

>  <r_lp_Energy>  (352) 
354.4

>  <b_lp_Chiralities_Consistent>  (352) 
1

>  <s_lp_Variant>  (352) 
103:0-2

>  <s_i_glide_gridfile>  (352) 
pfpi4k_grid

>  <i_i_glide_lignum>  (352) 
24

>  <i_i_glide_rotatable_bonds>  (352) 
3

>  <r_i_docking_score>  (352) 
-2.89347

>  <r_i_glide_ligand_efficiency>  (352) 
-0.103338

>  <r_i_glide_ligand_efficiency_sa>  (352) 
-0.313796

>  <r_i_glide_ligand_efficiency_ln>  (352) 
-0.667898

>  <r_i_glide_gscore>  (352) 
-2.89347

>  <r_i_glide_lipo>  (352) 
-0.360794

>  <r_i_glide_hbond>  (352) 
-0.018847

>  <r_i_glide_metal>  (352) 
-0

>  <r_i_glide_rewards>  (352) 
-0.784331

>  <r_i_glide_evdw>  (352) 
-24.738

>  <r_i_glide_ecoul>  (352) 
-3.28401

>  <r_i_glide_erotb>  (352) 
0

>  <r_i_glide_esite>  (352) 
0

>  <r_i_glide_emodel>  (352) 
-32.3901

>  <r_i_glide_energy>  (352) 
-28.022

>  <r_i_glide_einternal>  (352) 
0.990891

>  <r_i_glide_intrahb_reward>  (352) 
-0

>  <i_i_glide_confnum>  (352) 
2

>  <i_i_glide_posenum>  (352) 
19

>  <r_i_glide_eff_state_penalty>  (352) 
0

>  <ligand_id>  (352) 
103

>  <original_smiles>  (352) 
COC1C(=O)OC2C(OC)C3C(C12)C1C2C4CC(=O)CCC1(OC)C4N(C)C32

>  <smiles>  (352) 
[H]C([H])([H])OC1([H])C(=O)OC2([H])C([H])(OC([H])([H])[H])C3([H])C4([H])N(C([H])([H])[H])C5([H])C6([H])C([H])([H])C(=O)C([H])([H])C([H])([H])C5(OC([H])([H])[H])C([H])(C46[H])C3([H])C12[H]

$$$$
104:0:0
     RDKit          3D

 21 24  0  0  1  0  0  0  0  0999 V2000
    3.3809   -1.5497   -3.4301 C   0  0  0  0  0  0  0  0  0  0  0  0
    3.6253   -2.7790   -3.8871 N   0  0  0  0  0  0  0  0  0  0  0  0
    4.5677   -3.4585   -3.0961 C   0  0  0  0  0  0  0  0  0  0  0  0
    5.0673   -2.7001   -2.0677 C   0  0  0  0  0  0  0  0  0  0  0  0
    6.1230   -3.0184   -1.1100 C   0  0  0  0  0  0  0  0  0  0  0  0
    7.2197   -2.2582   -0.9298 N   0  0  0  0  0  0  0  0  0  0  0  0
    8.0283   -2.8567    0.0629 N   0  0  0  0  0  0  0  0  0  0  0  0
    7.3959   -3.9359    0.4495 C   0  0  0  0  0  0  0  0  0  0  0  0
    7.4774   -5.3215    1.5121 S   0  0  0  0  0  0  0  0  0  0  0  0
    5.8744   -5.8313    0.8671 C   0  0  0  0  0  0  0  0  0  0  0  0
    5.2259   -7.0580    1.3517 C   0  0  0  0  0  0  0  0  0  0  0  0
    3.8790   -7.4599    1.1003 C   0  0  0  0  0  0  0  0  0  0  0  0
    3.5170   -8.5913    1.6597 N   0  0  0  0  0  0  0  0  0  0  0  0
    4.8697   -9.1391    2.4743 S   0  0  0  0  0  0  0  0  0  0  0  0
    5.9034   -7.8758    2.1256 N   0  0  0  0  0  0  0  0  0  0  0  0
    5.3361   -5.0229   -0.0660 N   0  0  0  0  0  0  0  0  0  0  0  0
    6.2406   -4.0281   -0.2404 N   0  0  0  0  0  0  0  0  0  0  0  0
    4.3806   -1.0927   -2.0599 S   0  0  0  0  0  0  0  0  0  0  0  0
    2.6343   -0.9201   -3.9008 H   0  0  0  0  0  0  0  0  0  0  0  0
    4.8670   -4.4633   -3.3704 H   0  0  0  0  0  0  0  0  0  0  0  0
    3.1617   -6.9107    0.5143 H   0  0  0  0  0  0  0  0  0  0  0  0
  1 18  1  0
  1  2  2  0
  1 19  1  0
  2  3  1  0
  3  4  2  0
  3 20  1  0
  4  5  1  0
  4 18  1  0
  5 17  1  0
  5  6  2  0
  6  7  1  0
  7  8  2  0
  8 17  1  0
  8  9  1  0
  9 10  1  0
 10 11  1  0
 10 16  2  0
 11 15  2  0
 11 12  1  0
 12 13  2  0
 12 21  1  0
 13 14  1  0
 14 15  1  0
 16 17  1  0
M  END
>  <i_m_ct_stereo_status>  (353) 
1

>  <s_m_source_file>  (353) 
/var/tmp/pbs.5076255.sched01/tmpt25ahaql/1236iipj8y0.sdf

>  <i_m_source_file_index>  (353) 
25

>  <i_lp_mmshare_version>  (353) 
48012

>  <i_f3d_flags>  (353) 
0

>  <s_epik_input>  (353) 
czFbY0hdbltjSF1jMS1jKG5uMiluKGMyMyluYyhzMyktYzRbY0hdbnNuNA==

>  <s_epik_cmdline>  (353) 
J2VwaWtfcHl0aG9uJywgJy1waHQnLCAnMi4wJywgJy1waCcsICc3LjAnLCAnLXRuJywgJzgnLCAnLW1hJywgJzIwMCcsICctaW1hZScsICc8aW5maWxlLm1hZT4nLCAnLW9tYWUnLCAnPG91dGZpbGUubWFlPic=

>  <r_lp_tautomer_probability>  (353) 
1

>  <r_epik_Ionization_Penalty>  (353) 
1.56806e-06

>  <r_epik_Ionization_Penalty_Charging>  (353) 
0

>  <r_epik_Ionization_Penalty_Neutral>  (353) 
1.56806e-06

>  <r_epik_State_Penalty>  (353) 
-0

>  <r_epik_Charging_Adjusted_Penalty>  (353) 
0

>  <i_epik_Tot_Q>  (353) 
0

>  <i_epik_Tot_abs_Q>  (353) 
0

>  <s_lp_Force_Field>  (353) 
OPLS3e

>  <r_lp_Energy>  (353) 
-0.088843

>  <b_lp_Chiralities_Consistent>  (353) 
1

>  <s_lp_Variant>  (353) 
104:0-1

>  <s_i_glide_gridfile>  (353) 
pfpi4k_grid

>  <i_i_glide_lignum>  (353) 
25

>  <i_i_glide_rotatable_bonds>  (353) 
2

>  <r_i_docking_score>  (353) 
-4.22365

>  <r_i_glide_ligand_efficiency>  (353) 
-0.234647

>  <r_i_glide_ligand_efficiency_sa>  (353) 
-0.61495

>  <r_i_glide_ligand_efficiency_ln>  (353) 
-1.08567

>  <r_i_glide_gscore>  (353) 
-4.22365

>  <r_i_glide_lipo>  (353) 
-0.694711

>  <r_i_glide_hbond>  (353) 
-0.066465

>  <r_i_glide_metal>  (353) 
-0

>  <r_i_glide_rewards>  (353) 
-1.76676

>  <r_i_glide_evdw>  (353) 
-31.599

>  <r_i_glide_ecoul>  (353) 
-3.13411

>  <r_i_glide_erotb>  (353) 
0.424639

>  <r_i_glide_esite>  (353) 
-0.0702868

>  <r_i_glide_emodel>  (353) 
-41.9284

>  <r_i_glide_energy>  (353) 
-34.7331

>  <r_i_glide_einternal>  (353) 
3.18959

>  <r_i_glide_intrahb_reward>  (353) 
-0

>  <i_i_glide_confnum>  (353) 
5

>  <i_i_glide_posenum>  (353) 
30

>  <r_i_glide_eff_state_penalty>  (353) 
0

>  <ligand_id>  (353) 
104

>  <original_smiles>  (353) 
c1ncc(-c2nnc3sc(-c4cnsn4)nn23)s1

>  <smiles>  (353) 
[H]c1nc([H])c(-c2nnc3sc(-c4nsnc4[H])nn23)s1

$$$$
104:0:1
     RDKit          3D

 21 24  0  0  1  0  0  0  0  0999 V2000
    2.9229   -2.4407   -3.5079 C   0  0  0  0  0  0  0  0  0  0  0  0
    4.1947   -2.5117   -3.9053 N   0  0  0  0  0  0  0  0  0  0  0  0
    5.0069   -3.1091   -2.9377 C   0  0  0  0  0  0  0  0  0  0  0  0
    4.3423   -3.4719   -1.7892 C   0  0  0  0  0  0  0  0  0  0  0  0
    4.9153   -4.0699   -0.5804 C   0  0  0  0  0  0  0  0  0  0  0  0
    6.2083   -3.9117   -0.2370 N   0  0  0  0  0  0  0  0  0  0  0  0
    6.4443   -4.6344    0.9567 N   0  0  0  0  0  0  0  0  0  0  0  0
    5.3120   -5.2005    1.2853 C   0  0  0  0  0  0  0  0  0  0  0  0
    4.5130   -6.2388    2.4583 S   0  0  0  0  0  0  0  0  0  0  0  0
    3.0001   -6.0666    1.5007 C   0  0  0  0  0  0  0  0  0  0  0  0
    1.7630   -6.7430    1.9376 C   0  0  0  0  0  0  0  0  0  0  0  0
    1.6510   -7.5586    3.1142 C   0  0  0  0  0  0  0  0  0  0  0  0
    0.4610   -8.0569    3.3455 N   0  0  0  0  0  0  0  0  0  0  0  0
   -0.4888   -7.5506    2.0755 S   0  0  0  0  0  0  0  0  0  0  0  0
    0.6378   -6.6204    1.2543 N   0  0  0  0  0  0  0  0  0  0  0  0
    3.0960   -5.2915    0.4069 N   0  0  0  0  0  0  0  0  0  0  0  0
    4.3843   -4.8641    0.3633 N   0  0  0  0  0  0  0  0  0  0  0  0
    2.6372   -3.0603   -1.8938 S   0  0  0  0  0  0  0  0  0  0  0  0
    2.1586   -2.0188   -4.1549 H   0  0  0  0  0  0  0  0  0  0  0  0
    6.0678   -3.2169   -3.1430 H   0  0  0  0  0  0  0  0  0  0  0  0
    2.4233   -7.7965    3.8303 H   0  0  0  0  0  0  0  0  0  0  0  0
  1 18  1  0
  1  2  2  0
  1 19  1  0
  2  3  1  0
  3  4  2  0
  3 20  1  0
  4  5  1  0
  4 18  1  0
  5 17  1  0
  5  6  2  0
  6  7  1  0
  7  8  2  0
  8 17  1  0
  8  9  1  0
  9 10  1  0
 10 11  1  0
 10 16  2  0
 11 15  2  0
 11 12  1  0
 12 13  2  0
 12 21  1  0
 13 14  1  0
 14 15  1  0
 16 17  1  0
M  END
>  <i_m_ct_stereo_status>  (354) 
1

>  <s_m_source_file>  (354) 
/var/tmp/pbs.5076255.sched01/tmpt25ahaql/1236iipj8y0.sdf

>  <i_m_source_file_index>  (354) 
25

>  <i_lp_mmshare_version>  (354) 
48012

>  <i_f3d_flags>  (354) 
0

>  <s_epik_input>  (354) 
czFbY0hdbltjSF1jMS1jKG5uMiluKGMyMyluYyhzMyktYzRbY0hdbnNuNA==

>  <s_epik_cmdline>  (354) 
J2VwaWtfcHl0aG9uJywgJy1waHQnLCAnMi4wJywgJy1waCcsICc3LjAnLCAnLXRuJywgJzgnLCAnLW1hJywgJzIwMCcsICctaW1hZScsICc8aW5maWxlLm1hZT4nLCAnLW9tYWUnLCAnPG91dGZpbGUubWFlPic=

>  <r_lp_tautomer_probability>  (354) 
1

>  <r_epik_Ionization_Penalty>  (354) 
1.56806e-06

>  <r_epik_Ionization_Penalty_Charging>  (354) 
0

>  <r_epik_Ionization_Penalty_Neutral>  (354) 
1.56806e-06

>  <r_epik_State_Penalty>  (354) 
-0

>  <r_epik_Charging_Adjusted_Penalty>  (354) 
0

>  <i_epik_Tot_Q>  (354) 
0

>  <i_epik_Tot_abs_Q>  (354) 
0

>  <s_lp_Force_Field>  (354) 
OPLS3e

>  <r_lp_Energy>  (354) 
-0.088843

>  <b_lp_Chiralities_Consistent>  (354) 
1

>  <s_lp_Variant>  (354) 
104:0-1

>  <s_i_glide_gridfile>  (354) 
pfpi4k_grid

>  <i_i_glide_lignum>  (354) 
25

>  <i_i_glide_rotatable_bonds>  (354) 
2

>  <r_i_docking_score>  (354) 
-4.02665

>  <r_i_glide_ligand_efficiency>  (354) 
-0.223703

>  <r_i_glide_ligand_efficiency_sa>  (354) 
-0.586267

>  <r_i_glide_ligand_efficiency_ln>  (354) 
-1.03503

>  <r_i_glide_gscore>  (354) 
-4.02665

>  <r_i_glide_lipo>  (354) 
-0.437941

>  <r_i_glide_hbond>  (354) 
-0.26903

>  <r_i_glide_metal>  (354) 
-0

>  <r_i_glide_rewards>  (354) 
-1.60531

>  <r_i_glide_evdw>  (354) 
-29.9009

>  <r_i_glide_ecoul>  (354) 
-4.29313

>  <r_i_glide_erotb>  (354) 
0.424639

>  <r_i_glide_esite>  (354) 
0

>  <r_i_glide_emodel>  (354) 
-38.5242

>  <r_i_glide_energy>  (354) 
-34.194

>  <r_i_glide_einternal>  (354) 
8.64643

>  <r_i_glide_intrahb_reward>  (354) 
-0

>  <i_i_glide_confnum>  (354) 
4

>  <i_i_glide_posenum>  (354) 
1

>  <r_i_glide_eff_state_penalty>  (354) 
0

>  <ligand_id>  (354) 
104

>  <original_smiles>  (354) 
c1ncc(-c2nnc3sc(-c4cnsn4)nn23)s1

>  <smiles>  (354) 
[H]c1nc([H])c(-c2nnc3sc(-c4nsnc4[H])nn23)s1

$$$$
104:0:2
     RDKit          3D

 21 24  0  0  1  0  0  0  0  0999 V2000
    3.0662   -1.1242   -4.2965 C   0  0  0  0  0  0  0  0  0  0  0  0
    3.8178   -0.1507   -3.8049 N   0  0  0  0  0  0  0  0  0  0  0  0
    4.5422   -0.5767   -2.7135 C   0  0  0  0  0  0  0  0  0  0  0  0
    4.4581   -1.8989   -2.4321 C   0  0  0  0  0  0  0  0  0  0  0  0
    5.3155   -2.6193   -1.5057 C   0  0  0  0  0  0  0  0  0  0  0  0
    6.6218   -2.3521   -1.2935 N   0  0  0  0  0  0  0  0  0  0  0  0
    7.0972   -3.2347   -0.2992 N   0  0  0  0  0  0  0  0  0  0  0  0
    6.0767   -3.9770    0.0604 C   0  0  0  0  0  0  0  0  0  0  0  0
    5.5319   -5.2521    1.1272 S   0  0  0  0  0  0  0  0  0  0  0  0
    3.8745   -5.0344    0.4219 C   0  0  0  0  0  0  0  0  0  0  0  0
    2.7386   -5.8557    0.8620 C   0  0  0  0  0  0  0  0  0  0  0  0
    1.4196   -5.8673    0.3016 C   0  0  0  0  0  0  0  0  0  0  0  0
    0.5629   -6.6630    0.9038 N   0  0  0  0  0  0  0  0  0  0  0  0
    1.4656   -7.4863    2.0530 S   0  0  0  0  0  0  0  0  0  0  0  0
    2.9231   -6.7158    1.8369 N   0  0  0  0  0  0  0  0  0  0  0  0
    3.7611   -4.1025   -0.5170 N   0  0  0  0  0  0  0  0  0  0  0  0
    5.0031   -3.6000   -0.6662 N   0  0  0  0  0  0  0  0  0  0  0  0
    3.3596   -2.7008   -3.5523 S   0  0  0  0  0  0  0  0  0  0  0  0
    2.3961   -0.8794   -5.1125 H   0  0  0  0  0  0  0  0  0  0  0  0
    5.2553    0.1188   -2.2677 H   0  0  0  0  0  0  0  0  0  0  0  0
    1.0986   -5.3083   -0.5670 H   0  0  0  0  0  0  0  0  0  0  0  0
  1 18  1  0
  1  2  2  0
  1 19  1  0
  2  3  1  0
  3  4  2  0
  3 20  1  0
  4  5  1  0
  4 18  1  0
  5 17  1  0
  5  6  2  0
  6  7  1  0
  7  8  2  0
  8 17  1  0
  8  9  1  0
  9 10  1  0
 10 11  1  0
 10 16  2  0
 11 15  2  0
 11 12  1  0
 12 13  2  0
 12 21  1  0
 13 14  1  0
 14 15  1  0
 16 17  1  0
M  END
>  <i_m_ct_stereo_status>  (355) 
1

>  <s_m_source_file>  (355) 
/var/tmp/pbs.5076255.sched01/tmpt25ahaql/1236iipj8y0.sdf

>  <i_m_source_file_index>  (355) 
25

>  <i_lp_mmshare_version>  (355) 
48012

>  <i_f3d_flags>  (355) 
0

>  <s_epik_input>  (355) 
czFbY0hdbltjSF1jMS1jKG5uMiluKGMyMyluYyhzMyktYzRbY0hdbnNuNA==

>  <s_epik_cmdline>  (355) 
J2VwaWtfcHl0aG9uJywgJy1waHQnLCAnMi4wJywgJy1waCcsICc3LjAnLCAnLXRuJywgJzgnLCAnLW1hJywgJzIwMCcsICctaW1hZScsICc8aW5maWxlLm1hZT4nLCAnLW9tYWUnLCAnPG91dGZpbGUubWFlPic=

>  <r_lp_tautomer_probability>  (355) 
1

>  <r_epik_Ionization_Penalty>  (355) 
1.56806e-06

>  <r_epik_Ionization_Penalty_Charging>  (355) 
0

>  <r_epik_Ionization_Penalty_Neutral>  (355) 
1.56806e-06

>  <r_epik_State_Penalty>  (355) 
-0

>  <r_epik_Charging_Adjusted_Penalty>  (355) 
0

>  <i_epik_Tot_Q>  (355) 
0

>  <i_epik_Tot_abs_Q>  (355) 
0

>  <s_lp_Force_Field>  (355) 
OPLS3e

>  <r_lp_Energy>  (355) 
-0.088843

>  <b_lp_Chiralities_Consistent>  (355) 
1

>  <s_lp_Variant>  (355) 
104:0-1

>  <s_i_glide_gridfile>  (355) 
pfpi4k_grid

>  <i_i_glide_lignum>  (355) 
25

>  <i_i_glide_rotatable_bonds>  (355) 
2

>  <r_i_docking_score>  (355) 
-3.70872

>  <r_i_glide_ligand_efficiency>  (355) 
-0.20604

>  <r_i_glide_ligand_efficiency_sa>  (355) 
-0.539977

>  <r_i_glide_ligand_efficiency_ln>  (355) 
-0.953306

>  <r_i_glide_gscore>  (355) 
-3.70872

>  <r_i_glide_lipo>  (355) 
-0.365922

>  <r_i_glide_hbond>  (355) 
-0.12597

>  <r_i_glide_metal>  (355) 
-0

>  <r_i_glide_rewards>  (355) 
-1.57448

>  <r_i_glide_evdw>  (355) 
-30.4764

>  <r_i_glide_ecoul>  (355) 
-3.15012

>  <r_i_glide_erotb>  (355) 
0.424639

>  <r_i_glide_esite>  (355) 
-0.0706491

>  <r_i_glide_emodel>  (355) 
-39.221

>  <r_i_glide_energy>  (355) 
-33.6265

>  <r_i_glide_einternal>  (355) 
4.5886

>  <r_i_glide_intrahb_reward>  (355) 
-0

>  <i_i_glide_confnum>  (355) 
6

>  <i_i_glide_posenum>  (355) 
11

>  <r_i_glide_eff_state_penalty>  (355) 
0

>  <ligand_id>  (355) 
104

>  <original_smiles>  (355) 
c1ncc(-c2nnc3sc(-c4cnsn4)nn23)s1

>  <smiles>  (355) 
[H]c1nc([H])c(-c2nnc3sc(-c4nsnc4[H])nn23)s1

$$$$
105:0:0
     RDKit          3D

 90 97  0  0  1  0  0  0  0  0999 V2000
    5.4353   -5.4768    0.2361 C   0  0  0  0  0  0  0  0  0  0  0  0
    4.2910   -5.3365    1.2665 C   0  0  0  0  0  0  0  0  0  0  0  0
    3.3440   -6.5350    1.2378 C   0  0  0  0  0  0  0  0  0  0  0  0
    4.8381   -5.2410    2.5421 O   0  0  0  0  0  0  0  0  0  0  0  0
    5.0732   -3.9074    2.7717 C   0  0  2  0  0  0  0  0  0  0  0  0
    4.8182   -3.5813    4.1066 O   0  0  0  0  0  0  0  0  0  0  0  0
    4.7960   -2.1827    4.3555 C   0  0  2  0  0  0  0  0  0  0  0  0
    4.7329   -1.9244    5.8992 C   0  0  0  0  0  0  0  0  0  0  0  0
    3.6136   -0.8961    5.9360 C   0  0  1  0  0  0  0  0  0  0  0  0
    2.5920   -1.3682    4.9448 C   0  0  2  0  0  0  0  0  0  0  0  0
    1.9549   -2.7419    5.3269 C   0  0  0  0  0  0  0  0  0  0  0  0
    3.5166   -1.5690    3.7122 C   0  0  2  0  0  0  0  0  0  0  0  0
    2.9940   -2.4387    2.5409 C   0  0  1  0  0  0  0  0  0  0  0  0
    2.3668   -1.5172    1.6716 O   0  0  0  0  0  0  0  0  0  0  0  0
    4.1234   -3.1629    1.7912 C   0  0  2  0  0  0  0  0  0  0  0  0
    3.5636   -4.1767    0.9893 O   0  0  0  0  0  0  0  0  0  0  0  0
    1.5250   -0.2564    5.1264 C   0  0  1  0  0  0  0  0  0  0  0  0
    1.3816   -0.0373    6.6162 C   0  0  1  0  0  0  0  0  0  0  0  0
    0.5063   -0.9179    7.2725 O   0  0  0  0  0  0  0  0  0  0  0  0
    2.8778   -0.2425    7.1451 C   0  0  1  0  0  0  0  0  0  0  0  0
    2.9704   -1.1452    8.4014 C   0  0  0  0  0  0  0  0  0  0  0  0
    3.5709    1.1031    7.4889 C   0  0  0  0  0  0  0  0  0  0  0  0
    3.7876    2.2014    6.4045 C   0  0  1  0  0  0  0  0  0  0  0  0
    5.1702    2.1964    6.0696 O   0  0  0  0  0  0  0  0  0  0  0  0
    2.8557    2.2798    5.1060 C   0  0  2  0  0  0  0  0  0  0  0  0
    3.6486    1.7650    4.0245 O   0  0  0  0  0  0  0  0  0  0  0  0
    2.3654    3.7900    4.8058 C   0  0  1  0  0  0  0  0  0  0  0  0
    2.1887    4.5388    5.9937 O   0  0  0  0  0  0  0  0  0  0  0  0
    3.5165    4.5632    4.0788 C   0  0  0  0  0  0  0  0  0  0  0  0
    3.3238    5.9567    4.0035 O   0  0  0  0  0  0  0  0  0  0  0  0
    0.9430    3.8727    4.0928 C   0  0  1  0  0  0  0  0  0  0  0  0
    0.9063    5.0185    3.2777 O   0  0  0  0  0  0  0  0  0  0  0  0
    0.9487    2.7157    3.1008 C   0  0  0  0  0  0  0  0  0  0  0  0
    0.9156    1.4833    3.7930 O   0  0  0  0  0  0  0  0  0  0  0  0
    1.6141    1.3105    5.0137 C   0  0  1  0  0  0  0  0  0  0  0  0
    0.6869    1.3163    6.2435 C   0  0  2  0  0  0  0  0  0  0  0  0
    0.8636    2.2863    7.2138 O   0  0  0  0  0  0  0  0  0  0  0  0
   -0.8520    1.3921    5.9565 C   0  0  1  0  0  0  0  0  0  0  0  0
   -1.5436    1.1507    7.1802 O   0  0  0  0  0  0  0  0  0  0  0  0
   -1.3913    2.6983    5.2151 C   0  0  0  0  0  0  0  0  0  0  0  0
   -2.0605    2.2303    3.8830 C   0  0  0  0  0  0  0  0  0  0  0  0
   -2.5865    3.2926    6.0026 C   0  0  0  0  0  0  0  0  0  0  0  0
   -0.4313    3.9421    4.9298 C   0  0  1  0  0  0  0  0  0  0  0  0
   -0.4417    4.9016    5.9908 O   0  0  0  0  0  0  0  0  0  0  0  0
    6.0934   -4.6101    0.2569 H   0  0  0  0  0  0  0  0  0  0  0  0
    5.0171   -5.5903   -0.7743 H   0  0  0  0  0  0  0  0  0  0  0  0
    6.0188   -6.3655    0.4876 H   0  0  0  0  0  0  0  0  0  0  0  0
    2.5494   -6.4066    1.9714 H   0  0  0  0  0  0  0  0  0  0  0  0
    3.8972   -7.4483    1.4618 H   0  0  0  0  0  0  0  0  0  0  0  0
    2.9052   -6.6356    0.2445 H   0  0  0  0  0  0  0  0  0  0  0  0
    6.1180   -3.6919    2.5469 H   0  0  0  0  0  0  0  0  0  0  0  0
    5.6784   -1.6936    3.9387 H   0  0  0  0  0  0  0  0  0  0  0  0
    4.4797   -2.8309    6.4498 H   0  0  0  0  0  0  0  0  0  0  0  0
    5.6726   -1.5331    6.2973 H   0  0  0  0  0  0  0  0  0  0  0  0
    4.1228   -0.0728    5.4647 H   0  0  0  0  0  0  0  0  0  0  0  0
    1.0414   -2.9230    4.7613 H   0  0  0  0  0  0  0  0  0  0  0  0
    1.7065   -2.8306    6.3749 H   0  0  0  0  0  0  0  0  0  0  0  0
    2.6174   -3.5803    5.1376 H   0  0  0  0  0  0  0  0  0  0  0  0
    3.8089   -0.6071    3.3018 H   0  0  0  0  0  0  0  0  0  0  0  0
    2.2772   -3.2090    2.8623 H   0  0  0  0  0  0  0  0  0  0  0  0
    2.1718   -1.9369    0.8415 H   0  0  0  0  0  0  0  0  0  0  0  0
    4.7190   -2.4787    1.1924 H   0  0  0  0  0  0  0  0  0  0  0  0
    0.5720   -0.5752    4.6836 H   0  0  0  0  0  0  0  0  0  0  0  0
    0.9907   -1.7341    7.3331 H   0  0  0  0  0  0  0  0  0  0  0  0
    2.4267   -0.7110    9.2385 H   0  0  0  0  0  0  0  0  0  0  0  0
    4.0069   -1.2584    8.7082 H   0  0  0  0  0  0  0  0  0  0  0  0
    2.5926   -2.1488    8.2422 H   0  0  0  0  0  0  0  0  0  0  0  0
    3.0071    1.5453    8.3093 H   0  0  0  0  0  0  0  0  0  0  0  0
    4.5402    0.8673    7.9296 H   0  0  0  0  0  0  0  0  0  0  0  0
    3.7203    3.1163    6.9941 H   0  0  0  0  0  0  0  0  0  0  0  0
    5.3347    1.4119    5.5565 H   0  0  0  0  0  0  0  0  0  0  0  0
    4.1309    2.4735    3.6046 H   0  0  0  0  0  0  0  0  0  0  0  0
    2.2705    5.4461    5.7168 H   0  0  0  0  0  0  0  0  0  0  0  0
    4.4411    4.4052    4.6235 H   0  0  0  0  0  0  0  0  0  0  0  0
    3.6737    4.2135    3.0635 H   0  0  0  0  0  0  0  0  0  0  0  0
    2.5244    6.1122    3.5034 H   0  0  0  0  0  0  0  0  0  0  0  0
    0.5818    4.7629    2.3750 H   0  0  0  0  0  0  0  0  0  0  0  0
    0.0804    2.7558    2.4535 H   0  0  0  0  0  0  0  0  0  0  0  0
    1.8278    2.7652    2.4509 H   0  0  0  0  0  0  0  0  0  0  0  0
    0.9556    3.0992    6.7285 H   0  0  0  0  0  0  0  0  0  0  0  0
   -1.1573    0.5433    5.3447 H   0  0  0  0  0  0  0  0  0  0  0  0
   -1.2117    1.8029    7.7985 H   0  0  0  0  0  0  0  0  0  0  0  0
   -2.3559    3.0618    3.2458 H   0  0  0  0  0  0  0  0  0  0  0  0
   -2.9715    1.6813    4.0827 H   0  0  0  0  0  0  0  0  0  0  0  0
   -1.4518    1.5476    3.2933 H   0  0  0  0  0  0  0  0  0  0  0  0
   -2.9664    4.1515    5.4629 H   0  0  0  0  0  0  0  0  0  0  0  0
   -2.3295    3.6099    7.0140 H   0  0  0  0  0  0  0  0  0  0  0  0
   -3.4004    2.5887    6.1130 H   0  0  0  0  0  0  0  0  0  0  0  0
   -1.0646    4.4970    4.2411 H   0  0  0  0  0  0  0  0  0  0  0  0
    0.3015    4.7383    6.5743 H   0  0  0  0  0  0  0  0  0  0  0  0
  1  2  1  0
  1 45  1  0
  1 46  1  0
  1 47  1  0
  2 16  1  0
  2  3  1  0
  2  4  1  0
  3 48  1  0
  3 49  1  0
  3 50  1  0
  4  5  1  0
  5 15  1  0
  5  6  1  0
  5 51  1  6
  6  7  1  0
  7 12  1  0
  7  8  1  0
  7 52  1  6
  8  9  1  0
  8 53  1  0
  8 54  1  0
  9 20  1  0
  9 10  1  0
  9 55  1  6
 10 11  1  1
 10 12  1  0
 10 17  1  0
 11 56  1  0
 11 57  1  0
 11 58  1  0
 12 13  1  0
 12 59  1  6
 13 14  1  0
 13 15  1  0
 13 60  1  1
 14 61  1  0
 15 16  1  0
 15 62  1  6
 17 35  1  0
 17 18  1  0
 17 63  1  6
 18 36  1  0
 18 19  1  1
 18 20  1  0
 19 64  1  0
 20 21  1  1
 20 22  1  0
 21 65  1  0
 21 66  1  0
 21 67  1  0
 22 23  1  0
 22 68  1  0
 22 69  1  0
 23 24  1  0
 23 25  1  0
 23 70  1  1
 24 71  1  0
 25 35  1  0
 25 26  1  6
 25 27  1  0
 26 72  1  0
 27 28  1  1
 27 29  1  0
 27 31  1  0
 28 73  1  0
 29 30  1  0
 29 74  1  0
 29 75  1  0
 30 76  1  0
 31 43  1  0
 31 32  1  6
 31 33  1  0
 32 77  1  0
 33 34  1  0
 33 78  1  0
 33 79  1  0
 35 34  1  6
 35 36  1  0
 36 37  1  1
 36 38  1  0
 37 80  1  0
 38 39  1  0
 38 40  1  0
 38 81  1  6
 39 82  1  0
 40 41  1  0
 40 42  1  0
 40 43  1  0
 41 83  1  0
 41 84  1  0
 41 85  1  0
 42 86  1  0
 42 87  1  0
 42 88  1  0
 43 44  1  0
 43 89  1  6
 44 90  1  0
M  END
>  <i_m_ct_stereo_status>  (356) 
1

>  <s_m_source_file>  (356) 
/var/tmp/pbs.5076255.sched01/tmpt25ahaql/1236iipj8y0.sdf

>  <i_m_source_file_index>  (356) 
26

>  <i_lp_mmshare_version>  (356) 
48012

>  <i_f3d_flags>  (356) 
0

>  <s_epik_input>  (356) 
W0NIM11DKE8xKShbQ0gzXSlPW0NASF0oTzIpW0NAQEhdMVtDQEhdKFtPSF0pW0NAQEhdM1tDQEhdMltDSDJdW0NAQEhdKFtDQEBdMyhbQ0gzXSlbQ0BASF00W0NAQF01NjcpW0NAXTgoW0NIM10pW0NAQF00KFtPSF0pW0NAXTcoW09IXSlbQ0BASF0oW09IXSlDKFtDSDNdKShbQ0gzXSlbQ0BASF0oW09IXSlbQ0BdKFtPSF0pKFtDSDJdTzYpW0NAXShbT0hdKShbQ0gyXVtPSF0pW0NAQF01KFtPSF0pW0NAQEhdKFtDSDJdOClbT0hd

>  <s_epik_cmdline>  (356) 
J2VwaWtfcHl0aG9uJywgJy1waHQnLCAnMi4wJywgJy1waCcsICc3LjAnLCAnLXRuJywgJzgnLCAnLW1hJywgJzIwMCcsICctaW1hZScsICc8aW5maWxlLm1hZT4nLCAnLW9tYWUnLCAnPG91dGZpbGUubWFlPic=

>  <r_lp_tautomer_probability>  (356) 
1

>  <r_epik_Ionization_Penalty>  (356) 
8.01544e-07

>  <r_epik_Ionization_Penalty_Charging>  (356) 
0

>  <r_epik_Ionization_Penalty_Neutral>  (356) 
8.01544e-07

>  <r_epik_State_Penalty>  (356) 
-0

>  <r_epik_Charging_Adjusted_Penalty>  (356) 
0

>  <i_epik_Tot_Q>  (356) 
0

>  <i_epik_Tot_abs_Q>  (356) 
0

>  <s_epik_Chemistry_Notes>  (356) 
This compound contains an acetal/aminal-like group ( X-CH(R)-Y where X, Y are N, S, or O) that may be acid/base labile, releasing an aldehyde.

>  <s_lp_Force_Field>  (356) 
OPLS3e

>  <r_lp_Energy>  (356) 
173.005

>  <b_lp_Chiralities_Consistent>  (356) 
1

>  <s_lp_Variant>  (356) 
105:0-1

>  <s_i_glide_gridfile>  (356) 
pfpi4k_grid

>  <i_i_glide_lignum>  (356) 
26

>  <i_i_glide_rotatable_bonds>  (356) 
11

>  <r_i_docking_score>  (356) 
-4.68576

>  <r_i_glide_ligand_efficiency>  (356) 
-0.106494

>  <r_i_glide_ligand_efficiency_sa>  (356) 
-0.375963

>  <r_i_glide_ligand_efficiency_ln>  (356) 
-0.979426

>  <r_i_glide_gscore>  (356) 
-4.68576

>  <r_i_glide_lipo>  (356) 
-0.251676

>  <r_i_glide_hbond>  (356) 
0

>  <r_i_glide_metal>  (356) 
-0

>  <r_i_glide_rewards>  (356) 
-1.58761

>  <r_i_glide_evdw>  (356) 
-21.6825

>  <r_i_glide_ecoul>  (356) 
-12.1034

>  <r_i_glide_erotb>  (356) 
0.0531658

>  <r_i_glide_esite>  (356) 
0

>  <r_i_glide_emodel>  (356) 
-51.5484

>  <r_i_glide_energy>  (356) 
-33.7859

>  <r_i_glide_einternal>  (356) 
10.4368

>  <r_i_glide_intrahb_reward>  (356) 
-1.5

>  <i_i_glide_confnum>  (356) 
5

>  <i_i_glide_posenum>  (356) 
21

>  <r_i_glide_eff_state_penalty>  (356) 
0

>  <ligand_id>  (356) 
105

>  <original_smiles>  (356) 
CC1(C)OC2OC3CC4C(C)(C3C(O)C2O1)C1C2(O)C4(C)CC(O)C3(O)C(O)(CO)C4(O)COC13C2(O)C(O)C(C)(C)C4O

>  <smiles>  (356) 
[H]OC([H])([H])C1(O[H])C2(O[H])C([H])([H])OC34C5([H])C(O[H])(C3(O[H])C([H])(O[H])C(C([H])([H])[H])(C([H])([H])[H])C2([H])O[H])C(C([H])([H])[H])(C([H])([H])C([H])(O[H])C14O[H])C1([H])C([H])([H])C2([H])OC3([H])OC(C([H])([H])[H])(C([H])([H])[H])OC3([H])C([H])(O[H])C2([H])C51C([H])([H])[H]

$$$$
105:0:1
     RDKit          3D

 90 97  0  0  1  0  0  0  0  0999 V2000
    6.6431   -2.8209   -1.2243 C   0  0  0  0  0  0  0  0  0  0  0  0
    5.7716   -3.1608    0.0006 C   0  0  0  0  0  0  0  0  0  0  0  0
    5.3933   -4.6463    0.0306 C   0  0  0  0  0  0  0  0  0  0  0  0
    6.5158   -2.8698    1.1401 O   0  0  0  0  0  0  0  0  0  0  0  0
    6.2150   -1.5698    1.4738 C   0  0  2  0  0  0  0  0  0  0  0  0
    6.0813   -1.4304    2.8478 O   0  0  0  0  0  0  0  0  0  0  0  0
    5.6343   -0.1779    3.2861 C   0  0  2  0  0  0  0  0  0  0  0  0
    5.8307    0.0270    4.8170 C   0  0  0  0  0  0  0  0  0  0  0  0
    4.4428    0.5277    5.1677 C   0  0  1  0  0  0  0  0  0  0  0  0
    3.4981   -0.2929    4.3365 C   0  0  2  0  0  0  0  0  0  0  0  0
    3.5483   -1.8156    4.6924 C   0  0  0  0  0  0  0  0  0  0  0  0
    4.1290   -0.0788    2.9362 C   0  0  2  0  0  0  0  0  0  0  0  0
    3.7402   -1.0630    1.7900 C   0  0  1  0  0  0  0  0  0  0  0  0
    2.6217   -0.4532    1.1733 O   0  0  0  0  0  0  0  0  0  0  0  0
    4.8746   -1.2524    0.7595 C   0  0  2  0  0  0  0  0  0  0  0  0
    4.6033   -2.3867   -0.0335 O   0  0  0  0  0  0  0  0  0  0  0  0
    2.1600    0.2973    4.8286 C   0  0  1  0  0  0  0  0  0  0  0  0
    2.2682    0.4167    6.3363 C   0  0  1  0  0  0  0  0  0  0  0  0
    1.9948   -0.7504    7.0626 O   0  0  0  0  0  0  0  0  0  0  0  0
    3.7904    0.8070    6.5523 C   0  0  1  0  0  0  0  0  0  0  0  0
    4.5029   -0.0035    7.6677 C   0  0  0  0  0  0  0  0  0  0  0  0
    3.9633    2.2959    6.8937 C   0  0  0  0  0  0  0  0  0  0  0  0
    3.4866    3.4028    5.8990 C   0  0  1  0  0  0  0  0  0  0  0  0
    4.6140    4.0430    5.3421 O   0  0  0  0  0  0  0  0  0  0  0  0
    2.3354    3.1855    4.8168 C   0  0  2  0  0  0  0  0  0  0  0  0
    2.9952    3.1568    3.5543 O   0  0  0  0  0  0  0  0  0  0  0  0
    1.2535    4.3765    4.7803 C   0  0  1  0  0  0  0  0  0  0  0  0
    1.1691    4.9213    6.0835 O   0  0  0  0  0  0  0  0  0  0  0  0
    1.8195    5.5507    3.8992 C   0  0  0  0  0  0  0  0  0  0  0  0
    1.1801    6.8008    4.0832 O   0  0  0  0  0  0  0  0  0  0  0  0
   -0.2091    3.8556    4.3731 C   0  0  1  0  0  0  0  0  0  0  0  0
   -0.9261    4.8312    3.6275 O   0  0  0  0  0  0  0  0  0  0  0  0
    0.0337    2.8062    3.3001 C   0  0  0  0  0  0  0  0  0  0  0  0
    0.6287    1.6470    3.8595 O   0  0  0  0  0  0  0  0  0  0  0  0
    1.6082    1.7762    4.8634 C   0  0  1  0  0  0  0  0  0  0  0  0
    1.0431    1.3884    6.2406 C   0  0  2  0  0  0  0  0  0  0  0  0
    0.9789    2.3399    7.2463 O   0  0  0  0  0  0  0  0  0  0  0  0
   -0.4071    0.8498    6.2799 C   0  0  1  0  0  0  0  0  0  0  0  0
   -0.6366    0.3252    7.5732 O   0  0  0  0  0  0  0  0  0  0  0  0
   -1.5713    1.8080    5.7933 C   0  0  0  0  0  0  0  0  0  0  0  0
   -2.1649    1.0857    4.5565 C   0  0  0  0  0  0  0  0  0  0  0  0
   -2.7282    1.8251    6.8461 C   0  0  0  0  0  0  0  0  0  0  0  0
   -1.2865    3.3384    5.4470 C   0  0  1  0  0  0  0  0  0  0  0  0
   -1.2855    4.0914    6.6364 O   0  0  0  0  0  0  0  0  0  0  0  0
    6.8883   -1.7649   -1.2229 H   0  0  0  0  0  0  0  0  0  0  0  0
    6.1075   -3.0622   -2.1497 H   0  0  0  0  0  0  0  0  0  0  0  0
    7.5760   -3.3965   -1.1893 H   0  0  0  0  0  0  0  0  0  0  0  0
    4.7829   -4.8677    0.9050 H   0  0  0  0  0  0  0  0  0  0  0  0
    6.2936   -5.2676    0.0636 H   0  0  0  0  0  0  0  0  0  0  0  0
    4.8292   -4.9018   -0.8695 H   0  0  0  0  0  0  0  0  0  0  0  0
    7.0241   -0.9417    1.1116 H   0  0  0  0  0  0  0  0  0  0  0  0
    6.2025    0.5842    2.7853 H   0  0  0  0  0  0  0  0  0  0  0  0
    6.0680   -0.8989    5.3288 H   0  0  0  0  0  0  0  0  0  0  0  0
    6.6016    0.7602    5.0511 H   0  0  0  0  0  0  0  0  0  0  0  0
    4.4888    1.4958    4.6973 H   0  0  0  0  0  0  0  0  0  0  0  0
    2.6842   -2.3473    4.2975 H   0  0  0  0  0  0  0  0  0  0  0  0
    3.5813   -2.0225    5.7557 H   0  0  0  0  0  0  0  0  0  0  0  0
    4.4269   -2.3238    4.3029 H   0  0  0  0  0  0  0  0  0  0  0  0
    3.9176    0.9311    2.5899 H   0  0  0  0  0  0  0  0  0  0  0  0
    3.4703   -2.0569    2.1676 H   0  0  0  0  0  0  0  0  0  0  0  0
    2.3230   -0.9578    0.4207 H   0  0  0  0  0  0  0  0  0  0  0  0
    5.0179   -0.3642    0.1415 H   0  0  0  0  0  0  0  0  0  0  0  0
    1.3363   -0.3807    4.5524 H   0  0  0  0  0  0  0  0  0  0  0  0
    1.1751   -1.0764    6.7315 H   0  0  0  0  0  0  0  0  0  0  0  0
    4.0291    0.1457    8.6393 H   0  0  0  0  0  0  0  0  0  0  0  0
    5.5480    0.2924    7.7617 H   0  0  0  0  0  0  0  0  0  0  0  0
    4.5144   -1.0739    7.4773 H   0  0  0  0  0  0  0  0  0  0  0  0
    3.4814    2.4661    7.8566 H   0  0  0  0  0  0  0  0  0  0  0  0
    5.0188    2.4744    7.1072 H   0  0  0  0  0  0  0  0  0  0  0  0
    3.2476    4.1796    6.6148 H   0  0  0  0  0  0  0  0  0  0  0  0
    4.9158    3.5283    4.6042 H   0  0  0  0  0  0  0  0  0  0  0  0
    3.5408    2.3890    3.4839 H   0  0  0  0  0  0  0  0  0  0  0  0
    1.9353    5.4738    6.2030 H   0  0  0  0  0  0  0  0  0  0  0  0
    2.8563    5.7160    4.1749 H   0  0  0  0  0  0  0  0  0  0  0  0
    1.8395    5.3048    2.8406 H   0  0  0  0  0  0  0  0  0  0  0  0
    0.9560    7.2335    3.2576 H   0  0  0  0  0  0  0  0  0  0  0  0
   -0.4690    4.9757    2.7918 H   0  0  0  0  0  0  0  0  0  0  0  0
   -0.8796    2.5633    2.7527 H   0  0  0  0  0  0  0  0  0  0  0  0
    0.7318    3.2001    2.5703 H   0  0  0  0  0  0  0  0  0  0  0  0
    1.8251    2.7587    7.2921 H   0  0  0  0  0  0  0  0  0  0  0  0
   -0.4601   -0.0365    5.6634 H   0  0  0  0  0  0  0  0  0  0  0  0
   -0.3912    1.0282    8.1737 H   0  0  0  0  0  0  0  0  0  0  0  0
   -2.8981    1.7286    4.0733 H   0  0  0  0  0  0  0  0  0  0  0  0
   -2.6169    0.1362    4.8546 H   0  0  0  0  0  0  0  0  0  0  0  0
   -1.4790    0.7663    3.7805 H   0  0  0  0  0  0  0  0  0  0  0  0
   -3.5359    2.4807    6.5240 H   0  0  0  0  0  0  0  0  0  0  0  0
   -2.4255    2.2028    7.8242 H   0  0  0  0  0  0  0  0  0  0  0  0
   -3.1464    0.8374    6.9968 H   0  0  0  0  0  0  0  0  0  0  0  0
   -2.2480    3.6417    5.0268 H   0  0  0  0  0  0  0  0  0  0  0  0
   -0.4108    3.9899    7.0191 H   0  0  0  0  0  0  0  0  0  0  0  0
  1  2  1  0
  1 45  1  0
  1 46  1  0
  1 47  1  0
  2 16  1  0
  2  3  1  0
  2  4  1  0
  3 48  1  0
  3 49  1  0
  3 50  1  0
  4  5  1  0
  5 15  1  0
  5  6  1  0
  5 51  1  6
  6  7  1  0
  7 12  1  0
  7  8  1  0
  7 52  1  6
  8  9  1  0
  8 53  1  0
  8 54  1  0
  9 20  1  0
  9 10  1  0
  9 55  1  6
 10 11  1  1
 10 12  1  0
 10 17  1  0
 11 56  1  0
 11 57  1  0
 11 58  1  0
 12 13  1  0
 12 59  1  6
 13 14  1  0
 13 15  1  0
 13 60  1  1
 14 61  1  0
 15 16  1  0
 15 62  1  6
 17 35  1  0
 17 18  1  0
 17 63  1  1
 18 36  1  0
 18 19  1  1
 18 20  1  0
 19 64  1  0
 20 21  1  1
 20 22  1  0
 21 65  1  0
 21 66  1  0
 21 67  1  0
 22 23  1  0
 22 68  1  0
 22 69  1  0
 23 24  1  0
 23 25  1  0
 23 70  1  1
 24 71  1  0
 25 35  1  0
 25 26  1  6
 25 27  1  0
 26 72  1  0
 27 28  1  1
 27 29  1  0
 27 31  1  0
 28 73  1  0
 29 30  1  0
 29 74  1  0
 29 75  1  0
 30 76  1  0
 31 43  1  0
 31 32  1  6
 31 33  1  0
 32 77  1  0
 33 34  1  0
 33 78  1  0
 33 79  1  0
 35 34  1  6
 35 36  1  0
 36 37  1  1
 36 38  1  0
 37 80  1  0
 38 39  1  0
 38 40  1  0
 38 81  1  6
 39 82  1  0
 40 41  1  0
 40 42  1  0
 40 43  1  0
 41 83  1  0
 41 84  1  0
 41 85  1  0
 42 86  1  0
 42 87  1  0
 42 88  1  0
 43 44  1  0
 43 89  1  6
 44 90  1  0
M  END
>  <i_m_ct_stereo_status>  (357) 
1

>  <s_m_source_file>  (357) 
/var/tmp/pbs.5076255.sched01/tmpt25ahaql/1236iipj8y0.sdf

>  <i_m_source_file_index>  (357) 
26

>  <i_lp_mmshare_version>  (357) 
48012

>  <i_f3d_flags>  (357) 
0

>  <s_epik_input>  (357) 
W0NIM11DKE8xKShbQ0gzXSlPW0NASF0oTzIpW0NAQEhdMVtDQEhdKFtPSF0pW0NAQEhdM1tDQEhdMltDSDJdW0NAQEhdKFtDQEBdMyhbQ0gzXSlbQ0BASF00W0NAQF01NjcpW0NAXTgoW0NIM10pW0NAQF00KFtPSF0pW0NAXTcoW09IXSlbQ0BASF0oW09IXSlDKFtDSDNdKShbQ0gzXSlbQ0BASF0oW09IXSlbQ0BdKFtPSF0pKFtDSDJdTzYpW0NAXShbT0hdKShbQ0gyXVtPSF0pW0NAQF01KFtPSF0pW0NAQEhdKFtDSDJdOClbT0hd

>  <s_epik_cmdline>  (357) 
J2VwaWtfcHl0aG9uJywgJy1waHQnLCAnMi4wJywgJy1waCcsICc3LjAnLCAnLXRuJywgJzgnLCAnLW1hJywgJzIwMCcsICctaW1hZScsICc8aW5maWxlLm1hZT4nLCAnLW9tYWUnLCAnPG91dGZpbGUubWFlPic=

>  <r_lp_tautomer_probability>  (357) 
1

>  <r_epik_Ionization_Penalty>  (357) 
8.01544e-07

>  <r_epik_Ionization_Penalty_Charging>  (357) 
0

>  <r_epik_Ionization_Penalty_Neutral>  (357) 
8.01544e-07

>  <r_epik_State_Penalty>  (357) 
-0

>  <r_epik_Charging_Adjusted_Penalty>  (357) 
0

>  <i_epik_Tot_Q>  (357) 
0

>  <i_epik_Tot_abs_Q>  (357) 
0

>  <s_epik_Chemistry_Notes>  (357) 
This compound contains an acetal/aminal-like group ( X-CH(R)-Y where X, Y are N, S, or O) that may be acid/base labile, releasing an aldehyde.

>  <s_lp_Force_Field>  (357) 
OPLS3e

>  <r_lp_Energy>  (357) 
173.005

>  <b_lp_Chiralities_Consistent>  (357) 
1

>  <s_lp_Variant>  (357) 
105:0-1

>  <s_i_glide_gridfile>  (357) 
pfpi4k_grid

>  <i_i_glide_lignum>  (357) 
26

>  <i_i_glide_rotatable_bonds>  (357) 
11

>  <r_i_docking_score>  (357) 
-4.12662

>  <r_i_glide_ligand_efficiency>  (357) 
-0.0937867

>  <r_i_glide_ligand_efficiency_sa>  (357) 
-0.3311

>  <r_i_glide_ligand_efficiency_ln>  (357) 
-0.862553

>  <r_i_glide_gscore>  (357) 
-4.12662

>  <r_i_glide_lipo>  (357) 
-0.357108

>  <r_i_glide_hbond>  (357) 
0

>  <r_i_glide_metal>  (357) 
-0

>  <r_i_glide_rewards>  (357) 
-0.805562

>  <r_i_glide_evdw>  (357) 
-21.1041

>  <r_i_glide_ecoul>  (357) 
-13.0794

>  <r_i_glide_erotb>  (357) 
0.0531658

>  <r_i_glide_esite>  (357) 
0

>  <r_i_glide_emodel>  (357) 
-42.9697

>  <r_i_glide_energy>  (357) 
-34.1835

>  <r_i_glide_einternal>  (357) 
8.92713

>  <r_i_glide_intrahb_reward>  (357) 
-0.5

>  <i_i_glide_confnum>  (357) 
5

>  <i_i_glide_posenum>  (357) 
26

>  <r_i_glide_eff_state_penalty>  (357) 
0

>  <ligand_id>  (357) 
105

>  <original_smiles>  (357) 
CC1(C)OC2OC3CC4C(C)(C3C(O)C2O1)C1C2(O)C4(C)CC(O)C3(O)C(O)(CO)C4(O)COC13C2(O)C(O)C(C)(C)C4O

>  <smiles>  (357) 
[H]OC([H])([H])C1(O[H])C2(O[H])C([H])([H])OC34C5([H])C(O[H])(C3(O[H])C([H])(O[H])C(C([H])([H])[H])(C([H])([H])[H])C2([H])O[H])C(C([H])([H])[H])(C([H])([H])C([H])(O[H])C14O[H])C1([H])C([H])([H])C2([H])OC3([H])OC(C([H])([H])[H])(C([H])([H])[H])OC3([H])C([H])(O[H])C2([H])C51C([H])([H])[H]

$$$$
105:0:2
     RDKit          3D

 90 97  0  0  1  0  0  0  0  0999 V2000
    5.1526   -4.6530   -0.4789 C   0  0  0  0  0  0  0  0  0  0  0  0
    3.9924   -4.6233    0.5422 C   0  0  0  0  0  0  0  0  0  0  0  0
    3.0193   -5.7808    0.3648 C   0  0  0  0  0  0  0  0  0  0  0  0
    4.5465   -4.7275    1.8241 O   0  0  0  0  0  0  0  0  0  0  0  0
    4.7697   -3.4355    2.2351 C   0  0  2  0  0  0  0  0  0  0  0  0
    4.4751   -3.2711    3.5906 O   0  0  0  0  0  0  0  0  0  0  0  0
    4.4698   -1.9209    4.0256 C   0  0  2  0  0  0  0  0  0  0  0  0
    4.3659   -1.8730    5.5787 C   0  0  0  0  0  0  0  0  0  0  0  0
    3.2552   -0.8409    5.7272 C   0  0  1  0  0  0  0  0  0  0  0  0
    2.2562   -1.1641    4.6592 C   0  0  2  0  0  0  0  0  0  0  0  0
    1.5948   -2.5599    4.8381 C   0  0  0  0  0  0  0  0  0  0  0  0
    3.2134   -1.2151    3.4360 C   0  0  2  0  0  0  0  0  0  0  0  0
    2.7217   -1.8905    2.1282 C   0  0  1  0  0  0  0  0  0  0  0  0
    2.2903   -0.7859    1.3561 O   0  0  0  0  0  0  0  0  0  0  0  0
    3.8540   -2.5590    1.3344 C   0  0  2  0  0  0  0  0  0  0  0  0
    3.2761   -3.4288    0.3934 O   0  0  0  0  0  0  0  0  0  0  0  0
    1.2117   -0.0692    4.9628 C   0  0  1  0  0  0  0  0  0  0  0  0
    1.0410   -0.0252    6.4721 C   0  0  1  0  0  0  0  0  0  0  0  0
    0.1529   -0.9739    7.0102 O   0  0  0  0  0  0  0  0  0  0  0  0
    2.5059   -0.3344    6.9944 C   0  0  1  0  0  0  0  0  0  0  0  0
    2.5619   -1.3982    8.1168 C   0  0  0  0  0  0  0  0  0  0  0  0
    3.2034    0.9341    7.5181 C   0  0  0  0  0  0  0  0  0  0  0  0
    3.4711    2.1575    6.5753 C   0  0  1  0  0  0  0  0  0  0  0  0
    4.8519    2.1560    6.2681 O   0  0  0  0  0  0  0  0  0  0  0  0
    2.5828    2.4606    5.2824 C   0  0  2  0  0  0  0  0  0  0  0  0
    3.4124    2.1343    4.1762 O   0  0  0  0  0  0  0  0  0  0  0  0
    2.1129    3.9885    5.1886 C   0  0  1  0  0  0  0  0  0  0  0  0
    1.9920    4.5392    6.4794 O   0  0  0  0  0  0  0  0  0  0  0  0
    3.2883    4.8259    4.5798 C   0  0  0  0  0  0  0  0  0  0  0  0
    3.0934    6.2143    4.7179 O   0  0  0  0  0  0  0  0  0  0  0  0
    0.6899    4.1492    4.4551 C   0  0  1  0  0  0  0  0  0  0  0  0
    0.6744    5.3824    3.7463 O   0  0  0  0  0  0  0  0  0  0  0  0
    0.7031    3.1429    3.3257 C   0  0  0  0  0  0  0  0  0  0  0  0
    0.6932    1.8181    3.8358 O   0  0  0  0  0  0  0  0  0  0  0  0
    1.3506    1.5084    5.0522 C   0  0  1  0  0  0  0  0  0  0  0  0
    0.3633    1.3675    6.2298 C   0  0  2  0  0  0  0  0  0  0  0  0
    0.4857    2.2562    7.3051 O   0  0  0  0  0  0  0  0  0  0  0  0
   -1.1659    1.4778    5.9439 C   0  0  1  0  0  0  0  0  0  0  0  0
   -1.8393    1.0834    7.1385 O   0  0  0  0  0  0  0  0  0  0  0  0
   -1.6883    2.8614    5.3717 C   0  0  0  0  0  0  0  0  0  0  0  0
   -2.3101    2.6044    3.9828 C   0  0  0  0  0  0  0  0  0  0  0  0
   -2.9133    3.3043    6.2101 C   0  0  0  0  0  0  0  0  0  0  0  0
   -0.7027    4.1187    5.2577 C   0  0  1  0  0  0  0  0  0  0  0  0
   -0.6255    4.7892    6.4909 O   0  0  0  0  0  0  0  0  0  0  0  0
    5.8244   -3.8019   -0.3445 H   0  0  0  0  0  0  0  0  0  0  0  0
    4.7684   -4.6355   -1.5064 H   0  0  0  0  0  0  0  0  0  0  0  0
    5.7349   -5.5728   -0.3316 H   0  0  0  0  0  0  0  0  0  0  0  0
    2.2429   -5.7598    1.1242 H   0  0  0  0  0  0  0  0  0  0  0  0
    3.5563   -6.7335    0.4207 H   0  0  0  0  0  0  0  0  0  0  0  0
    2.5283   -5.6755   -0.6010 H   0  0  0  0  0  0  0  0  0  0  0  0
    5.8167   -3.2018    2.0687 H   0  0  0  0  0  0  0  0  0  0  0  0
    5.3666   -1.4057    3.6950 H   0  0  0  0  0  0  0  0  0  0  0  0
    4.0920   -2.8395    5.9905 H   0  0  0  0  0  0  0  0  0  0  0  0
    5.2982   -1.5520    6.0467 H   0  0  0  0  0  0  0  0  0  0  0  0
    3.7803    0.0280    5.3638 H   0  0  0  0  0  0  0  0  0  0  0  0
    0.6983   -2.6549    4.2340 H   0  0  0  0  0  0  0  0  0  0  0  0
    1.3180   -2.7882    5.8582 H   0  0  0  0  0  0  0  0  0  0  0  0
    2.2499   -3.3820    4.5570 H   0  0  0  0  0  0  0  0  0  0  0  0
    3.5362   -0.2078    3.1798 H   0  0  0  0  0  0  0  0  0  0  0  0
    1.9574   -2.6493    2.3081 H   0  0  0  0  0  0  0  0  0  0  0  0
    1.7241   -1.0206    0.6102 H   0  0  0  0  0  0  0  0  0  0  0  0
    4.4728   -1.8088    0.8352 H   0  0  0  0  0  0  0  0  0  0  0  0
    0.2552   -0.3032    4.4840 H   0  0  0  0  0  0  0  0  0  0  0  0
    0.6339   -1.7867    6.9857 H   0  0  0  0  0  0  0  0  0  0  0  0
    2.0006   -1.0824    8.9971 H   0  0  0  0  0  0  0  0  0  0  0  0
    3.5868   -1.5707    8.4343 H   0  0  0  0  0  0  0  0  0  0  0  0
    2.1777   -2.3746    7.8237 H   0  0  0  0  0  0  0  0  0  0  0  0
    2.6293    1.2814    8.3774 H   0  0  0  0  0  0  0  0  0  0  0  0
    4.1670    0.6356    7.9396 H   0  0  0  0  0  0  0  0  0  0  0  0
    3.4280    2.9735    7.2930 H   0  0  0  0  0  0  0  0  0  0  0  0
    4.9790    1.5718    5.5262 H   0  0  0  0  0  0  0  0  0  0  0  0
    2.9093    2.2559    3.3743 H   0  0  0  0  0  0  0  0  0  0  0  0
    1.9317    5.4782    6.3241 H   0  0  0  0  0  0  0  0  0  0  0  0
    4.2110    4.5620    5.0972 H   0  0  0  0  0  0  0  0  0  0  0  0
    3.4422    4.6100    3.5201 H   0  0  0  0  0  0  0  0  0  0  0  0
    2.2823    6.4204    4.2563 H   0  0  0  0  0  0  0  0  0  0  0  0
    0.5160    5.2276    2.8149 H   0  0  0  0  0  0  0  0  0  0  0  0
   -0.1607    3.2833    2.6797 H   0  0  0  0  0  0  0  0  0  0  0  0
    1.5854    3.2943    2.7008 H   0  0  0  0  0  0  0  0  0  0  0  0
    1.3936    2.3350    7.5112 H   0  0  0  0  0  0  0  0  0  0  0  0
   -1.4615    0.7110    5.2353 H   0  0  0  0  0  0  0  0  0  0  0  0
   -1.6102    1.7521    7.7816 H   0  0  0  0  0  0  0  0  0  0  0  0
   -2.5584    3.5268    3.4655 H   0  0  0  0  0  0  0  0  0  0  0  0
   -3.2454    2.0844    4.0661 H   0  0  0  0  0  0  0  0  0  0  0  0
   -1.7086    1.9914    3.3204 H   0  0  0  0  0  0  0  0  0  0  0  0
   -3.3894    4.1450    5.7194 H   0  0  0  0  0  0  0  0  0  0  0  0
   -2.6575    3.5775    7.2318 H   0  0  0  0  0  0  0  0  0  0  0  0
   -3.6563    2.5274    6.3053 H   0  0  0  0  0  0  0  0  0  0  0  0
   -1.3215    4.8159    4.6965 H   0  0  0  0  0  0  0  0  0  0  0  0
    0.0390    4.3249    7.0025 H   0  0  0  0  0  0  0  0  0  0  0  0
  1  2  1  0
  1 45  1  0
  1 46  1  0
  1 47  1  0
  2 16  1  0
  2  3  1  0
  2  4  1  0
  3 48  1  0
  3 49  1  0
  3 50  1  0
  4  5  1  0
  5 15  1  0
  5  6  1  0
  5 51  1  1
  6  7  1  0
  7 12  1  0
  7  8  1  0
  7 52  1  1
  8  9  1  0
  8 53  1  0
  8 54  1  0
  9 20  1  0
  9 10  1  0
  9 55  1  6
 10 11  1  1
 10 12  1  0
 10 17  1  0
 11 56  1  0
 11 57  1  0
 11 58  1  0
 12 13  1  0
 12 59  1  6
 13 14  1  0
 13 15  1  0
 13 60  1  1
 14 61  1  0
 15 16  1  0
 15 62  1  6
 17 35  1  0
 17 18  1  0
 17 63  1  6
 18 36  1  0
 18 19  1  1
 18 20  1  0
 19 64  1  0
 20 21  1  1
 20 22  1  0
 21 65  1  0
 21 66  1  0
 21 67  1  0
 22 23  1  0
 22 68  1  0
 22 69  1  0
 23 24  1  0
 23 25  1  0
 23 70  1  1
 24 71  1  0
 25 35  1  0
 25 26  1  6
 25 27  1  0
 26 72  1  0
 27 28  1  1
 27 29  1  0
 27 31  1  0
 28 73  1  0
 29 30  1  0
 29 74  1  0
 29 75  1  0
 30 76  1  0
 31 43  1  0
 31 32  1  6
 31 33  1  0
 32 77  1  0
 33 34  1  0
 33 78  1  0
 33 79  1  0
 35 34  1  6
 35 36  1  0
 36 37  1  1
 36 38  1  0
 37 80  1  0
 38 39  1  0
 38 40  1  0
 38 81  1  6
 39 82  1  0
 40 41  1  0
 40 42  1  0
 40 43  1  0
 41 83  1  0
 41 84  1  0
 41 85  1  0
 42 86  1  0
 42 87  1  0
 42 88  1  0
 43 44  1  0
 43 89  1  6
 44 90  1  0
M  END
>  <i_m_ct_stereo_status>  (358) 
1

>  <s_m_source_file>  (358) 
/var/tmp/pbs.5076255.sched01/tmpt25ahaql/1236iipj8y0.sdf

>  <i_m_source_file_index>  (358) 
26

>  <i_lp_mmshare_version>  (358) 
48012

>  <i_f3d_flags>  (358) 
0

>  <s_epik_input>  (358) 
W0NIM11DKE8xKShbQ0gzXSlPW0NASF0oTzIpW0NAQEhdMVtDQEhdKFtPSF0pW0NAQEhdM1tDQEhdMltDSDJdW0NAQEhdKFtDQEBdMyhbQ0gzXSlbQ0BASF00W0NAQF01NjcpW0NAXTgoW0NIM10pW0NAQF00KFtPSF0pW0NAXTcoW09IXSlbQ0BASF0oW09IXSlDKFtDSDNdKShbQ0gzXSlbQ0BASF0oW09IXSlbQ0BdKFtPSF0pKFtDSDJdTzYpW0NAXShbT0hdKShbQ0gyXVtPSF0pW0NAQF01KFtPSF0pW0NAQEhdKFtDSDJdOClbT0hd

>  <s_epik_cmdline>  (358) 
J2VwaWtfcHl0aG9uJywgJy1waHQnLCAnMi4wJywgJy1waCcsICc3LjAnLCAnLXRuJywgJzgnLCAnLW1hJywgJzIwMCcsICctaW1hZScsICc8aW5maWxlLm1hZT4nLCAnLW9tYWUnLCAnPG91dGZpbGUubWFlPic=

>  <r_lp_tautomer_probability>  (358) 
1

>  <r_epik_Ionization_Penalty>  (358) 
8.01544e-07

>  <r_epik_Ionization_Penalty_Charging>  (358) 
0

>  <r_epik_Ionization_Penalty_Neutral>  (358) 
8.01544e-07

>  <r_epik_State_Penalty>  (358) 
-0

>  <r_epik_Charging_Adjusted_Penalty>  (358) 
0

>  <i_epik_Tot_Q>  (358) 
0

>  <i_epik_Tot_abs_Q>  (358) 
0

>  <s_epik_Chemistry_Notes>  (358) 
This compound contains an acetal/aminal-like group ( X-CH(R)-Y where X, Y are N, S, or O) that may be acid/base labile, releasing an aldehyde.

>  <s_lp_Force_Field>  (358) 
OPLS3e

>  <r_lp_Energy>  (358) 
173.005

>  <b_lp_Chiralities_Consistent>  (358) 
1

>  <s_lp_Variant>  (358) 
105:0-1

>  <s_i_glide_gridfile>  (358) 
pfpi4k_grid

>  <i_i_glide_lignum>  (358) 
26

>  <i_i_glide_rotatable_bonds>  (358) 
11

>  <r_i_docking_score>  (358) 
-4.02387

>  <r_i_glide_ligand_efficiency>  (358) 
-0.0914516

>  <r_i_glide_ligand_efficiency_sa>  (358) 
-0.322856

>  <r_i_glide_ligand_efficiency_ln>  (358) 
-0.841077

>  <r_i_glide_gscore>  (358) 
-4.02387

>  <r_i_glide_lipo>  (358) 
-0.186078

>  <r_i_glide_hbond>  (358) 
0

>  <r_i_glide_metal>  (358) 
-0

>  <r_i_glide_rewards>  (358) 
-1.07169

>  <r_i_glide_evdw>  (358) 
-20.1256

>  <r_i_glide_ecoul>  (358) 
-12.0866

>  <r_i_glide_erotb>  (358) 
0.0531658

>  <r_i_glide_esite>  (358) 
0

>  <r_i_glide_emodel>  (358) 
-44.9717

>  <r_i_glide_energy>  (358) 
-32.2122

>  <r_i_glide_einternal>  (358) 
9.0216

>  <r_i_glide_intrahb_reward>  (358) 
-1

>  <i_i_glide_confnum>  (358) 
2

>  <i_i_glide_posenum>  (358) 
1

>  <r_i_glide_eff_state_penalty>  (358) 
0

>  <ligand_id>  (358) 
105

>  <original_smiles>  (358) 
CC1(C)OC2OC3CC4C(C)(C3C(O)C2O1)C1C2(O)C4(C)CC(O)C3(O)C(O)(CO)C4(O)COC13C2(O)C(O)C(C)(C)C4O

>  <smiles>  (358) 
[H]OC([H])([H])C1(O[H])C2(O[H])C([H])([H])OC34C5([H])C(O[H])(C3(O[H])C([H])(O[H])C(C([H])([H])[H])(C([H])([H])[H])C2([H])O[H])C(C([H])([H])[H])(C([H])([H])C([H])(O[H])C14O[H])C1([H])C([H])([H])C2([H])OC3([H])OC(C([H])([H])[H])(C([H])([H])[H])OC3([H])C([H])(O[H])C2([H])C51C([H])([H])[H]

$$$$
106:0:0
     RDKit          3D

 20 22  0  0  1  0  0  0  0  0999 V2000
    3.0183   -0.0016   -4.4672 C   0  0  0  0  0  0  0  0  0  0  0  0
    3.8714   -1.1506   -3.9206 C   0  0  2  0  0  0  0  0  0  0  0  0
    3.0487   -2.3910   -3.4684 C   0  0  0  0  0  0  0  0  0  0  0  0
    3.4017   -2.4679   -2.0210 C   0  0  0  0  0  0  0  0  0  0  0  0
    2.9263   -3.4007   -1.1694 N   0  0  0  0  0  0  0  0  0  0  0  0
    3.4114   -3.2361    0.1005 C   0  0  0  0  0  0  0  0  0  0  0  0
    3.0493   -4.2230    1.4878 S   0  0  0  0  0  0  0  0  0  0  0  0
    4.0356   -3.3326    2.5244 N   0  0  0  0  0  0  0  0  0  0  0  0
    4.6318   -2.3382    1.9264 N   0  0  0  0  0  0  0  0  0  0  0  0
    4.3136   -2.2359    0.5678 C   0  0  0  0  0  0  0  0  0  0  0  0
    4.7587   -1.3006   -0.3950 C   0  0  0  0  0  0  0  0  0  0  0  0
    4.2866   -1.4446   -1.7102 C   0  0  0  0  0  0  0  0  0  0  0  0
    4.6056   -0.6628   -2.7818 O   0  0  0  0  0  0  0  0  0  0  0  0
    2.4513   -0.2862   -5.3507 H   0  0  0  0  0  0  0  0  0  0  0  0
    3.6395    0.8538   -4.7309 H   0  0  0  0  0  0  0  0  0  0  0  0
    2.3050    0.3280   -3.7134 H   0  0  0  0  0  0  0  0  0  0  0  0
    4.5999   -1.4480   -4.6741 H   0  0  0  0  0  0  0  0  0  0  0  0
    1.9729   -2.2667   -3.6029 H   0  0  0  0  0  0  0  0  0  0  0  0
    3.3658   -3.3007   -3.9806 H   0  0  0  0  0  0  0  0  0  0  0  0
    5.4434   -0.5100   -0.1342 H   0  0  0  0  0  0  0  0  0  0  0  0
  1  2  1  0
  1 14  1  0
  1 15  1  0
  1 16  1  0
  2 13  1  0
  2  3  1  0
  2 17  1  6
  3  4  1  0
  3 18  1  0
  3 19  1  0
  4 12  2  0
  4  5  1  0
  5  6  2  0
  6 10  1  0
  6  7  1  0
  7  8  1  0
  8  9  2  0
  9 10  1  0
 10 11  2  0
 11 12  1  0
 11 20  1  0
 12 13  1  0
M  END
>  <i_m_ct_stereo_status>  (359) 
1

>  <s_m_source_file>  (359) 
/var/tmp/pbs.5076255.sched01/tmpt25ahaql/1236iipj8y0.sdf

>  <i_m_source_file_index>  (359) 
27

>  <i_lp_mmshare_version>  (359) 
48012

>  <i_f3d_flags>  (359) 
0

>  <s_epik_input>  (359) 
W0NIM11bQ0BIXShbQ0gyXTEpT2MoYzEyKVtjSF1jM2MobjIpc25uMw==

>  <s_epik_cmdline>  (359) 
J2VwaWtfcHl0aG9uJywgJy1waHQnLCAnMi4wJywgJy1waCcsICc3LjAnLCAnLXRuJywgJzgnLCAnLW1hJywgJzIwMCcsICctaW1hZScsICc8aW5maWxlLm1hZT4nLCAnLW9tYWUnLCAnPG91dGZpbGUubWFlPic=

>  <r_lp_tautomer_probability>  (359) 
1

>  <r_epik_Ionization_Penalty>  (359) 
2.29673e-11

>  <r_epik_Ionization_Penalty_Charging>  (359) 
0

>  <r_epik_Ionization_Penalty_Neutral>  (359) 
2.29673e-11

>  <r_epik_State_Penalty>  (359) 
-0

>  <r_epik_Charging_Adjusted_Penalty>  (359) 
0

>  <i_epik_Tot_Q>  (359) 
0

>  <i_epik_Tot_abs_Q>  (359) 
0

>  <s_lp_Force_Field>  (359) 
OPLS3e

>  <r_lp_Energy>  (359) 
12.6797

>  <b_lp_Chiralities_Consistent>  (359) 
1

>  <s_lp_Variant>  (359) 
106:0-1

>  <s_i_glide_gridfile>  (359) 
pfpi4k_grid

>  <i_i_glide_lignum>  (359) 
27

>  <i_i_glide_rotatable_bonds>  (359) 
0

>  <r_i_docking_score>  (359) 
-3.50646

>  <r_i_glide_ligand_efficiency>  (359) 
-0.269728

>  <r_i_glide_ligand_efficiency_sa>  (359) 
-0.63422

>  <r_i_glide_ligand_efficiency_ln>  (359) 
-0.983594

>  <r_i_glide_gscore>  (359) 
-3.50646

>  <r_i_glide_lipo>  (359) 
-0.459347

>  <r_i_glide_hbond>  (359) 
0

>  <r_i_glide_metal>  (359) 
-0

>  <r_i_glide_rewards>  (359) 
-2.09164

>  <r_i_glide_evdw>  (359) 
-21.9369

>  <r_i_glide_ecoul>  (359) 
0.942458

>  <r_i_glide_erotb>  (359) 
0

>  <r_i_glide_esite>  (359) 
0

>  <r_i_glide_emodel>  (359) 
-25.6008

>  <r_i_glide_energy>  (359) 
-20.9945

>  <r_i_glide_einternal>  (359) 
0

>  <r_i_glide_intrahb_reward>  (359) 
-0

>  <i_i_glide_confnum>  (359) 
2

>  <i_i_glide_posenum>  (359) 
4

>  <r_i_glide_eff_state_penalty>  (359) 
0

>  <ligand_id>  (359) 
106

>  <original_smiles>  (359) 
CC1Cc2nc3snnc3cc2O1

>  <smiles>  (359) 
[H]c1c2c(nc3snnc13)C([H])([H])C([H])(C([H])([H])[H])O2

$$$$
106:0:1
     RDKit          3D

 20 22  0  0  1  0  0  0  0  0999 V2000
   -1.0261   -8.5776    2.5033 C   0  0  0  0  0  0  0  0  0  0  0  0
    0.2056   -8.0862    3.2682 C   0  0  2  0  0  0  0  0  0  0  0  0
    0.2173   -8.5080    4.7666 C   0  0  0  0  0  0  0  0  0  0  0  0
    0.2178   -7.1802    5.4459 C   0  0  0  0  0  0  0  0  0  0  0  0
    0.2157   -7.0110    6.7862 N   0  0  0  0  0  0  0  0  0  0  0  0
    0.2161   -5.6906    7.1493 C   0  0  0  0  0  0  0  0  0  0  0  0
    0.2094   -5.0534    8.7687 S   0  0  0  0  0  0  0  0  0  0  0  0
    0.1892   -3.4450    8.2612 N   0  0  0  0  0  0  0  0  0  0  0  0
    0.1899   -3.3259    6.9622 N   0  0  0  0  0  0  0  0  0  0  0  0
    0.2138   -4.5543    6.2898 C   0  0  0  0  0  0  0  0  0  0  0  0
    0.2250   -4.8256    4.9004 C   0  0  0  0  0  0  0  0  0  0  0  0
    0.2164   -6.1724    4.4923 C   0  0  0  0  0  0  0  0  0  0  0  0
    0.2130   -6.6441    3.2080 O   0  0  0  0  0  0  0  0  0  0  0  0
   -1.0784   -9.6666    2.4984 H   0  0  0  0  0  0  0  0  0  0  0  0
   -0.9894   -8.2392    1.4675 H   0  0  0  0  0  0  0  0  0  0  0  0
   -1.9441   -8.1955    2.9522 H   0  0  0  0  0  0  0  0  0  0  0  0
    1.1094   -8.4496    2.7773 H   0  0  0  0  0  0  0  0  0  0  0  0
   -0.6570   -9.0929    5.0580 H   0  0  0  0  0  0  0  0  0  0  0  0
    1.1161   -9.0690    5.0301 H   0  0  0  0  0  0  0  0  0  0  0  0
    0.2202   -4.0279    4.1780 H   0  0  0  0  0  0  0  0  0  0  0  0
  1  2  1  0
  1 14  1  0
  1 15  1  0
  1 16  1  0
  2 13  1  0
  2  3  1  0
  2 17  1  6
  3  4  1  0
  3 18  1  0
  3 19  1  0
  4 12  2  0
  4  5  1  0
  5  6  2  0
  6 10  1  0
  6  7  1  0
  7  8  1  0
  8  9  2  0
  9 10  1  0
 10 11  2  0
 11 12  1  0
 11 20  1  0
 12 13  1  0
M  END
>  <i_m_ct_stereo_status>  (360) 
1

>  <s_m_source_file>  (360) 
/var/tmp/pbs.5076255.sched01/tmpt25ahaql/1236iipj8y0.sdf

>  <i_m_source_file_index>  (360) 
27

>  <i_lp_mmshare_version>  (360) 
48012

>  <i_f3d_flags>  (360) 
0

>  <s_epik_input>  (360) 
W0NIM11bQ0BIXShbQ0gyXTEpT2MoYzEyKVtjSF1jM2MobjIpc25uMw==

>  <s_epik_cmdline>  (360) 
J2VwaWtfcHl0aG9uJywgJy1waHQnLCAnMi4wJywgJy1waCcsICc3LjAnLCAnLXRuJywgJzgnLCAnLW1hJywgJzIwMCcsICctaW1hZScsICc8aW5maWxlLm1hZT4nLCAnLW9tYWUnLCAnPG91dGZpbGUubWFlPic=

>  <r_lp_tautomer_probability>  (360) 
1

>  <r_epik_Ionization_Penalty>  (360) 
2.29673e-11

>  <r_epik_Ionization_Penalty_Charging>  (360) 
0

>  <r_epik_Ionization_Penalty_Neutral>  (360) 
2.29673e-11

>  <r_epik_State_Penalty>  (360) 
-0

>  <r_epik_Charging_Adjusted_Penalty>  (360) 
0

>  <i_epik_Tot_Q>  (360) 
0

>  <i_epik_Tot_abs_Q>  (360) 
0

>  <s_lp_Force_Field>  (360) 
OPLS3e

>  <r_lp_Energy>  (360) 
12.6797

>  <b_lp_Chiralities_Consistent>  (360) 
1

>  <s_lp_Variant>  (360) 
106:0-1

>  <s_i_glide_gridfile>  (360) 
pfpi4k_grid

>  <i_i_glide_lignum>  (360) 
27

>  <i_i_glide_rotatable_bonds>  (360) 
0

>  <r_i_docking_score>  (360) 
-3.31714

>  <r_i_glide_ligand_efficiency>  (360) 
-0.255164

>  <r_i_glide_ligand_efficiency_sa>  (360) 
-0.599977

>  <r_i_glide_ligand_efficiency_ln>  (360) 
-0.930486

>  <r_i_glide_gscore>  (360) 
-3.31714

>  <r_i_glide_lipo>  (360) 
0

>  <r_i_glide_hbond>  (360) 
-0.0254124

>  <r_i_glide_metal>  (360) 
-0

>  <r_i_glide_rewards>  (360) 
-2.09164

>  <r_i_glide_evdw>  (360) 
-13.9611

>  <r_i_glide_ecoul>  (360) 
-3.04308

>  <r_i_glide_erotb>  (360) 
0

>  <r_i_glide_esite>  (360) 
-0.0455712

>  <r_i_glide_emodel>  (360) 
-21.3722

>  <r_i_glide_energy>  (360) 
-17.0042

>  <r_i_glide_einternal>  (360) 
0

>  <r_i_glide_intrahb_reward>  (360) 
-0

>  <i_i_glide_confnum>  (360) 
1

>  <i_i_glide_posenum>  (360) 
3

>  <r_i_glide_eff_state_penalty>  (360) 
0

>  <ligand_id>  (360) 
106

>  <original_smiles>  (360) 
CC1Cc2nc3snnc3cc2O1

>  <smiles>  (360) 
[H]c1c2c(nc3snnc13)C([H])([H])C([H])(C([H])([H])[H])O2

$$$$
106:0:2
     RDKit          3D

 20 22  0  0  1  0  0  0  0  0999 V2000
   -3.0546    2.9559   10.0646 C   0  0  0  0  0  0  0  0  0  0  0  0
   -1.7990    3.1343    9.2055 C   0  0  2  0  0  0  0  0  0  0  0  0
   -2.0076    4.0895    7.9968 C   0  0  0  0  0  0  0  0  0  0  0  0
   -1.7330    3.1796    6.8472 C   0  0  0  0  0  0  0  0  0  0  0  0
   -1.7939    3.5501    5.5502 N   0  0  0  0  0  0  0  0  0  0  0  0
   -1.4837    2.5148    4.7025 C   0  0  0  0  0  0  0  0  0  0  0  0
   -1.4455    2.5595    2.9623 S   0  0  0  0  0  0  0  0  0  0  0  0
   -0.9799    0.9485    2.8130 N   0  0  0  0  0  0  0  0  0  0  0  0
   -0.8657    0.3456    3.9622 N   0  0  0  0  0  0  0  0  0  0  0  0
   -1.1291    1.1800    5.0510 C   0  0  0  0  0  0  0  0  0  0  0  0
   -1.0899    0.8879    6.4330 C   0  0  0  0  0  0  0  0  0  0  0  0
   -1.4083    1.9198    7.3298 C   0  0  0  0  0  0  0  0  0  0  0  0
   -1.4236    1.8420    8.6923 O   0  0  0  0  0  0  0  0  0  0  0  0
   -3.3806    3.9006   10.4993 H   0  0  0  0  0  0  0  0  0  0  0  0
   -2.8618    2.2639   10.8788 H   0  0  0  0  0  0  0  0  0  0  0  0
   -3.8788    2.5510    9.4762 H   0  0  0  0  0  0  0  0  0  0  0  0
   -0.9826    3.5053    9.8252 H   0  0  0  0  0  0  0  0  0  0  0  0
   -3.0184    4.4921    7.9401 H   0  0  0  0  0  0  0  0  0  0  0  0
   -1.2984    4.9186    8.0000 H   0  0  0  0  0  0  0  0  0  0  0  0
   -0.8255   -0.0938    6.7881 H   0  0  0  0  0  0  0  0  0  0  0  0
  1  2  1  0
  1 14  1  0
  1 15  1  0
  1 16  1  0
  2 13  1  0
  2  3  1  0
  2 17  1  1
  3  4  1  0
  3 18  1  0
  3 19  1  0
  4 12  2  0
  4  5  1  0
  5  6  2  0
  6 10  1  0
  6  7  1  0
  7  8  1  0
  8  9  2  0
  9 10  1  0
 10 11  2  0
 11 12  1  0
 11 20  1  0
 12 13  1  0
M  END
>  <i_m_ct_stereo_status>  (361) 
1

>  <s_m_source_file>  (361) 
/var/tmp/pbs.5076255.sched01/tmpt25ahaql/1236iipj8y0.sdf

>  <i_m_source_file_index>  (361) 
27

>  <i_lp_mmshare_version>  (361) 
48012

>  <i_f3d_flags>  (361) 
0

>  <s_epik_input>  (361) 
W0NIM11bQ0BIXShbQ0gyXTEpT2MoYzEyKVtjSF1jM2MobjIpc25uMw==

>  <s_epik_cmdline>  (361) 
J2VwaWtfcHl0aG9uJywgJy1waHQnLCAnMi4wJywgJy1waCcsICc3LjAnLCAnLXRuJywgJzgnLCAnLW1hJywgJzIwMCcsICctaW1hZScsICc8aW5maWxlLm1hZT4nLCAnLW9tYWUnLCAnPG91dGZpbGUubWFlPic=

>  <r_lp_tautomer_probability>  (361) 
1

>  <r_epik_Ionization_Penalty>  (361) 
2.29673e-11

>  <r_epik_Ionization_Penalty_Charging>  (361) 
0

>  <r_epik_Ionization_Penalty_Neutral>  (361) 
2.29673e-11

>  <r_epik_State_Penalty>  (361) 
-0

>  <r_epik_Charging_Adjusted_Penalty>  (361) 
0

>  <i_epik_Tot_Q>  (361) 
0

>  <i_epik_Tot_abs_Q>  (361) 
0

>  <s_lp_Force_Field>  (361) 
OPLS3e

>  <r_lp_Energy>  (361) 
12.6797

>  <b_lp_Chiralities_Consistent>  (361) 
1

>  <s_lp_Variant>  (361) 
106:0-1

>  <s_i_glide_gridfile>  (361) 
pfpi4k_grid

>  <i_i_glide_lignum>  (361) 
27

>  <i_i_glide_rotatable_bonds>  (361) 
0

>  <r_i_docking_score>  (361) 
-3.10261

>  <r_i_glide_ligand_efficiency>  (361) 
-0.238663

>  <r_i_glide_ligand_efficiency_sa>  (361) 
-0.561176

>  <r_i_glide_ligand_efficiency_ln>  (361) 
-0.870311

>  <r_i_glide_gscore>  (361) 
-3.10261

>  <r_i_glide_lipo>  (361) 
-0.0569127

>  <r_i_glide_hbond>  (361) 
0

>  <r_i_glide_metal>  (361) 
-0

>  <r_i_glide_rewards>  (361) 
-2.09164

>  <r_i_glide_evdw>  (361) 
-18.1289

>  <r_i_glide_ecoul>  (361) 
0.157671

>  <r_i_glide_erotb>  (361) 
0

>  <r_i_glide_esite>  (361) 
-0.0712698

>  <r_i_glide_emodel>  (361) 
-22.0537

>  <r_i_glide_energy>  (361) 
-17.9712

>  <r_i_glide_einternal>  (361) 
0

>  <r_i_glide_intrahb_reward>  (361) 
-0

>  <i_i_glide_confnum>  (361) 
2

>  <i_i_glide_posenum>  (361) 
29

>  <r_i_glide_eff_state_penalty>  (361) 
0

>  <ligand_id>  (361) 
106

>  <original_smiles>  (361) 
CC1Cc2nc3snnc3cc2O1

>  <smiles>  (361) 
[H]c1c2c(nc3snnc13)C([H])([H])C([H])(C([H])([H])[H])O2

$$$$
107:0:0
     RDKit          3D

 48 51  0  0  1  0  0  0  0  0999 V2000
    5.6145   -1.3231    0.9031 C   0  0  0  0  0  0  0  0  0  0  0  0
    4.4252   -2.1379    0.3145 C   0  0  1  0  0  0  0  0  0  0  0  0
    3.8501   -1.3085   -0.8757 C   0  0  0  0  0  0  0  0  0  0  0  0
    3.2996   -2.1074   -2.0811 C   0  0  0  0  0  0  0  0  0  0  0  0
    4.3778   -2.5515   -3.0742 C   0  0  0  0  0  0  0  0  0  0  0  0
    4.1283   -2.4484   -4.2802 O   0  0  0  0  0  0  0  0  0  0  0  0
    5.6801   -3.0587   -2.5931 C   0  0  0  0  0  0  0  0  0  0  0  0
    5.9410   -3.4358   -1.3223 C   0  0  0  0  0  0  0  0  0  0  0  0
    4.9531   -3.5240   -0.1709 C   0  0  1  0  0  0  0  0  0  0  0  0
    5.5121   -4.3906    0.9901 C   0  0  0  0  0  0  0  0  0  0  0  0
    4.7213   -4.2486    2.3097 C   0  0  0  0  0  0  0  0  0  0  0  0
    3.2815   -3.7868    2.0368 C   0  0  1  0  0  0  0  0  0  0  0  0
    2.3621   -3.9193    3.2556 C   0  0  0  0  0  0  0  0  0  0  0  0
    1.7127   -2.8712    3.8143 C   0  0  0  0  0  0  0  0  0  0  0  0
    1.8786   -1.4535    3.2917 C   0  0  0  0  0  0  0  0  0  0  0  0
    3.1471   -1.2751    2.4445 C   0  0  0  0  0  0  0  0  0  0  0  0
    3.2724   -2.3772    1.3715 C   0  0  1  0  0  0  0  0  0  0  0  0
    0.7431   -2.9941    4.9935 C   0  0  0  0  0  0  0  0  0  0  0  0
    0.5258   -4.4327    5.4637 C   0  0  0  0  0  0  0  0  0  0  0  0
    0.1194   -4.6834    6.5973 O   0  0  0  0  0  0  0  0  0  0  0  0
    0.7883   -5.5367    4.4481 C   0  0  0  0  0  0  0  0  0  0  0  0
    2.1599   -5.3381    3.7816 C   0  0  0  0  0  0  0  0  0  0  0  0
    5.3287   -0.3014    1.1524 H   0  0  0  0  0  0  0  0  0  0  0  0
    6.4339   -1.2441    0.1881 H   0  0  0  0  0  0  0  0  0  0  0  0
    6.0283   -1.7758    1.8028 H   0  0  0  0  0  0  0  0  0  0  0  0
    3.0526   -0.6621   -0.5072 H   0  0  0  0  0  0  0  0  0  0  0  0
    4.5991   -0.6107   -1.2501 H   0  0  0  0  0  0  0  0  0  0  0  0
    2.6822   -2.9522   -1.7725 H   0  0  0  0  0  0  0  0  0  0  0  0
    2.6360   -1.4482   -2.6370 H   0  0  0  0  0  0  0  0  0  0  0  0
    6.4875   -3.0876   -3.3083 H   0  0  0  0  0  0  0  0  0  0  0  0
    6.9447   -3.7529   -1.0918 H   0  0  0  0  0  0  0  0  0  0  0  0
    4.1093   -4.0914   -0.5692 H   0  0  0  0  0  0  0  0  0  0  0  0
    5.4856   -5.4345    0.6759 H   0  0  0  0  0  0  0  0  0  0  0  0
    6.5616   -4.1672    1.1870 H   0  0  0  0  0  0  0  0  0  0  0  0
    4.7496   -5.1953    2.8516 H   0  0  0  0  0  0  0  0  0  0  0  0
    5.2053   -3.5247    2.9651 H   0  0  0  0  0  0  0  0  0  0  0  0
    2.8550   -4.4825    1.3127 H   0  0  0  0  0  0  0  0  0  0  0  0
    0.9990   -1.2124    2.6928 H   0  0  0  0  0  0  0  0  0  0  0  0
    1.9012   -0.7550    4.1321 H   0  0  0  0  0  0  0  0  0  0  0  0
    3.1306   -0.2861    1.9866 H   0  0  0  0  0  0  0  0  0  0  0  0
    4.0110   -1.2970    3.1145 H   0  0  0  0  0  0  0  0  0  0  0  0
    2.3301   -2.3469    0.8243 H   0  0  0  0  0  0  0  0  0  0  0  0
    1.1171   -2.4039    5.8292 H   0  0  0  0  0  0  0  0  0  0  0  0
   -0.2219   -2.5751    4.7156 H   0  0  0  0  0  0  0  0  0  0  0  0
    0.7201   -6.5144    4.9241 H   0  0  0  0  0  0  0  0  0  0  0  0
   -0.0029   -5.4960    3.6975 H   0  0  0  0  0  0  0  0  0  0  0  0
    2.2720   -6.0619    2.9725 H   0  0  0  0  0  0  0  0  0  0  0  0
    2.9481   -5.5502    4.5054 H   0  0  0  0  0  0  0  0  0  0  0  0
  2  1  1  1
  1 23  1  0
  1 24  1  0
  1 25  1  0
  2  9  1  0
  2 17  1  0
  2  3  1  0
  3  4  1  0
  3 26  1  0
  3 27  1  0
  4  5  1  0
  4 28  1  0
  4 29  1  0
  5  6  2  0
  5  7  1  0
  7  8  2  0
  7 30  1  0
  8  9  1  0
  8 31  1  0
  9 10  1  0
  9 32  1  6
 10 11  1  0
 10 33  1  0
 10 34  1  0
 11 12  1  0
 11 35  1  0
 11 36  1  0
 12 17  1  0
 12 13  1  0
 12 37  1  6
 13 22  1  0
 13 14  2  0
 14 15  1  0
 14 18  1  0
 15 16  1  0
 15 38  1  0
 15 39  1  0
 16 17  1  0
 16 40  1  0
 16 41  1  0
 17 42  1  6
 18 19  1  0
 18 43  1  0
 18 44  1  0
 19 20  2  0
 19 21  1  0
 21 22  1  0
 21 45  1  0
 21 46  1  0
 22 47  1  0
 22 48  1  0
M  END
>  <i_m_ct_stereo_status>  (362) 
1

>  <s_m_source_file>  (362) 
/var/tmp/pbs.5076255.sched01/tmpt25ahaql/1236iipj8y0.sdf

>  <i_m_source_file_index>  (362) 
28

>  <i_lp_mmshare_version>  (362) 
48012

>  <i_f3d_flags>  (362) 
0

>  <s_epik_input>  (362) 
W0NIMl0xW0NIMl1DKD1PKVtDSF09W0NIXVtDQEhdKFtDQEBdMTJbQ0gzXSlbQ0gyXVtDSDJdW0NASF0zQzQ9QyhbQ0gyXVtDSDJdW0NAQEhdMjMpW0NIMl1DKD1PKVtDSDJdW0NIMl00

>  <s_epik_cmdline>  (362) 
J2VwaWtfcHl0aG9uJywgJy1waHQnLCAnMi4wJywgJy1waCcsICc3LjAnLCAnLXRuJywgJzgnLCAnLW1hJywgJzIwMCcsICctaW1hZScsICc8aW5maWxlLm1hZT4nLCAnLW9tYWUnLCAnPG91dGZpbGUubWFlPic=

>  <r_lp_tautomer_probability>  (362) 
1

>  <r_epik_Ionization_Penalty>  (362) 
2.50355e-13

>  <r_epik_Ionization_Penalty_Charging>  (362) 
0

>  <r_epik_Ionization_Penalty_Neutral>  (362) 
2.50355e-13

>  <r_epik_State_Penalty>  (362) 
-0

>  <r_epik_Charging_Adjusted_Penalty>  (362) 
0

>  <i_epik_Tot_Q>  (362) 
0

>  <i_epik_Tot_abs_Q>  (362) 
0

>  <s_lp_Force_Field>  (362) 
OPLS3e

>  <r_lp_Energy>  (362) 
44.0758

>  <b_lp_Chiralities_Consistent>  (362) 
1

>  <s_lp_Variant>  (362) 
107:0-1

>  <s_i_glide_gridfile>  (362) 
pfpi4k_grid

>  <i_i_glide_lignum>  (362) 
28

>  <i_i_glide_rotatable_bonds>  (362) 
0

>  <r_i_docking_score>  (362) 
-4.39502

>  <r_i_glide_ligand_efficiency>  (362) 
-0.199773

>  <r_i_glide_ligand_efficiency_sa>  (362) 
-0.559773

>  <r_i_glide_ligand_efficiency_ln>  (362) 
-1.0743

>  <r_i_glide_gscore>  (362) 
-4.39502

>  <r_i_glide_lipo>  (362) 
-0.601542

>  <r_i_glide_hbond>  (362) 
-0.32

>  <r_i_glide_metal>  (362) 
-0

>  <r_i_glide_rewards>  (362) 
-1.5425

>  <r_i_glide_evdw>  (362) 
-25.508

>  <r_i_glide_ecoul>  (362) 
-4.34699

>  <r_i_glide_erotb>  (362) 
0

>  <r_i_glide_esite>  (362) 
-0.00352479

>  <r_i_glide_emodel>  (362) 
-38.344

>  <r_i_glide_energy>  (362) 
-29.855

>  <r_i_glide_einternal>  (362) 
0

>  <r_i_glide_intrahb_reward>  (362) 
-0

>  <i_i_glide_confnum>  (362) 
1

>  <i_i_glide_posenum>  (362) 
8

>  <r_i_glide_eff_state_penalty>  (362) 
0

>  <ligand_id>  (362) 
107

>  <original_smiles>  (362) 
CC12CCC(=O)C=CC1CCC1C3=C(CCC12)CC(=O)CC3

>  <smiles>  (362) 
[H]C1=C([H])C2([H])C([H])([H])C([H])([H])C3([H])C4=C(C([H])([H])C(=O)C([H])([H])C4([H])[H])C([H])([H])C([H])([H])C3([H])C2(C([H])([H])[H])C([H])([H])C([H])([H])C1=O

$$$$
107:0:1
     RDKit          3D

 48 51  0  0  1  0  0  0  0  0999 V2000
    5.6180   -1.7800    1.0104 C   0  0  0  0  0  0  0  0  0  0  0  0
    4.4205   -2.4625    0.2847 C   0  0  1  0  0  0  0  0  0  0  0  0
    3.8543   -1.4232   -0.7327 C   0  0  0  0  0  0  0  0  0  0  0  0
    3.2987   -1.9845   -2.0639 C   0  0  0  0  0  0  0  0  0  0  0  0
    4.3756   -2.2547   -3.1192 C   0  0  0  0  0  0  0  0  0  0  0  0
    4.1478   -1.9312   -4.2844 O   0  0  0  0  0  0  0  0  0  0  0  0
    5.6598   -2.8580   -2.7220 C   0  0  0  0  0  0  0  0  0  0  0  0
    5.9261   -3.4555   -1.5510 C   0  0  0  0  0  0  0  0  0  0  0  0
    4.9345   -3.7438   -0.4411 C   0  0  1  0  0  0  0  0  0  0  0  0
    5.4903   -4.8127    0.5344 C   0  0  0  0  0  0  0  0  0  0  0  0
    4.6985   -4.9093    1.8566 C   0  0  0  0  0  0  0  0  0  0  0  0
    3.2637   -4.3916    1.6717 C   0  0  1  0  0  0  0  0  0  0  0  0
    2.3429   -4.7410    2.8452 C   0  0  0  0  0  0  0  0  0  0  0  0
    1.7080   -3.8059    3.5937 C   0  0  0  0  0  0  0  0  0  0  0  0
    1.8783   -2.3181    3.3359 C   0  0  0  0  0  0  0  0  0  0  0  0
    3.1474   -1.9983    2.5347 C   0  0  0  0  0  0  0  0  0  0  0  0
    3.2664   -2.8832    1.2775 C   0  0  1  0  0  0  0  0  0  0  0  0
    0.7360   -4.1372    4.7289 C   0  0  0  0  0  0  0  0  0  0  0  0
    0.5001   -5.6368    4.9224 C   0  0  0  0  0  0  0  0  0  0  0  0
    0.0893   -6.0882    5.9896 O   0  0  0  0  0  0  0  0  0  0  0  0
    0.7534   -6.5349    3.7197 C   0  0  0  0  0  0  0  0  0  0  0  0
    2.1282   -6.2304    3.1015 C   0  0  0  0  0  0  0  0  0  0  0  0
    5.3430   -0.8184    1.4443 H   0  0  0  0  0  0  0  0  0  0  0  0
    6.4393   -1.5798    0.3192 H   0  0  0  0  0  0  0  0  0  0  0  0
    6.0276   -2.3964    1.8110 H   0  0  0  0  0  0  0  0  0  0  0  0
    3.0621   -0.8455   -0.2558 H   0  0  0  0  0  0  0  0  0  0  0  0
    4.6109   -0.6756   -0.9755 H   0  0  0  0  0  0  0  0  0  0  0  0
    2.6733   -2.8646   -1.9150 H   0  0  0  0  0  0  0  0  0  0  0  0
    2.6445   -1.2255   -2.4916 H   0  0  0  0  0  0  0  0  0  0  0  0
    6.4710   -2.7767   -3.4348 H   0  0  0  0  0  0  0  0  0  0  0  0
    6.9278   -3.8120   -1.3836 H   0  0  0  0  0  0  0  0  0  0  0  0
    4.0918   -4.2213   -0.9439 H   0  0  0  0  0  0  0  0  0  0  0  0
    5.4553   -5.7770    0.0291 H   0  0  0  0  0  0  0  0  0  0  0  0
    6.5422   -4.6363    0.7652 H   0  0  0  0  0  0  0  0  0  0  0  0
    4.7214   -5.9410    2.2135 H   0  0  0  0  0  0  0  0  0  0  0  0
    5.1883   -4.3213    2.6321 H   0  0  0  0  0  0  0  0  0  0  0  0
    2.8334   -4.9407    0.8321 H   0  0  0  0  0  0  0  0  0  0  0  0
    1.0004   -1.9676    2.7931 H   0  0  0  0  0  0  0  0  0  0  0  0
    1.9065   -1.7871    4.2904 H   0  0  0  0  0  0  0  0  0  0  0  0
    3.1411   -0.9404    2.2661 H   0  0  0  0  0  0  0  0  0  0  0  0
    4.0122   -2.1491    3.1888 H   0  0  0  0  0  0  0  0  0  0  0  0
    2.3277   -2.7466    0.7437 H   0  0  0  0  0  0  0  0  0  0  0  0
    1.1119   -3.7125    5.6594 H   0  0  0  0  0  0  0  0  0  0  0  0
   -0.2227   -3.6616    4.5323 H   0  0  0  0  0  0  0  0  0  0  0  0
    0.6780   -7.5835    4.0097 H   0  0  0  0  0  0  0  0  0  0  0  0
   -0.0378   -6.3561    2.9891 H   0  0  0  0  0  0  0  0  0  0  0  0
    2.2355   -6.7920    2.1726 H   0  0  0  0  0  0  0  0  0  0  0  0
    2.9134   -6.5780    3.7745 H   0  0  0  0  0  0  0  0  0  0  0  0
  2  1  1  1
  1 23  1  0
  1 24  1  0
  1 25  1  0
  2  9  1  0
  2 17  1  0
  2  3  1  0
  3  4  1  0
  3 26  1  0
  3 27  1  0
  4  5  1  0
  4 28  1  0
  4 29  1  0
  5  6  2  0
  5  7  1  0
  7  8  2  0
  7 30  1  0
  8  9  1  0
  8 31  1  0
  9 10  1  0
  9 32  1  6
 10 11  1  0
 10 33  1  0
 10 34  1  0
 11 12  1  0
 11 35  1  0
 11 36  1  0
 12 17  1  0
 12 13  1  0
 12 37  1  6
 13 22  1  0
 13 14  2  0
 14 15  1  0
 14 18  1  0
 15 16  1  0
 15 38  1  0
 15 39  1  0
 16 17  1  0
 16 40  1  0
 16 41  1  0
 17 42  1  6
 18 19  1  0
 18 43  1  0
 18 44  1  0
 19 20  2  0
 19 21  1  0
 21 22  1  0
 21 45  1  0
 21 46  1  0
 22 47  1  0
 22 48  1  0
M  END
>  <i_m_ct_stereo_status>  (363) 
1

>  <s_m_source_file>  (363) 
/var/tmp/pbs.5076255.sched01/tmpt25ahaql/1236iipj8y0.sdf

>  <i_m_source_file_index>  (363) 
28

>  <i_lp_mmshare_version>  (363) 
48012

>  <i_f3d_flags>  (363) 
0

>  <s_epik_input>  (363) 
W0NIMl0xW0NIMl1DKD1PKVtDSF09W0NIXVtDQEhdKFtDQEBdMTJbQ0gzXSlbQ0gyXVtDSDJdW0NASF0zQzQ9QyhbQ0gyXVtDSDJdW0NAQEhdMjMpW0NIMl1DKD1PKVtDSDJdW0NIMl00

>  <s_epik_cmdline>  (363) 
J2VwaWtfcHl0aG9uJywgJy1waHQnLCAnMi4wJywgJy1waCcsICc3LjAnLCAnLXRuJywgJzgnLCAnLW1hJywgJzIwMCcsICctaW1hZScsICc8aW5maWxlLm1hZT4nLCAnLW9tYWUnLCAnPG91dGZpbGUubWFlPic=

>  <r_lp_tautomer_probability>  (363) 
1

>  <r_epik_Ionization_Penalty>  (363) 
2.50355e-13

>  <r_epik_Ionization_Penalty_Charging>  (363) 
0

>  <r_epik_Ionization_Penalty_Neutral>  (363) 
2.50355e-13

>  <r_epik_State_Penalty>  (363) 
-0

>  <r_epik_Charging_Adjusted_Penalty>  (363) 
0

>  <i_epik_Tot_Q>  (363) 
0

>  <i_epik_Tot_abs_Q>  (363) 
0

>  <s_lp_Force_Field>  (363) 
OPLS3e

>  <r_lp_Energy>  (363) 
44.0758

>  <b_lp_Chiralities_Consistent>  (363) 
1

>  <s_lp_Variant>  (363) 
107:0-1

>  <s_i_glide_gridfile>  (363) 
pfpi4k_grid

>  <i_i_glide_lignum>  (363) 
28

>  <i_i_glide_rotatable_bonds>  (363) 
0

>  <r_i_docking_score>  (363) 
-4.27651

>  <r_i_glide_ligand_efficiency>  (363) 
-0.194387

>  <r_i_glide_ligand_efficiency_sa>  (363) 
-0.544679

>  <r_i_glide_ligand_efficiency_ln>  (363) 
-1.04533

>  <r_i_glide_gscore>  (363) 
-4.27651

>  <r_i_glide_lipo>  (363) 
-0.559607

>  <r_i_glide_hbond>  (363) 
-0.32

>  <r_i_glide_metal>  (363) 
-0

>  <r_i_glide_rewards>  (363) 
-1.53899

>  <r_i_glide_evdw>  (363) 
-25.3813

>  <r_i_glide_ecoul>  (363) 
-3.85407

>  <r_i_glide_erotb>  (363) 
0

>  <r_i_glide_esite>  (363) 
-0.0107342

>  <r_i_glide_emodel>  (363) 
-37.4743

>  <r_i_glide_energy>  (363) 
-29.2354

>  <r_i_glide_einternal>  (363) 
0

>  <r_i_glide_intrahb_reward>  (363) 
-0

>  <i_i_glide_confnum>  (363) 
2

>  <i_i_glide_posenum>  (363) 
26

>  <r_i_glide_eff_state_penalty>  (363) 
0

>  <ligand_id>  (363) 
107

>  <original_smiles>  (363) 
CC12CCC(=O)C=CC1CCC1C3=C(CCC12)CC(=O)CC3

>  <smiles>  (363) 
[H]C1=C([H])C2([H])C([H])([H])C([H])([H])C3([H])C4=C(C([H])([H])C(=O)C([H])([H])C4([H])[H])C([H])([H])C([H])([H])C3([H])C2(C([H])([H])[H])C([H])([H])C([H])([H])C1=O

$$$$
107:0:2
     RDKit          3D

 48 51  0  0  1  0  0  0  0  0999 V2000
    5.4938   -0.7546    0.5631 C   0  0  0  0  0  0  0  0  0  0  0  0
    4.3869   -1.7739    0.1716 C   0  0  1  0  0  0  0  0  0  0  0  0
    3.8760   -1.3790   -1.2517 C   0  0  0  0  0  0  0  0  0  0  0  0
    3.4432   -2.5333   -2.1817 C   0  0  0  0  0  0  0  0  0  0  0  0
    4.6110   -3.1926   -2.9222 C   0  0  0  0  0  0  0  0  0  0  0  0
    4.4482   -3.4903   -4.1053 O   0  0  0  0  0  0  0  0  0  0  0  0
    5.8947   -3.4375   -2.2265 C   0  0  0  0  0  0  0  0  0  0  0  0
    6.0728   -3.4111   -0.8930 C   0  0  0  0  0  0  0  0  0  0  0  0
    5.0023   -3.2077    0.1706 C   0  0  1  0  0  0  0  0  0  0  0  0
    5.5027   -3.6462    1.5725 C   0  0  0  0  0  0  0  0  0  0  0  0
    4.6075   -3.1601    2.7334 C   0  0  0  0  0  0  0  0  0  0  0  0
    3.1770   -2.8892    2.2438 C   0  0  1  0  0  0  0  0  0  0  0  0
    2.1702   -2.6980    3.3824 C   0  0  0  0  0  0  0  0  0  0  0  0
    1.4374   -1.5728    3.5485 C   0  0  0  0  0  0  0  0  0  0  0  0
    1.5922   -0.3718    2.6278 C   0  0  0  0  0  0  0  0  0  0  0  0
    2.9154   -0.3826    1.8509 C   0  0  0  0  0  0  0  0  0  0  0  0
    3.1670   -1.7504    1.1798 C   0  0  1  0  0  0  0  0  0  0  0  0
    0.3843   -1.3887    4.6454 C   0  0  0  0  0  0  0  0  0  0  0  0
    0.1817   -2.6274    5.5204 C   0  0  0  0  0  0  0  0  0  0  0  0
   -0.3166   -2.5468    6.6443 O   0  0  0  0  0  0  0  0  0  0  0  0
    0.5738   -3.9696    4.9128 C   0  0  0  0  0  0  0  0  0  0  0  0
    1.9825   -3.9005    4.3038 C   0  0  0  0  0  0  0  0  0  0  0  0
    5.1457    0.2738    0.4837 H   0  0  0  0  0  0  0  0  0  0  0  0
    6.3604   -0.8419   -0.0920 H   0  0  0  0  0  0  0  0  0  0  0  0
    5.8558   -0.8907    1.5802 H   0  0  0  0  0  0  0  0  0  0  0  0
    3.0303   -0.6983   -1.1558 H   0  0  0  0  0  0  0  0  0  0  0  0
    4.6333   -0.7912   -1.7719 H   0  0  0  0  0  0  0  0  0  0  0  0
    2.8410   -3.2824   -1.6670 H   0  0  0  0  0  0  0  0  0  0  0  0
    2.8025   -2.1162   -2.9546 H   0  0  0  0  0  0  0  0  0  0  0  0
    6.7519   -3.6330   -2.8543 H   0  0  0  0  0  0  0  0  0  0  0  0
    7.0688   -3.5888   -0.5123 H   0  0  0  0  0  0  0  0  0  0  0  0
    4.2152   -3.9194   -0.0895 H   0  0  0  0  0  0  0  0  0  0  0  0
    5.5396   -4.7362    1.5922 H   0  0  0  0  0  0  0  0  0  0  0  0
    6.5237   -3.3104    1.7543 H   0  0  0  0  0  0  0  0  0  0  0  0
    4.6278   -3.8953    3.5384 H   0  0  0  0  0  0  0  0  0  0  0  0
    5.0087   -2.2440    3.1659 H   0  0  0  0  0  0  0  0  0  0  0  0
    2.8327   -3.7940    1.7405 H   0  0  0  0  0  0  0  0  0  0  0  0
    0.7550   -0.3750    1.9283 H   0  0  0  0  0  0  0  0  0  0  0  0
    1.5228    0.5480    3.2129 H   0  0  0  0  0  0  0  0  0  0  0  0
    2.8954    0.4152    1.1109 H   0  0  0  0  0  0  0  0  0  0  0  0
    3.7236   -0.1464    2.5484 H   0  0  0  0  0  0  0  0  0  0  0  0
    2.2717   -1.9493    0.5920 H   0  0  0  0  0  0  0  0  0  0  0  0
    0.6696   -0.5506    5.2806 H   0  0  0  0  0  0  0  0  0  0  0  0
   -0.5701   -1.1301    4.1915 H   0  0  0  0  0  0  0  0  0  0  0  0
    0.5044   -4.7599    5.6584 H   0  0  0  0  0  0  0  0  0  0  0  0
   -0.1563   -4.2031    4.1358 H   0  0  0  0  0  0  0  0  0  0  0  0
    2.1810   -4.8258    3.7609 H   0  0  0  0  0  0  0  0  0  0  0  0
    2.7216   -3.8388    5.1032 H   0  0  0  0  0  0  0  0  0  0  0  0
  2  1  1  1
  1 23  1  0
  1 24  1  0
  1 25  1  0
  2  9  1  0
  2 17  1  0
  2  3  1  0
  3  4  1  0
  3 26  1  0
  3 27  1  0
  4  5  1  0
  4 28  1  0
  4 29  1  0
  5  6  2  0
  5  7  1  0
  7  8  2  0
  7 30  1  0
  8  9  1  0
  8 31  1  0
  9 10  1  0
  9 32  1  6
 10 11  1  0
 10 33  1  0
 10 34  1  0
 11 12  1  0
 11 35  1  0
 11 36  1  0
 12 17  1  0
 12 13  1  0
 12 37  1  6
 13 22  1  0
 13 14  2  0
 14 15  1  0
 14 18  1  0
 15 16  1  0
 15 38  1  0
 15 39  1  0
 16 17  1  0
 16 40  1  0
 16 41  1  0
 17 42  1  6
 18 19  1  0
 18 43  1  0
 18 44  1  0
 19 20  2  0
 19 21  1  0
 21 22  1  0
 21 45  1  0
 21 46  1  0
 22 47  1  0
 22 48  1  0
M  END
>  <i_m_ct_stereo_status>  (364) 
1

>  <s_m_source_file>  (364) 
/var/tmp/pbs.5076255.sched01/tmpt25ahaql/1236iipj8y0.sdf

>  <i_m_source_file_index>  (364) 
28

>  <i_lp_mmshare_version>  (364) 
48012

>  <i_f3d_flags>  (364) 
0

>  <s_epik_input>  (364) 
W0NIMl0xW0NIMl1DKD1PKVtDSF09W0NIXVtDQEhdKFtDQEBdMTJbQ0gzXSlbQ0gyXVtDSDJdW0NASF0zQzQ9QyhbQ0gyXVtDSDJdW0NAQEhdMjMpW0NIMl1DKD1PKVtDSDJdW0NIMl00

>  <s_epik_cmdline>  (364) 
J2VwaWtfcHl0aG9uJywgJy1waHQnLCAnMi4wJywgJy1waCcsICc3LjAnLCAnLXRuJywgJzgnLCAnLW1hJywgJzIwMCcsICctaW1hZScsICc8aW5maWxlLm1hZT4nLCAnLW9tYWUnLCAnPG91dGZpbGUubWFlPic=

>  <r_lp_tautomer_probability>  (364) 
1

>  <r_epik_Ionization_Penalty>  (364) 
2.50355e-13

>  <r_epik_Ionization_Penalty_Charging>  (364) 
0

>  <r_epik_Ionization_Penalty_Neutral>  (364) 
2.50355e-13

>  <r_epik_State_Penalty>  (364) 
-0

>  <r_epik_Charging_Adjusted_Penalty>  (364) 
0

>  <i_epik_Tot_Q>  (364) 
0

>  <i_epik_Tot_abs_Q>  (364) 
0

>  <s_lp_Force_Field>  (364) 
OPLS3e

>  <r_lp_Energy>  (364) 
44.0758

>  <b_lp_Chiralities_Consistent>  (364) 
1

>  <s_lp_Variant>  (364) 
107:0-1

>  <s_i_glide_gridfile>  (364) 
pfpi4k_grid

>  <i_i_glide_lignum>  (364) 
28

>  <i_i_glide_rotatable_bonds>  (364) 
0

>  <r_i_docking_score>  (364) 
-4.18107

>  <r_i_glide_ligand_efficiency>  (364) 
-0.190049

>  <r_i_glide_ligand_efficiency_sa>  (364) 
-0.532524

>  <r_i_glide_ligand_efficiency_ln>  (364) 
-1.02201

>  <r_i_glide_gscore>  (364) 
-4.18107

>  <r_i_glide_lipo>  (364) 
-0.581844

>  <r_i_glide_hbond>  (364) 
-0.0561604

>  <r_i_glide_metal>  (364) 
-0

>  <r_i_glide_rewards>  (364) 
-1.52182

>  <r_i_glide_evdw>  (364) 
-26.984

>  <r_i_glide_ecoul>  (364) 
-4.41366

>  <r_i_glide_erotb>  (364) 
0

>  <r_i_glide_esite>  (364) 
-0.010001

>  <r_i_glide_emodel>  (364) 
-39.4689

>  <r_i_glide_energy>  (364) 
-31.3977

>  <r_i_glide_einternal>  (364) 
0

>  <r_i_glide_intrahb_reward>  (364) 
-0

>  <i_i_glide_confnum>  (364) 
1

>  <i_i_glide_posenum>  (364) 
27

>  <r_i_glide_eff_state_penalty>  (364) 
0

>  <ligand_id>  (364) 
107

>  <original_smiles>  (364) 
CC12CCC(=O)C=CC1CCC1C3=C(CCC12)CC(=O)CC3

>  <smiles>  (364) 
[H]C1=C([H])C2([H])C([H])([H])C([H])([H])C3([H])C4=C(C([H])([H])C(=O)C([H])([H])C4([H])[H])C([H])([H])C([H])([H])C3([H])C2(C([H])([H])[H])C([H])([H])C([H])([H])C1=O

$$$$
108:0:0
     RDKit          3D

 58 63  0  0  1  0  0  0  0  0999 V2000
    8.5120   -5.9174    1.5090 C   0  0  0  0  0  0  0  0  0  0  0  0
    7.1865   -5.4114    1.0591 C   0  0  0  0  0  0  0  0  0  0  0  0
    7.0704   -4.2290    0.4608 N   0  0  0  0  0  0  0  0  0  0  0  0
    5.7355   -4.0564    0.2428 N   0  0  0  0  0  0  0  0  0  0  0  0
    5.1488   -5.1453    0.7419 C   0  0  0  0  0  0  0  0  0  0  0  0
    3.6550   -5.2202    0.8063 C   0  0  0  0  0  0  0  0  0  0  0  0
    6.0075   -6.0789    1.2202 N   0  0  0  0  0  0  0  0  0  0  0  0
    5.7808   -7.4051    1.8491 C   0  0  2  0  0  0  0  0  0  0  0  0
    4.8409   -8.3572    1.0295 C   0  0  0  0  0  0  0  0  0  0  0  0
    4.3032   -9.5390    1.8614 C   0  0  1  0  0  0  0  0  0  0  0  0
    5.4418  -10.3938    2.4152 C   0  0  0  0  0  0  0  0  0  0  0  0
    5.7601   -9.7510    3.7882 C   0  0  0  0  0  0  0  0  0  0  0  0
    4.7624   -8.5830    3.9113 C   0  0  1  0  0  0  0  0  0  0  0  0
    5.3459   -7.2615    3.3362 C   0  0  0  0  0  0  0  0  0  0  0  0
    3.6335   -9.0539    3.0808 N   0  0  1  0  0  0  0  0  0  0  0  0
    2.4036   -8.1787    2.9661 C   0  0  2  0  0  0  0  0  0  0  0  0
    1.7929   -7.8584    4.3566 C   0  0  1  0  0  0  0  0  0  0  0  0
    0.6168   -6.8754    4.1965 C   0  0  0  0  0  0  0  0  0  0  0  0
   -0.4669   -7.5166    3.3114 C   0  0  2  0  0  0  0  0  0  0  0  0
   -0.9582   -8.8295    3.9505 C   0  0  0  0  0  0  0  0  0  0  0  0
    0.2256   -9.8065    4.1112 C   0  0  2  0  0  0  0  0  0  0  0  0
    1.2891   -9.1599    5.0242 C   0  0  0  0  0  0  0  0  0  0  0  0
    0.8116  -10.1240    2.7152 C   0  0  0  0  0  0  0  0  0  0  0  0
    1.3146   -8.8103    2.0764 C   0  0  1  0  0  0  0  0  0  0  0  0
    0.1325   -7.8245    1.9241 C   0  0  0  0  0  0  0  0  0  0  0  0
    9.2321   -5.1108    1.3901 H   0  0  0  0  0  0  0  0  0  0  0  0
    8.8284   -6.7573    0.8944 H   0  0  0  0  0  0  0  0  0  0  0  0
    8.4973   -6.2045    2.5595 H   0  0  0  0  0  0  0  0  0  0  0  0
    3.2506   -4.2564    0.5160 H   0  0  0  0  0  0  0  0  0  0  0  0
    3.3397   -5.3720    1.8341 H   0  0  0  0  0  0  0  0  0  0  0  0
    3.2345   -5.9575    0.1220 H   0  0  0  0  0  0  0  0  0  0  0  0
    6.7476   -7.9153    1.8740 H   0  0  0  0  0  0  0  0  0  0  0  0
    3.9473   -7.8765    0.6525 H   0  0  0  0  0  0  0  0  0  0  0  0
    5.3641   -8.7276    0.1533 H   0  0  0  0  0  0  0  0  0  0  0  0
    3.6223  -10.1473    1.2742 H   0  0  0  0  0  0  0  0  0  0  0  0
    5.0856  -11.4155    2.5656 H   0  0  0  0  0  0  0  0  0  0  0  0
    6.2818  -10.4331    1.7252 H   0  0  0  0  0  0  0  0  0  0  0  0
    5.5414  -10.4831    4.5688 H   0  0  0  0  0  0  0  0  0  0  0  0
    6.8035   -9.4459    3.9045 H   0  0  0  0  0  0  0  0  0  0  0  0
    4.4570   -8.4576    4.9511 H   0  0  0  0  0  0  0  0  0  0  0  0
    6.1905   -6.9218    3.9346 H   0  0  0  0  0  0  0  0  0  0  0  0
    4.5995   -6.4762    3.4243 H   0  0  0  0  0  0  0  0  0  0  0  0
    2.6625   -7.2452    2.4890 H   0  0  0  0  0  0  0  0  0  0  0  0
    2.5084   -7.3636    5.0122 H   0  0  0  0  0  0  0  0  0  0  0  0
    0.2017   -6.6146    5.1714 H   0  0  0  0  0  0  0  0  0  0  0  0
    0.9689   -5.9415    3.7481 H   0  0  0  0  0  0  0  0  0  0  0  0
   -1.3102   -6.8294    3.2149 H   0  0  0  0  0  0  0  0  0  0  0  0
   -1.4147   -8.6444    4.9222 H   0  0  0  0  0  0  0  0  0  0  0  0
   -1.7221   -9.2869    3.3235 H   0  0  0  0  0  0  0  0  0  0  0  0
   -0.1205  -10.7319    4.5759 H   0  0  0  0  0  0  0  0  0  0  0  0
    2.1100   -9.8558    5.1965 H   0  0  0  0  0  0  0  0  0  0  0  0
    0.8709   -8.9506    6.0118 H   0  0  0  0  0  0  0  0  0  0  0  0
    1.6157  -10.8552    2.8083 H   0  0  0  0  0  0  0  0  0  0  0  0
    0.0568  -10.6004    2.0813 H   0  0  0  0  0  0  0  0  0  0  0  0
    1.6915   -8.9970    1.0750 H   0  0  0  0  0  0  0  0  0  0  0  0
   -0.6425   -8.2467    1.2808 H   0  0  0  0  0  0  0  0  0  0  0  0
    0.4600   -6.8999    1.4400 H   0  0  0  0  0  0  0  0  0  0  0  0
    3.2931   -9.9113    3.5225 H   0  0  0  0  0  0  0  0  0  0  0  0
  1  2  1  0
  1 26  1  0
  1 27  1  0
  1 28  1  0
  2  7  1  0
  2  3  2  0
  3  4  1  0
  4  5  2  0
  5  6  1  0
  5  7  1  0
  6 29  1  0
  6 30  1  0
  6 31  1  0
  7  8  1  0
  8 14  1  0
  8  9  1  0
  8 32  1  1
  9 10  1  0
  9 33  1  0
  9 34  1  0
 10 15  1  0
 10 11  1  0
 10 35  1  6
 11 12  1  0
 11 36  1  0
 11 37  1  0
 12 13  1  0
 12 38  1  0
 12 39  1  0
 13 14  1  0
 13 15  1  0
 13 40  1  1
 14 41  1  0
 14 42  1  0
 15 16  1  0
 15 58  1  1
 16 24  1  0
 16 17  1  0
 16 43  1  6
 17 22  1  0
 17 18  1  0
 17 44  1  1
 18 19  1  0
 18 45  1  0
 18 46  1  0
 19 25  1  0
 19 20  1  0
 19 47  1  6
 20 21  1  0
 20 48  1  0
 20 49  1  0
 21 22  1  0
 21 23  1  0
 21 50  1  1
 22 51  1  0
 22 52  1  0
 23 24  1  0
 23 53  1  0
 23 54  1  0
 24 25  1  0
 24 55  1  6
 25 56  1  0
 25 57  1  0
M  CHG  1  15   1
M  END
>  <i_m_ct_stereo_status>  (365) 
1

>  <s_m_source_file>  (365) 
/var/tmp/pbs.5076255.sched01/tmpt25ahaql/1236iipj8y0.sdf

>  <i_m_source_file_index>  (365) 
29

>  <i_lp_mmshare_version>  (365) 
48012

>  <i_f3d_flags>  (365) 
0

>  <s_epik_input>  (365) 
W0NIM11jMW5uYyhbQ0gzXSluMVtDQEhdKFtDSDJdW0NAQEhdMjMpW0NIMl1bQ0BIXShbQ0gyXVtDSDJdMilOM1tDQEhdKFtDQEBIXTQ1KVtDQEhdNltDSDJdW0NAQEhdKFtDSDJdNSlbQ0gyXVtDQEBIXShbQ0gyXTQpW0NIMl02

>  <s_epik_cmdline>  (365) 
J2VwaWtfcHl0aG9uJywgJy1waHQnLCAnMi4wJywgJy1waCcsICc3LjAnLCAnLXRuJywgJzgnLCAnLW1hJywgJzIwMCcsICctaW1hZScsICc8aW5maWxlLm1hZT4nLCAnLW9tYWUnLCAnPG91dGZpbGUubWFlPic=

>  <r_lp_tautomer_probability>  (365) 
1

>  <r_epik_Ionization_Penalty>  (365) 
0.00072682

>  <r_epik_Ionization_Penalty_Charging>  (365) 
0.000488512

>  <r_epik_Ionization_Penalty_Neutral>  (365) 
0.000238308

>  <r_epik_State_Penalty>  (365) 
-0

>  <r_epik_Charging_Adjusted_Penalty>  (365) 
0.000488512

>  <i_epik_Tot_Q>  (365) 
1

>  <i_epik_Tot_abs_Q>  (365) 
1

>  <s_lp_Force_Field>  (365) 
OPLS3e

>  <r_lp_Energy>  (365) 
24.123

>  <b_lp_Chiralities_Consistent>  (365) 
1

>  <s_lp_Variant>  (365) 
108:0-1

>  <s_i_glide_gridfile>  (365) 
pfpi4k_grid

>  <i_i_glide_lignum>  (365) 
29

>  <i_i_glide_rotatable_bonds>  (365) 
2

>  <r_i_docking_score>  (365) 
-2.82733

>  <r_i_glide_ligand_efficiency>  (365) 
-0.113093

>  <r_i_glide_ligand_efficiency_sa>  (365) 
-0.330687

>  <r_i_glide_ligand_efficiency_ln>  (365) 
-0.670162

>  <r_i_glide_gscore>  (365) 
-2.82733

>  <r_i_glide_lipo>  (365) 
-0.199628

>  <r_i_glide_hbond>  (365) 
0

>  <r_i_glide_metal>  (365) 
-0

>  <r_i_glide_rewards>  (365) 
-1.4343

>  <r_i_glide_evdw>  (365) 
-22.1002

>  <r_i_glide_ecoul>  (365) 
-2.68617

>  <r_i_glide_erotb>  (365) 
0.324971

>  <r_i_glide_esite>  (365) 
-0.0104344

>  <r_i_glide_emodel>  (365) 
-29.3474

>  <r_i_glide_energy>  (365) 
-24.7864

>  <r_i_glide_einternal>  (365) 
0.390985

>  <r_i_glide_intrahb_reward>  (365) 
-0

>  <i_i_glide_confnum>  (365) 
4

>  <i_i_glide_posenum>  (365) 
36

>  <r_i_glide_eff_state_penalty>  (365) 
0

>  <ligand_id>  (365) 
108

>  <original_smiles>  (365) 
Cc1nnc(C)n1C1CC2CCC(C1)N2C1C2CC3CC(C2)CC1C3

>  <smiles>  (365) 
[H]C([H])([H])c1nnc(C([H])([H])[H])n1C1([H])C([H])([H])C2([H])C([H])([H])C([H])([H])C([H])(C1([H])[H])[N+]2([H])C1([H])C2([H])C([H])([H])C3([H])C([H])([H])C([H])(C2([H])[H])C([H])([H])C1([H])C3([H])[H]

$$$$
108:0:1
     RDKit          3D

 58 63  0  0  1  0  0  0  0  0999 V2000
    8.2683   -4.8184    0.8531 C   0  0  0  0  0  0  0  0  0  0  0  0
    6.8599   -4.3406    0.8457 C   0  0  0  0  0  0  0  0  0  0  0  0
    6.5669   -3.0652    0.5429 N   0  0  0  0  0  0  0  0  0  0  0  0
    5.2206   -2.9558    0.7108 N   0  0  0  0  0  0  0  0  0  0  0  0
    4.8084   -4.1742    1.1046 C   0  0  0  0  0  0  0  0  0  0  0  0
    3.3845   -4.3813    1.5026 C   0  0  0  0  0  0  0  0  0  0  0  0
    5.7867   -5.0986    1.1512 N   0  0  0  0  0  0  0  0  0  0  0  0
    5.7520   -6.5450    1.5157 C   0  0  2  0  0  0  0  0  0  0  0  0
    4.6956   -7.3876    0.7155 C   0  0  0  0  0  0  0  0  0  0  0  0
    4.4298   -8.7645    1.3347 C   0  0  1  0  0  0  0  0  0  0  0  0
    5.7099   -9.5882    1.4645 C   0  0  0  0  0  0  0  0  0  0  0  0
    6.2643   -9.2182    2.8611 C   0  0  0  0  0  0  0  0  0  0  0  0
    5.2461   -8.2093    3.4237 C   0  0  1  0  0  0  0  0  0  0  0  0
    5.6376   -6.7476    3.0574 C   0  0  0  0  0  0  0  0  0  0  0  0
    3.9803   -8.6095    2.7410 N   0  0  1  0  0  0  0  0  0  0  0  0
    2.7307   -7.8600    3.0438 C   0  0  2  0  0  0  0  0  0  0  0  0
    2.3786   -7.9046    4.5632 C   0  0  1  0  0  0  0  0  0  0  0  0
    1.1441   -7.0286    4.8472 C   0  0  0  0  0  0  0  0  0  0  0  0
   -0.0550   -7.5593    4.0434 C   0  0  2  0  0  0  0  0  0  0  0  0
   -0.3383   -9.0194    4.4397 C   0  0  0  0  0  0  0  0  0  0  0  0
    0.8989   -9.8958    4.1618 C   0  0  2  0  0  0  0  0  0  0  0  0
    2.0853   -9.3637    4.9901 C   0  0  0  0  0  0  0  0  0  0  0  0
    1.2130   -9.8426    2.6496 C   0  0  0  0  0  0  0  0  0  0  0  0
    1.5065   -8.3787    2.2436 C   0  0  1  0  0  0  0  0  0  0  0  0
    0.2748   -7.4981    2.5387 C   0  0  0  0  0  0  0  0  0  0  0  0
    8.9110   -3.9475    0.7293 H   0  0  0  0  0  0  0  0  0  0  0  0
    8.4488   -5.5120    0.0334 H   0  0  0  0  0  0  0  0  0  0  0  0
    8.5181   -5.2914    1.8030 H   0  0  0  0  0  0  0  0  0  0  0  0
    2.8820   -3.4204    1.5147 H   0  0  0  0  0  0  0  0  0  0  0  0
    3.3307   -4.7510    2.5230 H   0  0  0  0  0  0  0  0  0  0  0  0
    2.8375   -5.0116    0.8015 H   0  0  0  0  0  0  0  0  0  0  0  0
    6.7218   -6.9671    1.2386 H   0  0  0  0  0  0  0  0  0  0  0  0
    3.7316   -6.9153    0.6247 H   0  0  0  0  0  0  0  0  0  0  0  0
    5.0086   -7.5087   -0.3154 H   0  0  0  0  0  0  0  0  0  0  0  0
    3.6939   -9.3144    0.7555 H   0  0  0  0  0  0  0  0  0  0  0  0
    5.4648  -10.6524    1.4697 H   0  0  0  0  0  0  0  0  0  0  0  0
    6.3907   -9.4090    0.6342 H   0  0  0  0  0  0  0  0  0  0  0  0
    6.2438  -10.1145    3.4827 H   0  0  0  0  0  0  0  0  0  0  0  0
    7.2955   -8.8483    2.8459 H   0  0  0  0  0  0  0  0  0  0  0  0
    5.1522   -8.3320    4.5068 H   0  0  0  0  0  0  0  0  0  0  0  0
    6.5767   -6.4612    3.5402 H   0  0  0  0  0  0  0  0  0  0  0  0
    4.8934   -6.0756    3.4727 H   0  0  0  0  0  0  0  0  0  0  0  0
    2.8197   -6.8178    2.7641 H   0  0  0  0  0  0  0  0  0  0  0  0
    3.1807   -7.4978    5.1757 H   0  0  0  0  0  0  0  0  0  0  0  0
    0.9107   -7.0334    5.9131 H   0  0  0  0  0  0  0  0  0  0  0  0
    1.3531   -5.9880    4.5779 H   0  0  0  0  0  0  0  0  0  0  0  0
   -0.9356   -6.9473    4.2615 H   0  0  0  0  0  0  0  0  0  0  0  0
   -0.6045   -9.0888    5.4940 H   0  0  0  0  0  0  0  0  0  0  0  0
   -1.1808   -9.3963    3.8630 H   0  0  0  0  0  0  0  0  0  0  0  0
    0.6865  -10.9262    4.4608 H   0  0  0  0  0  0  0  0  0  0  0  0
    2.9581  -10.0016    4.8482 H   0  0  0  0  0  0  0  0  0  0  0  0
    1.8564   -9.4126    6.0589 H   0  0  0  0  0  0  0  0  0  0  0  0
    2.0589  -10.4923    2.4187 H   0  0  0  0  0  0  0  0  0  0  0  0
    0.3669  -10.2404    2.0827 H   0  0  0  0  0  0  0  0  0  0  0  0
    1.6646   -8.3080    1.1713 H   0  0  0  0  0  0  0  0  0  0  0  0
   -0.5826   -7.8391    1.9556 H   0  0  0  0  0  0  0  0  0  0  0  0
    0.4613   -6.4614    2.2417 H   0  0  0  0  0  0  0  0  0  0  0  0
    3.8000   -9.5584    3.0266 H   0  0  0  0  0  0  0  0  0  0  0  0
  1  2  1  0
  1 26  1  0
  1 27  1  0
  1 28  1  0
  2  7  1  0
  2  3  2  0
  3  4  1  0
  4  5  2  0
  5  6  1  0
  5  7  1  0
  6 29  1  0
  6 30  1  0
  6 31  1  0
  7  8  1  0
  8 14  1  0
  8  9  1  0
  8 32  1  6
  9 10  1  0
  9 33  1  0
  9 34  1  0
 10 15  1  0
 10 11  1  0
 10 35  1  6
 11 12  1  0
 11 36  1  0
 11 37  1  0
 12 13  1  0
 12 38  1  0
 12 39  1  0
 13 14  1  0
 13 15  1  0
 13 40  1  1
 14 41  1  0
 14 42  1  0
 15 16  1  0
 15 58  1  1
 16 24  1  0
 16 17  1  0
 16 43  1  6
 17 22  1  0
 17 18  1  0
 17 44  1  1
 18 19  1  0
 18 45  1  0
 18 46  1  0
 19 25  1  0
 19 20  1  0
 19 47  1  6
 20 21  1  0
 20 48  1  0
 20 49  1  0
 21 22  1  0
 21 23  1  0
 21 50  1  1
 22 51  1  0
 22 52  1  0
 23 24  1  0
 23 53  1  0
 23 54  1  0
 24 25  1  0
 24 55  1  6
 25 56  1  0
 25 57  1  0
M  CHG  1  15   1
M  END
>  <i_m_ct_stereo_status>  (366) 
1

>  <s_m_source_file>  (366) 
/var/tmp/pbs.5076255.sched01/tmpt25ahaql/1236iipj8y0.sdf

>  <i_m_source_file_index>  (366) 
29

>  <i_lp_mmshare_version>  (366) 
48012

>  <i_f3d_flags>  (366) 
0

>  <s_epik_input>  (366) 
W0NIM11jMW5uYyhbQ0gzXSluMVtDQEhdKFtDSDJdW0NAQEhdMjMpW0NIMl1bQ0BIXShbQ0gyXVtDSDJdMilOM1tDQEhdKFtDQEBIXTQ1KVtDQEhdNltDSDJdW0NAQEhdKFtDSDJdNSlbQ0gyXVtDQEBIXShbQ0gyXTQpW0NIMl02

>  <s_epik_cmdline>  (366) 
J2VwaWtfcHl0aG9uJywgJy1waHQnLCAnMi4wJywgJy1waCcsICc3LjAnLCAnLXRuJywgJzgnLCAnLW1hJywgJzIwMCcsICctaW1hZScsICc8aW5maWxlLm1hZT4nLCAnLW9tYWUnLCAnPG91dGZpbGUubWFlPic=

>  <r_lp_tautomer_probability>  (366) 
1

>  <r_epik_Ionization_Penalty>  (366) 
0.00072682

>  <r_epik_Ionization_Penalty_Charging>  (366) 
0.000488512

>  <r_epik_Ionization_Penalty_Neutral>  (366) 
0.000238308

>  <r_epik_State_Penalty>  (366) 
-0

>  <r_epik_Charging_Adjusted_Penalty>  (366) 
0.000488512

>  <i_epik_Tot_Q>  (366) 
1

>  <i_epik_Tot_abs_Q>  (366) 
1

>  <s_lp_Force_Field>  (366) 
OPLS3e

>  <r_lp_Energy>  (366) 
24.123

>  <b_lp_Chiralities_Consistent>  (366) 
1

>  <s_lp_Variant>  (366) 
108:0-1

>  <s_i_glide_gridfile>  (366) 
pfpi4k_grid

>  <i_i_glide_lignum>  (366) 
29

>  <i_i_glide_rotatable_bonds>  (366) 
2

>  <r_i_docking_score>  (366) 
-2.76396

>  <r_i_glide_ligand_efficiency>  (366) 
-0.110558

>  <r_i_glide_ligand_efficiency_sa>  (366) 
-0.323275

>  <r_i_glide_ligand_efficiency_ln>  (366) 
-0.655141

>  <r_i_glide_gscore>  (366) 
-2.76396

>  <r_i_glide_lipo>  (366) 
-0.387862

>  <r_i_glide_hbond>  (366) 
0

>  <r_i_glide_metal>  (366) 
-0

>  <r_i_glide_rewards>  (366) 
-1.39714

>  <r_i_glide_evdw>  (366) 
-21.0478

>  <r_i_glide_ecoul>  (366) 
-1.6218

>  <r_i_glide_erotb>  (366) 
0.324971

>  <r_i_glide_esite>  (366) 
-0.00826946

>  <r_i_glide_emodel>  (366) 
-27.2697

>  <r_i_glide_energy>  (366) 
-22.6696

>  <r_i_glide_einternal>  (366) 
0.241377

>  <r_i_glide_intrahb_reward>  (366) 
-0

>  <i_i_glide_confnum>  (366) 
2

>  <i_i_glide_posenum>  (366) 
16

>  <r_i_glide_eff_state_penalty>  (366) 
0

>  <ligand_id>  (366) 
108

>  <original_smiles>  (366) 
Cc1nnc(C)n1C1CC2CCC(C1)N2C1C2CC3CC(C2)CC1C3

>  <smiles>  (366) 
[H]C([H])([H])c1nnc(C([H])([H])[H])n1C1([H])C([H])([H])C2([H])C([H])([H])C([H])([H])C([H])(C1([H])[H])[N+]2([H])C1([H])C2([H])C([H])([H])C3([H])C([H])([H])C([H])(C2([H])[H])C([H])([H])C1([H])C3([H])[H]

$$$$
108:0:2
     RDKit          3D

 58 63  0  0  1  0  0  0  0  0999 V2000
    2.9176   -5.3235    2.5421 C   0  0  0  0  0  0  0  0  0  0  0  0
    4.2522   -4.7762    2.1393 C   0  0  0  0  0  0  0  0  0  0  0  0
    4.4036   -3.4529    2.0320 N   0  0  0  0  0  0  0  0  0  0  0  0
    5.6801   -3.2673    1.6151 N   0  0  0  0  0  0  0  0  0  0  0  0
    6.2054   -4.4889    1.5003 C   0  0  0  0  0  0  0  0  0  0  0  0
    7.5894   -4.6802    0.9919 C   0  0  0  0  0  0  0  0  0  0  0  0
    5.3607   -5.4834    1.8295 N   0  0  0  0  0  0  0  0  0  0  0  0
    5.6286   -6.9389    1.8734 C   0  0  2  0  0  0  0  0  0  0  0  0
    4.7141   -7.7472    0.9036 C   0  0  0  0  0  0  0  0  0  0  0  0
    4.7165   -9.2558    1.2082 C   0  0  1  0  0  0  0  0  0  0  0  0
    6.1402   -9.8520    1.1228 C   0  0  0  0  0  0  0  0  0  0  0  0
    6.6914   -9.7214    2.5588 C   0  0  0  0  0  0  0  0  0  0  0  0
    5.5476   -9.0634    3.3511 C   0  0  1  0  0  0  0  0  0  0  0  0
    5.6272   -7.5076    3.3388 C   0  0  0  0  0  0  0  0  0  0  0  0
    4.3376   -9.5117    2.6167 N   0  0  1  0  0  0  0  0  0  0  0  0
    2.9954   -9.0943    3.1341 C   0  0  2  0  0  0  0  0  0  0  0  0
    2.8958   -9.1895    4.6866 C   0  0  1  0  0  0  0  0  0  0  0  0
    1.5199   -8.6693    5.1477 C   0  0  0  0  0  0  0  0  0  0  0  0
    0.4118   -9.5410    4.5390 C   0  0  2  0  0  0  0  0  0  0  0  0
    0.6002  -10.9968    4.9894 C   0  0  0  0  0  0  0  0  0  0  0  0
    1.9803  -11.5202    4.5264 C   0  0  2  0  0  0  0  0  0  0  0  0
    3.0742  -10.6578    5.1560 C   0  0  0  0  0  0  0  0  0  0  0  0
    2.0398  -11.4485    2.9838 C   0  0  0  0  0  0  0  0  0  0  0  0
    1.8774   -9.9670    2.5253 C   0  0  1  0  0  0  0  0  0  0  0  0
    0.4889   -9.4597    3.0004 C   0  0  0  0  0  0  0  0  0  0  0  0
    2.2276   -4.4840    2.6697 H   0  0  0  0  0  0  0  0  0  0  0  0
    2.9897   -5.8083    3.5048 H   0  0  0  0  0  0  0  0  0  0  0  0
    2.4996   -5.9978    1.8001 H   0  0  0  0  0  0  0  0  0  0  0  0
    7.9669   -3.7249    0.6221 H   0  0  0  0  0  0  0  0  0  0  0  0
    7.6036   -5.3988    0.1675 H   0  0  0  0  0  0  0  0  0  0  0  0
    8.2382   -5.0306    1.7945 H   0  0  0  0  0  0  0  0  0  0  0  0
    6.6766   -7.0764    1.5653 H   0  0  0  0  0  0  0  0  0  0  0  0
    3.6887   -7.4265    0.9098 H   0  0  0  0  0  0  0  0  0  0  0  0
    4.9847   -7.5807   -0.1345 H   0  0  0  0  0  0  0  0  0  0  0  0
    4.0494   -9.7797    0.5399 H   0  0  0  0  0  0  0  0  0  0  0  0
    6.1118  -10.9113    0.8636 H   0  0  0  0  0  0  0  0  0  0  0  0
    6.7603   -9.3493    0.3969 H   0  0  0  0  0  0  0  0  0  0  0  0
    6.8722  -10.7253    2.9591 H   0  0  0  0  0  0  0  0  0  0  0  0
    7.6481   -9.1700    2.6389 H   0  0  0  0  0  0  0  0  0  0  0  0
    5.5810   -9.4435    4.3758 H   0  0  0  0  0  0  0  0  0  0  0  0
    6.5043   -7.1657    3.8984 H   0  0  0  0  0  0  0  0  0  0  0  0
    4.7789   -7.1042    3.8830 H   0  0  0  0  0  0  0  0  0  0  0  0
    2.7805   -8.0715    2.8640 H   0  0  0  0  0  0  0  0  0  0  0  0
    3.6200   -8.5590    5.2000 H   0  0  0  0  0  0  0  0  0  0  0  0
    1.4610   -8.6914    6.2386 H   0  0  0  0  0  0  0  0  0  0  0  0
    1.3982   -7.6208    4.8541 H   0  0  0  0  0  0  0  0  0  0  0  0
   -0.5614   -9.1818    4.8895 H   0  0  0  0  0  0  0  0  0  0  0  0
    0.5170  -11.0330    6.0728 H   0  0  0  0  0  0  0  0  0  0  0  0
   -0.1636  -11.6256    4.5571 H   0  0  0  0  0  0  0  0  0  0  0  0
    2.0993  -12.5494    4.8696 H   0  0  0  0  0  0  0  0  0  0  0  0
    4.0444  -11.0660    4.8784 H   0  0  0  0  0  0  0  0  0  0  0  0
    3.0222  -10.7197    6.2479 H   0  0  0  0  0  0  0  0  0  0  0  0
    2.9722  -11.8780    2.6121 H   0  0  0  0  0  0  0  0  0  0  0  0
    1.2421  -12.0821    2.5748 H   0  0  0  0  0  0  0  0  0  0  0  0
    1.8683   -9.9128    1.4349 H   0  0  0  0  0  0  0  0  0  0  0  0
   -0.3261  -10.0584    2.5734 H   0  0  0  0  0  0  0  0  0  0  0  0
    0.3142   -8.4276    2.6698 H   0  0  0  0  0  0  0  0  0  0  0  0
    4.3344  -10.5194    2.6813 H   0  0  0  0  0  0  0  0  0  0  0  0
  1  2  1  0
  1 26  1  0
  1 27  1  0
  1 28  1  0
  2  7  1  0
  2  3  2  0
  3  4  1  0
  4  5  2  0
  5  6  1  0
  5  7  1  0
  6 29  1  0
  6 30  1  0
  6 31  1  0
  7  8  1  0
  8 14  1  0
  8  9  1  0
  8 32  1  6
  9 10  1  0
  9 33  1  0
  9 34  1  0
 10 15  1  0
 10 11  1  0
 10 35  1  6
 11 12  1  0
 11 36  1  0
 11 37  1  0
 12 13  1  0
 12 38  1  0
 12 39  1  0
 13 14  1  0
 13 15  1  0
 13 40  1  1
 14 41  1  0
 14 42  1  0
 15 16  1  0
 15 58  1  6
 16 24  1  0
 16 17  1  0
 16 43  1  1
 17 22  1  0
 17 18  1  0
 17 44  1  1
 18 19  1  0
 18 45  1  0
 18 46  1  0
 19 25  1  0
 19 20  1  0
 19 47  1  1
 20 21  1  0
 20 48  1  0
 20 49  1  0
 21 22  1  0
 21 23  1  0
 21 50  1  6
 22 51  1  0
 22 52  1  0
 23 24  1  0
 23 53  1  0
 23 54  1  0
 24 25  1  0
 24 55  1  6
 25 56  1  0
 25 57  1  0
M  CHG  1  15   1
M  END
>  <i_m_ct_stereo_status>  (367) 
1

>  <s_m_source_file>  (367) 
/var/tmp/pbs.5076255.sched01/tmpt25ahaql/1236iipj8y0.sdf

>  <i_m_source_file_index>  (367) 
29

>  <i_lp_mmshare_version>  (367) 
48012

>  <i_f3d_flags>  (367) 
0

>  <s_epik_input>  (367) 
W0NIM11jMW5uYyhbQ0gzXSluMVtDQEhdKFtDSDJdW0NAQEhdMjMpW0NIMl1bQ0BIXShbQ0gyXVtDSDJdMilOM1tDQEhdKFtDQEBIXTQ1KVtDQEhdNltDSDJdW0NAQEhdKFtDSDJdNSlbQ0gyXVtDQEBIXShbQ0gyXTQpW0NIMl02

>  <s_epik_cmdline>  (367) 
J2VwaWtfcHl0aG9uJywgJy1waHQnLCAnMi4wJywgJy1waCcsICc3LjAnLCAnLXRuJywgJzgnLCAnLW1hJywgJzIwMCcsICctaW1hZScsICc8aW5maWxlLm1hZT4nLCAnLW9tYWUnLCAnPG91dGZpbGUubWFlPic=

>  <r_lp_tautomer_probability>  (367) 
1

>  <r_epik_Ionization_Penalty>  (367) 
0.00072682

>  <r_epik_Ionization_Penalty_Charging>  (367) 
0.000488512

>  <r_epik_Ionization_Penalty_Neutral>  (367) 
0.000238308

>  <r_epik_State_Penalty>  (367) 
-0

>  <r_epik_Charging_Adjusted_Penalty>  (367) 
0.000488512

>  <i_epik_Tot_Q>  (367) 
1

>  <i_epik_Tot_abs_Q>  (367) 
1

>  <s_lp_Force_Field>  (367) 
OPLS3e

>  <r_lp_Energy>  (367) 
24.123

>  <b_lp_Chiralities_Consistent>  (367) 
1

>  <s_lp_Variant>  (367) 
108:0-1

>  <s_i_glide_gridfile>  (367) 
pfpi4k_grid

>  <i_i_glide_lignum>  (367) 
29

>  <i_i_glide_rotatable_bonds>  (367) 
2

>  <r_i_docking_score>  (367) 
-2.60685

>  <r_i_glide_ligand_efficiency>  (367) 
-0.104274

>  <r_i_glide_ligand_efficiency_sa>  (367) 
-0.304899

>  <r_i_glide_ligand_efficiency_ln>  (367) 
-0.617901

>  <r_i_glide_gscore>  (367) 
-2.60685

>  <r_i_glide_lipo>  (367) 
-0.390728

>  <r_i_glide_hbond>  (367) 
0

>  <r_i_glide_metal>  (367) 
-0

>  <r_i_glide_rewards>  (367) 
-1.24257

>  <r_i_glide_evdw>  (367) 
-20.0539

>  <r_i_glide_ecoul>  (367) 
-1.76208

>  <r_i_glide_erotb>  (367) 
0.324971

>  <r_i_glide_esite>  (367) 
-0.0315109

>  <r_i_glide_emodel>  (367) 
-25.4514

>  <r_i_glide_energy>  (367) 
-21.8159

>  <r_i_glide_einternal>  (367) 
1.30794

>  <r_i_glide_intrahb_reward>  (367) 
-0

>  <i_i_glide_confnum>  (367) 
3

>  <i_i_glide_posenum>  (367) 
12

>  <r_i_glide_eff_state_penalty>  (367) 
0

>  <ligand_id>  (367) 
108

>  <original_smiles>  (367) 
Cc1nnc(C)n1C1CC2CCC(C1)N2C1C2CC3CC(C2)CC1C3

>  <smiles>  (367) 
[H]C([H])([H])c1nnc(C([H])([H])[H])n1C1([H])C([H])([H])C2([H])C([H])([H])C([H])([H])C([H])(C1([H])[H])[N+]2([H])C1([H])C2([H])C([H])([H])C3([H])C([H])([H])C([H])(C2([H])[H])C([H])([H])C1([H])C3([H])[H]

$$$$
109:0:0
     RDKit          3D

 27 29  0  0  1  0  0  0  0  0999 V2000
    3.8168   -2.1686   -4.1754 O   0  0  0  0  0  0  0  0  0  0  0  0
    4.1409   -2.3659   -2.8126 C   0  0  1  0  0  0  0  0  0  0  0  0
    4.5426   -1.0171   -2.1835 C   0  0  0  0  0  0  0  0  0  0  0  0
    4.9002   -1.2156   -0.6948 C   0  0  2  0  0  0  0  0  0  0  0  0
    6.0757   -2.2075   -0.5738 C   0  0  0  0  0  0  0  0  0  0  0  0
    5.6682   -3.5539   -1.1960 C   0  0  1  0  0  0  0  0  0  0  0  0
    4.4483   -4.1241   -0.4467 C   0  0  0  0  0  0  0  0  0  0  0  0
    3.2707   -3.1347   -0.5719 C   0  0  1  0  0  0  0  0  0  0  0  0
    3.6865   -1.7877    0.0643 C   0  0  0  0  0  0  0  0  0  0  0  0
    2.9157   -2.9292   -2.0644 C   0  0  0  0  0  0  0  0  0  0  0  0
    5.3164   -3.3619   -2.6897 C   0  0  0  0  0  0  0  0  0  0  0  0
    2.9872   -1.7111   -4.2178 H   0  0  0  0  0  0  0  0  0  0  0  0
    5.4014   -0.6021   -2.7125 H   0  0  0  0  0  0  0  0  0  0  0  0
    3.7311   -0.2955   -2.2928 H   0  0  0  0  0  0  0  0  0  0  0  0
    5.1755   -0.2577   -0.2521 H   0  0  0  0  0  0  0  0  0  0  0  0
    6.9627   -1.8359   -1.0813 H   0  0  0  0  0  0  0  0  0  0  0  0
    6.3503   -2.3410    0.4738 H   0  0  0  0  0  0  0  0  0  0  0  0
    6.4977   -4.2515   -1.0969 H   0  0  0  0  0  0  0  0  0  0  0  0
    4.1839   -5.0948   -0.8632 H   0  0  0  0  0  0  0  0  0  0  0  0
    4.6946   -4.2962    0.6012 H   0  0  0  0  0  0  0  0  0  0  0  0
    2.4033   -3.5335   -0.0445 H   0  0  0  0  0  0  0  0  0  0  0  0
    3.9313   -1.9324    1.1182 H   0  0  0  0  0  0  0  0  0  0  0  0
    2.8626   -1.0752    0.0423 H   0  0  0  0  0  0  0  0  0  0  0  0
    2.0711   -2.2522   -2.1601 H   0  0  0  0  0  0  0  0  0  0  0  0
    2.5845   -3.8556   -2.5182 H   0  0  0  0  0  0  0  0  0  0  0  0
    5.0428   -4.3187   -3.1376 H   0  0  0  0  0  0  0  0  0  0  0  0
    6.1882   -3.0055   -3.2376 H   0  0  0  0  0  0  0  0  0  0  0  0
  2  1  1  6
  1 12  1  0
  2 10  1  0
  2 11  1  0
  2  3  1  0
  3  4  1  0
  3 13  1  0
  3 14  1  0
  4  9  1  0
  4  5  1  0
  4 15  1  1
  5  6  1  0
  5 16  1  0
  5 17  1  0
  6  7  1  0
  6 11  1  0
  6 18  1  6
  7  8  1  0
  7 19  1  0
  7 20  1  0
  8  9  1  0
  8 10  1  0
  8 21  1  1
  9 22  1  0
  9 23  1  0
 10 24  1  0
 10 25  1  0
 11 26  1  0
 11 27  1  0
M  END
>  <i_m_ct_stereo_status>  (368) 
1

>  <s_m_source_file>  (368) 
/var/tmp/pbs.5076255.sched01/tmpt25ahaql/1236iipj8y0.sdf

>  <i_m_source_file_index>  (368) 
31

>  <i_lp_mmshare_version>  (368) 
48012

>  <i_f3d_flags>  (368) 
0

>  <s_epik_input>  (368) 
W09IXUMxMltDSDJdW0NAQEhdM1tDSDJdW0NASF0oW0NIMl0yKVtDSDJdW0NAQEhdKFtDSDJdMylbQ0gyXTE=

>  <s_epik_cmdline>  (368) 
J2VwaWtfcHl0aG9uJywgJy1waHQnLCAnMi4wJywgJy1waCcsICc3LjAnLCAnLXRuJywgJzgnLCAnLW1hJywgJzIwMCcsICctaW1hZScsICc8aW5maWxlLm1hZT4nLCAnLW9tYWUnLCAnPG91dGZpbGUubWFlPic=

>  <r_lp_tautomer_probability>  (368) 
1

>  <r_epik_Ionization_Penalty>  (368) 
5.13329e-06

>  <r_epik_Ionization_Penalty_Charging>  (368) 
0

>  <r_epik_Ionization_Penalty_Neutral>  (368) 
5.13329e-06

>  <r_epik_State_Penalty>  (368) 
-0

>  <r_epik_Charging_Adjusted_Penalty>  (368) 
0

>  <i_epik_Tot_Q>  (368) 
0

>  <i_epik_Tot_abs_Q>  (368) 
0

>  <s_lp_Force_Field>  (368) 
OPLS3e

>  <r_lp_Energy>  (368) 
-15.8074

>  <b_lp_Chiralities_Consistent>  (368) 
1

>  <s_lp_Variant>  (368) 
109:0-1

>  <s_i_glide_gridfile>  (368) 
pfpi4k_grid

>  <i_i_glide_lignum>  (368) 
31

>  <i_i_glide_rotatable_bonds>  (368) 
1

>  <r_i_docking_score>  (368) 
-4.49555

>  <r_i_glide_ligand_efficiency>  (368) 
-0.408687

>  <r_i_glide_ligand_efficiency_sa>  (368) 
-0.908911

>  <r_i_glide_ligand_efficiency_ln>  (368) 
-1.32304

>  <r_i_glide_gscore>  (368) 
-4.49555

>  <r_i_glide_lipo>  (368) 
-0.457717

>  <r_i_glide_hbond>  (368) 
-0.32

>  <r_i_glide_metal>  (368) 
-0

>  <r_i_glide_rewards>  (368) 
-2.25

>  <r_i_glide_evdw>  (368) 
-17.8748

>  <r_i_glide_ecoul>  (368) 
-3.82731

>  <r_i_glide_erotb>  (368) 
0

>  <r_i_glide_esite>  (368) 
0

>  <r_i_glide_emodel>  (368) 
-27.5331

>  <r_i_glide_energy>  (368) 
-21.7021

>  <r_i_glide_einternal>  (368) 
0.103842

>  <r_i_glide_intrahb_reward>  (368) 
-0

>  <i_i_glide_confnum>  (368) 
1

>  <i_i_glide_posenum>  (368) 
33

>  <r_i_glide_eff_state_penalty>  (368) 
0

>  <ligand_id>  (368) 
109

>  <original_smiles>  (368) 
OC12CC3CC(CC(C3)C1)C2

>  <smiles>  (368) 
[H]OC12C([H])([H])C3([H])C([H])([H])C([H])(C([H])([H])C([H])(C3([H])[H])C1([H])[H])C2([H])[H]

$$$$
109:0:1
     RDKit          3D

 27 29  0  0  1  0  0  0  0  0999 V2000
    2.5675   -4.4244   -0.3199 O   0  0  0  0  0  0  0  0  0  0  0  0
    3.6816   -3.5898   -0.5591 C   0  0  1  0  0  0  0  0  0  0  0  0
    3.6146   -3.0238   -1.9970 C   0  0  0  0  0  0  0  0  0  0  0  0
    4.8484   -2.1332   -2.2477 C   0  0  2  0  0  0  0  0  0  0  0  0
    6.1366   -2.9645   -2.0814 C   0  0  0  0  0  0  0  0  0  0  0  0
    6.2030   -3.5235   -0.6448 C   0  0  1  0  0  0  0  0  0  0  0  0
    6.1971   -2.3681    0.3789 C   0  0  0  0  0  0  0  0  0  0  0  0
    4.9062   -1.5380    0.2077 C   0  0  1  0  0  0  0  0  0  0  0  0
    4.8551   -0.9819   -1.2286 C   0  0  0  0  0  0  0  0  0  0  0  0
    3.6741   -2.4303    0.4565 C   0  0  0  0  0  0  0  0  0  0  0  0
    4.9744   -4.4239   -0.3956 C   0  0  0  0  0  0  0  0  0  0  0  0
    2.5811   -5.0950   -0.9924 H   0  0  0  0  0  0  0  0  0  0  0  0
    3.5879   -3.8309   -2.7304 H   0  0  0  0  0  0  0  0  0  0  0  0
    2.6960   -2.4470   -2.1323 H   0  0  0  0  0  0  0  0  0  0  0  0
    4.7973   -1.7210   -3.2563 H   0  0  0  0  0  0  0  0  0  0  0  0
    6.1559   -3.7737   -2.8147 H   0  0  0  0  0  0  0  0  0  0  0  0
    7.0113   -2.3490   -2.2880 H   0  0  0  0  0  0  0  0  0  0  0  0
    7.1124   -4.1091   -0.5221 H   0  0  0  0  0  0  0  0  0  0  0  0
    6.2608   -2.7640    1.3941 H   0  0  0  0  0  0  0  0  0  0  0  0
    7.0765   -1.7381    0.2413 H   0  0  0  0  0  0  0  0  0  0  0  0
    4.9064   -0.7101    0.9189 H   0  0  0  0  0  0  0  0  0  0  0  0
    5.7150   -0.3351   -1.4017 H   0  0  0  0  0  0  0  0  0  0  0  0
    3.9648   -0.3707   -1.3670 H   0  0  0  0  0  0  0  0  0  0  0  0
    2.7605   -1.8413    0.3521 H   0  0  0  0  0  0  0  0  0  0  0  0
    3.6817   -2.8121    1.4794 H   0  0  0  0  0  0  0  0  0  0  0  0
    5.0212   -4.8612    0.6049 H   0  0  0  0  0  0  0  0  0  0  0  0
    4.9772   -5.2606   -1.0974 H   0  0  0  0  0  0  0  0  0  0  0  0
  2  1  1  1
  1 12  1  0
  2 10  1  0
  2 11  1  0
  2  3  1  0
  3  4  1  0
  3 13  1  0
  3 14  1  0
  4  9  1  0
  4  5  1  0
  4 15  1  6
  5  6  1  0
  5 16  1  0
  5 17  1  0
  6  7  1  0
  6 11  1  0
  6 18  1  6
  7  8  1  0
  7 19  1  0
  7 20  1  0
  8  9  1  0
  8 10  1  0
  8 21  1  1
  9 22  1  0
  9 23  1  0
 10 24  1  0
 10 25  1  0
 11 26  1  0
 11 27  1  0
M  END
>  <i_m_ct_stereo_status>  (369) 
1

>  <s_m_source_file>  (369) 
/var/tmp/pbs.5076255.sched01/tmpt25ahaql/1236iipj8y0.sdf

>  <i_m_source_file_index>  (369) 
31

>  <i_lp_mmshare_version>  (369) 
48012

>  <i_f3d_flags>  (369) 
0

>  <s_epik_input>  (369) 
W09IXUMxMltDSDJdW0NAQEhdM1tDSDJdW0NASF0oW0NIMl0yKVtDSDJdW0NAQEhdKFtDSDJdMylbQ0gyXTE=

>  <s_epik_cmdline>  (369) 
J2VwaWtfcHl0aG9uJywgJy1waHQnLCAnMi4wJywgJy1waCcsICc3LjAnLCAnLXRuJywgJzgnLCAnLW1hJywgJzIwMCcsICctaW1hZScsICc8aW5maWxlLm1hZT4nLCAnLW9tYWUnLCAnPG91dGZpbGUubWFlPic=

>  <r_lp_tautomer_probability>  (369) 
1

>  <r_epik_Ionization_Penalty>  (369) 
5.13329e-06

>  <r_epik_Ionization_Penalty_Charging>  (369) 
0

>  <r_epik_Ionization_Penalty_Neutral>  (369) 
5.13329e-06

>  <r_epik_State_Penalty>  (369) 
-0

>  <r_epik_Charging_Adjusted_Penalty>  (369) 
0

>  <i_epik_Tot_Q>  (369) 
0

>  <i_epik_Tot_abs_Q>  (369) 
0

>  <s_lp_Force_Field>  (369) 
OPLS3e

>  <r_lp_Energy>  (369) 
-15.8074

>  <b_lp_Chiralities_Consistent>  (369) 
1

>  <s_lp_Variant>  (369) 
109:0-1

>  <s_i_glide_gridfile>  (369) 
pfpi4k_grid

>  <i_i_glide_lignum>  (369) 
31

>  <i_i_glide_rotatable_bonds>  (369) 
1

>  <r_i_docking_score>  (369) 
-4.16658

>  <r_i_glide_ligand_efficiency>  (369) 
-0.37878

>  <r_i_glide_ligand_efficiency_sa>  (369) 
-0.842399

>  <r_i_glide_ligand_efficiency_ln>  (369) 
-1.22622

>  <r_i_glide_gscore>  (369) 
-4.16658

>  <r_i_glide_lipo>  (369) 
-0.346602

>  <r_i_glide_hbond>  (369) 
-0.32

>  <r_i_glide_metal>  (369) 
-0

>  <r_i_glide_rewards>  (369) 
-2.25

>  <r_i_glide_evdw>  (369) 
-16.0491

>  <r_i_glide_ecoul>  (369) 
-2.98349

>  <r_i_glide_erotb>  (369) 
0

>  <r_i_glide_esite>  (369) 
0

>  <r_i_glide_emodel>  (369) 
-24.5113

>  <r_i_glide_energy>  (369) 
-19.0326

>  <r_i_glide_einternal>  (369) 
0.0213181

>  <r_i_glide_intrahb_reward>  (369) 
-0

>  <i_i_glide_confnum>  (369) 
1

>  <i_i_glide_posenum>  (369) 
12

>  <r_i_glide_eff_state_penalty>  (369) 
0

>  <ligand_id>  (369) 
109

>  <original_smiles>  (369) 
OC12CC3CC(CC(C3)C1)C2

>  <smiles>  (369) 
[H]OC12C([H])([H])C3([H])C([H])([H])C([H])(C([H])([H])C([H])(C3([H])[H])C1([H])[H])C2([H])[H]

$$$$
109:0:2
     RDKit          3D

 27 29  0  0  1  0  0  0  0  0999 V2000
    3.5725   -3.4557   -3.0246 O   0  0  0  0  0  0  0  0  0  0  0  0
    4.0541   -3.0781   -1.7480 C   0  0  1  0  0  0  0  0  0  0  0  0
    4.2832   -1.5530   -1.6960 C   0  0  0  0  0  0  0  0  0  0  0  0
    4.8198   -1.1703   -0.3002 C   0  0  2  0  0  0  0  0  0  0  0  0
    6.1507   -1.9011   -0.0329 C   0  0  0  0  0  0  0  0  0  0  0  0
    5.9195   -3.4264   -0.0914 C   0  0  1  0  0  0  0  0  0  0  0  0
    4.8871   -3.8312    0.9819 C   0  0  0  0  0  0  0  0  0  0  0  0
    3.5551   -3.0951    0.7189 C   0  0  1  0  0  0  0  0  0  0  0  0
    3.7935   -1.5706    0.7774 C   0  0  0  0  0  0  0  0  0  0  0  0
    3.0172   -3.4789   -0.6755 C   0  0  0  0  0  0  0  0  0  0  0  0
    5.3824   -3.8125   -1.4836 C   0  0  0  0  0  0  0  0  0  0  0  0
    3.3529   -4.3799   -2.9870 H   0  0  0  0  0  0  0  0  0  0  0  0
    4.9921   -1.2445   -2.4677 H   0  0  0  0  0  0  0  0  0  0  0  0
    3.3471   -1.0270   -1.9005 H   0  0  0  0  0  0  0  0  0  0  0  0
    4.9734   -0.0921   -0.2486 H   0  0  0  0  0  0  0  0  0  0  0  0
    6.8967   -1.6168   -0.7717 H   0  0  0  0  0  0  0  0  0  0  0  0
    6.5527   -1.6143    0.9398 H   0  0  0  0  0  0  0  0  0  0  0  0
    6.8606   -3.9449    0.0917 H   0  0  0  0  0  0  0  0  0  0  0  0
    4.7306   -4.9117    0.9654 H   0  0  0  0  0  0  0  0  0  0  0  0
    5.2645   -3.5902    1.9761 H   0  0  0  0  0  0  0  0  0  0  0  0
    2.8253   -3.3761    1.4801 H   0  0  0  0  0  0  0  0  0  0  0  0
    4.1568   -1.2868    1.7665 H   0  0  0  0  0  0  0  0  0  0  0  0
    2.8578   -1.0321    0.6216 H   0  0  0  0  0  0  0  0  0  0  0  0
    2.0633   -2.9852   -0.8661 H   0  0  0  0  0  0  0  0  0  0  0  0
    2.8226   -4.5543   -0.7154 H   0  0  0  0  0  0  0  0  0  0  0  0
    5.2270   -4.8921   -1.5331 H   0  0  0  0  0  0  0  0  0  0  0  0
    6.1157   -3.5697   -2.2558 H   0  0  0  0  0  0  0  0  0  0  0  0
  2  1  1  6
  1 12  1  0
  2 10  1  0
  2 11  1  0
  2  3  1  0
  3  4  1  0
  3 13  1  0
  3 14  1  0
  4  9  1  0
  4  5  1  0
  4 15  1  6
  5  6  1  0
  5 16  1  0
  5 17  1  0
  6  7  1  0
  6 11  1  0
  6 18  1  1
  7  8  1  0
  7 19  1  0
  7 20  1  0
  8  9  1  0
  8 10  1  0
  8 21  1  1
  9 22  1  0
  9 23  1  0
 10 24  1  0
 10 25  1  0
 11 26  1  0
 11 27  1  0
M  END
>  <i_m_ct_stereo_status>  (370) 
1

>  <s_m_source_file>  (370) 
/var/tmp/pbs.5076255.sched01/tmpt25ahaql/1236iipj8y0.sdf

>  <i_m_source_file_index>  (370) 
31

>  <i_lp_mmshare_version>  (370) 
48012

>  <i_f3d_flags>  (370) 
0

>  <s_epik_input>  (370) 
W09IXUMxMltDSDJdW0NAQEhdM1tDSDJdW0NASF0oW0NIMl0yKVtDSDJdW0NAQEhdKFtDSDJdMylbQ0gyXTE=

>  <s_epik_cmdline>  (370) 
J2VwaWtfcHl0aG9uJywgJy1waHQnLCAnMi4wJywgJy1waCcsICc3LjAnLCAnLXRuJywgJzgnLCAnLW1hJywgJzIwMCcsICctaW1hZScsICc8aW5maWxlLm1hZT4nLCAnLW9tYWUnLCAnPG91dGZpbGUubWFlPic=

>  <r_lp_tautomer_probability>  (370) 
1

>  <r_epik_Ionization_Penalty>  (370) 
5.13329e-06

>  <r_epik_Ionization_Penalty_Charging>  (370) 
0

>  <r_epik_Ionization_Penalty_Neutral>  (370) 
5.13329e-06

>  <r_epik_State_Penalty>  (370) 
-0

>  <r_epik_Charging_Adjusted_Penalty>  (370) 
0

>  <i_epik_Tot_Q>  (370) 
0

>  <i_epik_Tot_abs_Q>  (370) 
0

>  <s_lp_Force_Field>  (370) 
OPLS3e

>  <r_lp_Energy>  (370) 
-15.8074

>  <b_lp_Chiralities_Consistent>  (370) 
1

>  <s_lp_Variant>  (370) 
109:0-1

>  <s_i_glide_gridfile>  (370) 
pfpi4k_grid

>  <i_i_glide_lignum>  (370) 
31

>  <i_i_glide_rotatable_bonds>  (370) 
1

>  <r_i_docking_score>  (370) 
-4.14864

>  <r_i_glide_ligand_efficiency>  (370) 
-0.377149

>  <r_i_glide_ligand_efficiency_sa>  (370) 
-0.838771

>  <r_i_glide_ligand_efficiency_ln>  (370) 
-1.22094

>  <r_i_glide_gscore>  (370) 
-4.14864

>  <r_i_glide_lipo>  (370) 
-0.15782

>  <r_i_glide_hbond>  (370) 
-0.32

>  <r_i_glide_metal>  (370) 
-0

>  <r_i_glide_rewards>  (370) 
-2.25

>  <r_i_glide_evdw>  (370) 
-15.431

>  <r_i_glide_ecoul>  (370) 
-4.32844

>  <r_i_glide_erotb>  (370) 
0

>  <r_i_glide_esite>  (370) 
0

>  <r_i_glide_emodel>  (370) 
-25.203

>  <r_i_glide_energy>  (370) 
-19.7594

>  <r_i_glide_einternal>  (370) 
0.0388503

>  <r_i_glide_intrahb_reward>  (370) 
-0

>  <i_i_glide_confnum>  (370) 
1

>  <i_i_glide_posenum>  (370) 
25

>  <r_i_glide_eff_state_penalty>  (370) 
0

>  <ligand_id>  (370) 
109

>  <original_smiles>  (370) 
OC12CC3CC(CC(C3)C1)C2

>  <smiles>  (370) 
[H]OC12C([H])([H])C3([H])C([H])([H])C([H])(C([H])([H])C([H])(C3([H])[H])C1([H])[H])C2([H])[H]

$$$$
110:1:0
     RDKit          3D

 46 49  0  0  1  0  0  0  0  0999 V2000
    5.5144   -0.3873    0.8778 C   0  0  0  0  0  0  0  0  0  0  0  0
    5.5747   -1.6275   -0.4687 S   0  0  0  0  0  0  0  0  0  0  0  0
    4.7652   -1.1218   -1.5874 O   0  0  0  0  0  0  0  0  0  0  0  0
    6.9843   -1.9810   -0.6873 O   0  0  0  0  0  0  0  0  0  0  0  0
    4.7624   -2.9979    0.2037 N   0  0  0  0  0  0  0  0  0  0  0  0
    5.4863   -4.1613    0.7695 C   0  0  1  0  0  0  0  0  0  0  0  0
    5.1845   -4.2619    2.2809 C   0  0  0  0  0  0  0  0  0  0  0  0
    3.6602   -4.4007    2.4734 C   0  0  1  0  0  0  0  0  0  0  0  0
    2.9743   -3.1379    1.9066 C   0  0  0  0  0  0  0  0  0  0  0  0
    3.2922   -3.0301    0.3968 C   0  0  2  0  0  0  0  0  0  0  0  0
    2.7486   -4.2972   -0.2895 C   0  0  0  0  0  0  0  0  0  0  0  0
    3.4382   -5.5301    0.3335 C   0  0  1  0  0  0  0  0  0  0  0  0
    4.9539   -5.4360    0.0775 C   0  0  0  0  0  0  0  0  0  0  0  0
    3.1861   -5.5972    1.7747 N   0  0  0  0  0  0  0  0  0  0  0  0
    3.1273   -6.8232    2.4208 C   0  0  0  0  0  0  0  0  0  0  0  0
    2.0662   -7.6060    2.7077 C   0  0  0  0  0  0  0  0  0  0  0  0
    2.2809   -8.9332    3.4340 C   0  0  0  0  0  0  0  0  0  0  0  0
    1.2332  -10.0079    3.1166 C   0  0  0  0  0  0  0  0  0  0  0  0
   -0.1802   -9.4531    3.2976 C   0  0  0  0  0  0  0  0  0  0  0  0
   -0.4370   -8.2739    2.3510 C   0  0  0  0  0  0  0  0  0  0  0  0
    0.6628   -7.2109    2.3937 C   0  0  0  0  0  0  0  0  0  0  0  0
    0.3190   -6.0587    2.1326 O   0  0  0  0  0  0  0  0  0  0  0  0
    6.0479    0.4950    0.5180 H   0  0  0  0  0  0  0  0  0  0  0  0
    6.0079   -0.7776    1.7691 H   0  0  0  0  0  0  0  0  0  0  0  0
    4.4779   -0.1205    1.0856 H   0  0  0  0  0  0  0  0  0  0  0  0
    6.5614   -4.0772    0.6068 H   0  0  0  0  0  0  0  0  0  0  0  0
    5.6861   -5.1350    2.7005 H   0  0  0  0  0  0  0  0  0  0  0  0
    5.5653   -3.3898    2.8119 H   0  0  0  0  0  0  0  0  0  0  0  0
    3.4243   -4.4983    3.5346 H   0  0  0  0  0  0  0  0  0  0  0  0
    1.8957   -3.2028    2.0596 H   0  0  0  0  0  0  0  0  0  0  0  0
    3.3148   -2.2468    2.4341 H   0  0  0  0  0  0  0  0  0  0  0  0
    2.8311   -2.1376   -0.0314 H   0  0  0  0  0  0  0  0  0  0  0  0
    1.6734   -4.3805   -0.1636 H   0  0  0  0  0  0  0  0  0  0  0  0
    2.9258   -4.2510   -1.3642 H   0  0  0  0  0  0  0  0  0  0  0  0
    3.0451   -6.4289   -0.1323 H   0  0  0  0  0  0  0  0  0  0  0  0
    5.1551   -5.4119   -0.9940 H   0  0  0  0  0  0  0  0  0  0  0  0
    5.4512   -6.3227    0.4739 H   0  0  0  0  0  0  0  0  0  0  0  0
    4.1162   -7.1658    2.6950 H   0  0  0  0  0  0  0  0  0  0  0  0
    3.2724   -9.3227    3.1900 H   0  0  0  0  0  0  0  0  0  0  0  0
    2.2836   -8.7323    4.5082 H   0  0  0  0  0  0  0  0  0  0  0  0
    1.3635  -10.3554    2.0904 H   0  0  0  0  0  0  0  0  0  0  0  0
    1.3802  -10.8702    3.7664 H   0  0  0  0  0  0  0  0  0  0  0  0
   -0.9131  -10.2389    3.0986 H   0  0  0  0  0  0  0  0  0  0  0  0
   -0.3322   -9.1400    4.3332 H   0  0  0  0  0  0  0  0  0  0  0  0
   -0.5081   -8.6269    1.3234 H   0  0  0  0  0  0  0  0  0  0  0  0
   -1.3911   -7.8098    2.5885 H   0  0  0  0  0  0  0  0  0  0  0  0
  1  2  1  0
  1 23  1  0
  1 24  1  0
  1 25  1  0
  2  3  2  0
  2  4  2  0
  2  5  1  0
  5 10  1  0
  5  6  1  0
  6 13  1  0
  6  7  1  0
  6 26  1  1
  7  8  1  0
  7 27  1  0
  7 28  1  0
  8 14  1  0
  8  9  1  0
  8 29  1  1
  9 10  1  0
  9 30  1  0
  9 31  1  0
 10 11  1  0
 10 32  1  6
 11 12  1  0
 11 33  1  0
 11 34  1  0
 12 13  1  0
 12 14  1  0
 12 35  1  6
 13 36  1  0
 13 37  1  0
 14 15  1  0
 15 16  2  3
 15 38  1  0
 16 21  1  0
 16 17  1  0
 17 18  1  0
 17 39  1  0
 17 40  1  0
 18 19  1  0
 18 41  1  0
 18 42  1  0
 19 20  1  0
 19 43  1  0
 19 44  1  0
 20 21  1  0
 20 45  1  0
 20 46  1  0
 21 22  2  0
M  END
>  <i_m_ct_stereo_status>  (371) 
1

>  <s_m_source_file>  (371) 
/var/tmp/pbs.5076255.sched01/tmpt25ahaql/1236iipj8y0.sdf

>  <i_m_source_file_index>  (371) 
33

>  <i_lp_mmshare_version>  (371) 
48012

>  <i_f3d_flags>  (371) 
0

>  <s_epik_input>  (371) 
W0NIM11TKD1PKSg9TylOKFtDQEBIXTEyKVtDQEBIXTNbQ0gyXVtDQEhdKFtDSDJdMSlOKFtDQEBIXShbQ0gyXTMpW0NIMl0yKS9bQ0hdPUM0L1tDSDJdW0NIMl1bQ0gyXVtDSDJdQzQ9Tw==

>  <s_epik_cmdline>  (371) 
J2VwaWtfcHl0aG9uJywgJy1waHQnLCAnMi4wJywgJy1waCcsICc3LjAnLCAnLXRuJywgJzgnLCAnLW1hJywgJzIwMCcsICctaW1hZScsICc8aW5maWxlLm1hZT4nLCAnLW9tYWUnLCAnPG91dGZpbGUubWFlPic=

>  <r_epik_Ionization_Penalty>  (371) 
0.944857

>  <r_epik_Ionization_Penalty_Charging>  (371) 
0.944857

>  <r_epik_Ionization_Penalty_Neutral>  (371) 
6.11344e-09

>  <r_epik_State_Penalty>  (371) 
0.988584

>  <r_epik_Charging_Adjusted_Penalty>  (371) 
1.93344

>  <i_epik_Tot_Q>  (371) 
0

>  <i_epik_Tot_abs_Q>  (371) 
0

>  <s_epik_Chemistry_Notes>  (371) 
This compound has an imine and may undergo hydrolysis.

>  <s_lp_Force_Field>  (371) 
OPLS3e

>  <r_lp_Energy>  (371) 
44.2718

>  <b_lp_Chiralities_Consistent>  (371) 
1

>  <s_lp_Variant>  (371) 
110:0-2

>  <s_i_glide_gridfile>  (371) 
pfpi4k_grid

>  <i_i_glide_lignum>  (371) 
33

>  <i_i_glide_rotatable_bonds>  (371) 
2

>  <r_i_docking_score>  (371) 
-4.01845

>  <r_i_glide_ligand_efficiency>  (371) 
-0.182657

>  <r_i_glide_ligand_efficiency_sa>  (371) 
-0.511812

>  <r_i_glide_ligand_efficiency_ln>  (371) 
-0.982257

>  <r_i_glide_gscore>  (371) 
-4.01845

>  <r_i_glide_lipo>  (371) 
-0.347497

>  <r_i_glide_hbond>  (371) 
-0.236089

>  <r_i_glide_metal>  (371) 
-0

>  <r_i_glide_rewards>  (371) 
-1.23713

>  <r_i_glide_evdw>  (371) 
-22.6862

>  <r_i_glide_ecoul>  (371) 
-6.88179

>  <r_i_glide_erotb>  (371) 
0.177917

>  <r_i_glide_esite>  (371) 
-0.209077

>  <r_i_glide_emodel>  (371) 
-37.3787

>  <r_i_glide_energy>  (371) 
-29.568

>  <r_i_glide_einternal>  (371) 
1.60395

>  <r_i_glide_intrahb_reward>  (371) 
-0

>  <i_i_glide_confnum>  (371) 
4

>  <i_i_glide_posenum>  (371) 
7

>  <r_i_glide_eff_state_penalty>  (371) 
0

>  <ligand_id>  (371) 
110

>  <original_smiles>  (371) 
CS(=O)(=O)N1C2CC3CC1CC(C2)N3C=C1CCCCC1=O

>  <smiles>  (371) 
[H]C(=C1C(=O)C([H])([H])C([H])([H])C([H])([H])C1([H])[H])N1C2([H])C([H])([H])C3([H])N(S(=O)(=O)C([H])([H])[H])C([H])(C2([H])[H])C([H])([H])C1([H])C3([H])[H]

$$$$
110:1:1
     RDKit          3D

 46 49  0  0  1  0  0  0  0  0999 V2000
    3.8316   -0.3975    0.9183 C   0  0  0  0  0  0  0  0  0  0  0  0
    5.3909   -1.3707    0.8582 S   0  0  0  0  0  0  0  0  0  0  0  0
    5.9784   -1.2245   -0.4909 O   0  0  0  0  0  0  0  0  0  0  0  0
    6.1760   -1.0453    2.0508 O   0  0  0  0  0  0  0  0  0  0  0  0
    4.8679   -3.0102    1.0104 N   0  0  0  0  0  0  0  0  0  0  0  0
    4.8589   -3.7156    2.3162 C   0  0  1  0  0  0  0  0  0  0  0  0
    3.4046   -4.0330    2.7006 C   0  0  0  0  0  0  0  0  0  0  0  0
    2.7773   -4.8831    1.5931 C   0  0  1  0  0  0  0  0  0  0  0  0
    2.7802   -4.0893    0.2700 C   0  0  0  0  0  0  0  0  0  0  0  0
    4.2359   -3.7543   -0.1078 C   0  0  2  0  0  0  0  0  0  0  0  0
    5.0025   -5.0817   -0.2848 C   0  0  0  0  0  0  0  0  0  0  0  0
    4.9328   -5.8754    1.0415 C   0  0  1  0  0  0  0  0  0  0  0  0
    5.6300   -5.0457    2.1433 C   0  0  0  0  0  0  0  0  0  0  0  0
    3.5421   -6.1293    1.4292 N   0  0  0  0  0  0  0  0  0  0  0  0
    3.1955   -7.3142    2.0805 C   0  0  0  0  0  0  0  0  0  0  0  0
    2.0080   -7.9185    2.2607 C   0  0  0  0  0  0  0  0  0  0  0  0
    1.9287   -9.1627    3.1495 C   0  0  0  0  0  0  0  0  0  0  0  0
    0.5840   -9.3533    3.8692 C   0  0  0  0  0  0  0  0  0  0  0  0
   -0.5805   -9.2253    2.8836 C   0  0  0  0  0  0  0  0  0  0  0  0
   -0.6046   -7.8330    2.2561 C   0  0  0  0  0  0  0  0  0  0  0  0
    0.7355   -7.4545    1.6169 C   0  0  0  0  0  0  0  0  0  0  0  0
    0.6812   -6.7499    0.6056 O   0  0  0  0  0  0  0  0  0  0  0  0
    4.0977    0.6579    0.8612 H   0  0  0  0  0  0  0  0  0  0  0  0
    3.3147   -0.5877    1.8577 H   0  0  0  0  0  0  0  0  0  0  0  0
    3.1941   -0.6660    0.0756 H   0  0  0  0  0  0  0  0  0  0  0  0
    5.3180   -3.1172    3.1070 H   0  0  0  0  0  0  0  0  0  0  0  0
    3.3735   -4.6025    3.6290 H   0  0  0  0  0  0  0  0  0  0  0  0
    2.8174   -3.1287    2.8556 H   0  0  0  0  0  0  0  0  0  0  0  0
    1.7515   -5.0619    1.9162 H   0  0  0  0  0  0  0  0  0  0  0  0
    2.3196   -4.6836   -0.5191 H   0  0  0  0  0  0  0  0  0  0  0  0
    2.1948   -3.1780    0.3659 H   0  0  0  0  0  0  0  0  0  0  0  0
    4.2643   -3.1668   -1.0291 H   0  0  0  0  0  0  0  0  0  0  0  0
    4.5806   -5.6739   -1.0954 H   0  0  0  0  0  0  0  0  0  0  0  0
    6.0360   -4.8787   -0.5646 H   0  0  0  0  0  0  0  0  0  0  0  0
    5.4616   -6.8244    0.9068 H   0  0  0  0  0  0  0  0  0  0  0  0
    6.6768   -4.8571    1.8911 H   0  0  0  0  0  0  0  0  0  0  0  0
    5.6177   -5.6107    3.0754 H   0  0  0  0  0  0  0  0  0  0  0  0
    4.0565   -7.7501    2.5721 H   0  0  0  0  0  0  0  0  0  0  0  0
    2.1346  -10.0250    2.5156 H   0  0  0  0  0  0  0  0  0  0  0  0
    2.7222   -9.1366    3.9020 H   0  0  0  0  0  0  0  0  0  0  0  0
    0.5541  -10.3325    4.3453 H   0  0  0  0  0  0  0  0  0  0  0  0
    0.4771   -8.6116    4.6660 H   0  0  0  0  0  0  0  0  0  0  0  0
   -0.4876   -9.9763    2.0954 H   0  0  0  0  0  0  0  0  0  0  0  0
   -1.5320   -9.4070    3.3930 H   0  0  0  0  0  0  0  0  0  0  0  0
   -1.3477   -7.8199    1.4678 H   0  0  0  0  0  0  0  0  0  0  0  0
   -0.8732   -7.0725    2.9882 H   0  0  0  0  0  0  0  0  0  0  0  0
  1  2  1  0
  1 23  1  0
  1 24  1  0
  1 25  1  0
  2  3  2  0
  2  4  2  0
  2  5  1  0
  5 10  1  0
  5  6  1  0
  6 13  1  0
  6  7  1  0
  6 26  1  1
  7  8  1  0
  7 27  1  0
  7 28  1  0
  8 14  1  0
  8  9  1  0
  8 29  1  1
  9 10  1  0
  9 30  1  0
  9 31  1  0
 10 11  1  0
 10 32  1  6
 11 12  1  0
 11 33  1  0
 11 34  1  0
 12 13  1  0
 12 14  1  0
 12 35  1  6
 13 36  1  0
 13 37  1  0
 14 15  1  0
 15 16  2  3
 15 38  1  0
 16 21  1  0
 16 17  1  0
 17 18  1  0
 17 39  1  0
 17 40  1  0
 18 19  1  0
 18 41  1  0
 18 42  1  0
 19 20  1  0
 19 43  1  0
 19 44  1  0
 20 21  1  0
 20 45  1  0
 20 46  1  0
 21 22  2  0
M  END
>  <i_m_ct_stereo_status>  (372) 
1

>  <s_m_source_file>  (372) 
/var/tmp/pbs.5076255.sched01/tmpt25ahaql/1236iipj8y0.sdf

>  <i_m_source_file_index>  (372) 
33

>  <i_lp_mmshare_version>  (372) 
48012

>  <i_f3d_flags>  (372) 
0

>  <s_epik_input>  (372) 
W0NIM11TKD1PKSg9TylOKFtDQEBIXTEyKVtDQEBIXTNbQ0gyXVtDQEhdKFtDSDJdMSlOKFtDQEBIXShbQ0gyXTMpW0NIMl0yKS9bQ0hdPUM0L1tDSDJdW0NIMl1bQ0gyXVtDSDJdQzQ9Tw==

>  <s_epik_cmdline>  (372) 
J2VwaWtfcHl0aG9uJywgJy1waHQnLCAnMi4wJywgJy1waCcsICc3LjAnLCAnLXRuJywgJzgnLCAnLW1hJywgJzIwMCcsICctaW1hZScsICc8aW5maWxlLm1hZT4nLCAnLW9tYWUnLCAnPG91dGZpbGUubWFlPic=

>  <r_epik_Ionization_Penalty>  (372) 
0.944857

>  <r_epik_Ionization_Penalty_Charging>  (372) 
0.944857

>  <r_epik_Ionization_Penalty_Neutral>  (372) 
6.11344e-09

>  <r_epik_State_Penalty>  (372) 
0.988584

>  <r_epik_Charging_Adjusted_Penalty>  (372) 
1.93344

>  <i_epik_Tot_Q>  (372) 
0

>  <i_epik_Tot_abs_Q>  (372) 
0

>  <s_epik_Chemistry_Notes>  (372) 
This compound has an imine and may undergo hydrolysis.

>  <s_lp_Force_Field>  (372) 
OPLS3e

>  <r_lp_Energy>  (372) 
44.2718

>  <b_lp_Chiralities_Consistent>  (372) 
1

>  <s_lp_Variant>  (372) 
110:0-2

>  <s_i_glide_gridfile>  (372) 
pfpi4k_grid

>  <i_i_glide_lignum>  (372) 
33

>  <i_i_glide_rotatable_bonds>  (372) 
2

>  <r_i_docking_score>  (372) 
-3.84866

>  <r_i_glide_ligand_efficiency>  (372) 
-0.174939

>  <r_i_glide_ligand_efficiency_sa>  (372) 
-0.490187

>  <r_i_glide_ligand_efficiency_ln>  (372) 
-0.940754

>  <r_i_glide_gscore>  (372) 
-3.84866

>  <r_i_glide_lipo>  (372) 
-0.205433

>  <r_i_glide_hbond>  (372) 
-0.11314

>  <r_i_glide_metal>  (372) 
-0

>  <r_i_glide_rewards>  (372) 
-1.43241

>  <r_i_glide_evdw>  (372) 
-27.7379

>  <r_i_glide_ecoul>  (372) 
-5.13881

>  <r_i_glide_erotb>  (372) 
0.177917

>  <r_i_glide_esite>  (372) 
-0.11788

>  <r_i_glide_emodel>  (372) 
-40.2507

>  <r_i_glide_energy>  (372) 
-32.8767

>  <r_i_glide_einternal>  (372) 
0.937517

>  <r_i_glide_intrahb_reward>  (372) 
-0

>  <i_i_glide_confnum>  (372) 
1

>  <i_i_glide_posenum>  (372) 
1

>  <r_i_glide_eff_state_penalty>  (372) 
0

>  <ligand_id>  (372) 
110

>  <original_smiles>  (372) 
CS(=O)(=O)N1C2CC3CC1CC(C2)N3C=C1CCCCC1=O

>  <smiles>  (372) 
[H]C(=C1C(=O)C([H])([H])C([H])([H])C([H])([H])C1([H])[H])N1C2([H])C([H])([H])C3([H])N(S(=O)(=O)C([H])([H])[H])C([H])(C2([H])[H])C([H])([H])C1([H])C3([H])[H]

$$$$
110:1:2
     RDKit          3D

 46 49  0  0  1  0  0  0  0  0999 V2000
    7.1935   -1.6806    0.4801 C   0  0  0  0  0  0  0  0  0  0  0  0
    5.5662   -1.4383    1.2952 S   0  0  0  0  0  0  0  0  0  0  0  0
    5.8057   -1.0377    2.6934 O   0  0  0  0  0  0  0  0  0  0  0  0
    4.7341   -0.6113    0.4125 O   0  0  0  0  0  0  0  0  0  0  0  0
    4.9114   -3.0364    1.3091 N   0  0  0  0  0  0  0  0  0  0  0  0
    5.0191   -3.9292    2.4878 C   0  0  1  0  0  0  0  0  0  0  0  0
    3.5898   -4.2236    2.9851 C   0  0  0  0  0  0  0  0  0  0  0  0
    2.7933   -4.8791    1.8474 C   0  0  1  0  0  0  0  0  0  0  0  0
    2.7168   -3.9116    0.6464 C   0  0  0  0  0  0  0  0  0  0  0  0
    4.1475   -3.5951    0.1656 C   0  0  2  0  0  0  0  0  0  0  0  0
    4.8008   -4.9225   -0.2688 C   0  0  0  0  0  0  0  0  0  0  0  0
    4.8159   -5.8912    0.9361 C   0  0  1  0  0  0  0  0  0  0  0  0
    5.6782   -5.2570    2.0494 C   0  0  0  0  0  0  0  0  0  0  0  0
    3.4570   -6.1266    1.4364 N   0  0  0  0  0  0  0  0  0  0  0  0
    3.1060   -7.3670    1.9670 C   0  0  0  0  0  0  0  0  0  0  0  0
    1.9066   -7.9405    2.1785 C   0  0  0  0  0  0  0  0  0  0  0  0
    1.8359   -9.2850    2.9061 C   0  0  0  0  0  0  0  0  0  0  0  0
    0.5502   -9.5089    3.7204 C   0  0  0  0  0  0  0  0  0  0  0  0
   -0.6874   -9.2015    2.8762 C   0  0  0  0  0  0  0  0  0  0  0  0
   -0.6863   -7.7388    2.4252 C   0  0  0  0  0  0  0  0  0  0  0  0
    0.6145   -7.3491    1.7090 C   0  0  0  0  0  0  0  0  0  0  0  0
    0.5196   -6.5372    0.7832 O   0  0  0  0  0  0  0  0  0  0  0  0
    7.6863   -0.7082    0.4744 H   0  0  0  0  0  0  0  0  0  0  0  0
    7.0426   -2.0756   -0.5246 H   0  0  0  0  0  0  0  0  0  0  0  0
    7.7888   -2.3817    1.0618 H   0  0  0  0  0  0  0  0  0  0  0  0
    5.6003   -3.4673    3.2916 H   0  0  0  0  0  0  0  0  0  0  0  0
    3.6166   -4.9091    3.8322 H   0  0  0  0  0  0  0  0  0  0  0  0
    3.0870   -3.3154    3.3157 H   0  0  0  0  0  0  0  0  0  0  0  0
    1.7908   -5.0521    2.2478 H   0  0  0  0  0  0  0  0  0  0  0  0
    2.1451   -4.3693   -0.1605 H   0  0  0  0  0  0  0  0  0  0  0  0
    2.2033   -2.9945    0.9252 H   0  0  0  0  0  0  0  0  0  0  0  0
    4.1195   -2.8913   -0.6709 H   0  0  0  0  0  0  0  0  0  0  0  0
    4.2339   -5.3658   -1.0843 H   0  0  0  0  0  0  0  0  0  0  0  0
    5.8091   -4.7517   -0.6478 H   0  0  0  0  0  0  0  0  0  0  0  0
    5.2626   -6.8409    0.6221 H   0  0  0  0  0  0  0  0  0  0  0  0
    6.7039   -5.0890    1.7096 H   0  0  0  0  0  0  0  0  0  0  0  0
    5.7230   -5.9410    2.8966 H   0  0  0  0  0  0  0  0  0  0  0  0
    3.9781   -7.9003    2.3192 H   0  0  0  0  0  0  0  0  0  0  0  0
    1.9377  -10.0654    2.1518 H   0  0  0  0  0  0  0  0  0  0  0  0
    2.6909   -9.3895    3.5797 H   0  0  0  0  0  0  0  0  0  0  0  0
    0.5080  -10.5399    4.0674 H   0  0  0  0  0  0  0  0  0  0  0  0
    0.5524   -8.8751    4.6116 H   0  0  0  0  0  0  0  0  0  0  0  0
   -0.7073   -9.8552    2.0010 H   0  0  0  0  0  0  0  0  0  0  0  0
   -1.6003   -9.4057    3.4438 H   0  0  0  0  0  0  0  0  0  0  0  0
   -1.4903   -7.5887    1.7177 H   0  0  0  0  0  0  0  0  0  0  0  0
   -0.8475   -7.0701    3.2701 H   0  0  0  0  0  0  0  0  0  0  0  0
  1  2  1  0
  1 23  1  0
  1 24  1  0
  1 25  1  0
  2  3  2  0
  2  4  2  0
  2  5  1  0
  5 10  1  0
  5  6  1  0
  6 13  1  0
  6  7  1  0
  6 26  1  1
  7  8  1  0
  7 27  1  0
  7 28  1  0
  8 14  1  0
  8  9  1  0
  8 29  1  1
  9 10  1  0
  9 30  1  0
  9 31  1  0
 10 11  1  0
 10 32  1  6
 11 12  1  0
 11 33  1  0
 11 34  1  0
 12 13  1  0
 12 14  1  0
 12 35  1  6
 13 36  1  0
 13 37  1  0
 14 15  1  0
 15 16  2  3
 15 38  1  0
 16 21  1  0
 16 17  1  0
 17 18  1  0
 17 39  1  0
 17 40  1  0
 18 19  1  0
 18 41  1  0
 18 42  1  0
 19 20  1  0
 19 43  1  0
 19 44  1  0
 20 21  1  0
 20 45  1  0
 20 46  1  0
 21 22  2  0
M  END
>  <i_m_ct_stereo_status>  (373) 
1

>  <s_m_source_file>  (373) 
/var/tmp/pbs.5076255.sched01/tmpt25ahaql/1236iipj8y0.sdf

>  <i_m_source_file_index>  (373) 
33

>  <i_lp_mmshare_version>  (373) 
48012

>  <i_f3d_flags>  (373) 
0

>  <s_epik_input>  (373) 
W0NIM11TKD1PKSg9TylOKFtDQEBIXTEyKVtDQEBIXTNbQ0gyXVtDQEhdKFtDSDJdMSlOKFtDQEBIXShbQ0gyXTMpW0NIMl0yKS9bQ0hdPUM0L1tDSDJdW0NIMl1bQ0gyXVtDSDJdQzQ9Tw==

>  <s_epik_cmdline>  (373) 
J2VwaWtfcHl0aG9uJywgJy1waHQnLCAnMi4wJywgJy1waCcsICc3LjAnLCAnLXRuJywgJzgnLCAnLW1hJywgJzIwMCcsICctaW1hZScsICc8aW5maWxlLm1hZT4nLCAnLW9tYWUnLCAnPG91dGZpbGUubWFlPic=

>  <r_epik_Ionization_Penalty>  (373) 
0.944857

>  <r_epik_Ionization_Penalty_Charging>  (373) 
0.944857

>  <r_epik_Ionization_Penalty_Neutral>  (373) 
6.11344e-09

>  <r_epik_State_Penalty>  (373) 
0.988584

>  <r_epik_Charging_Adjusted_Penalty>  (373) 
1.93344

>  <i_epik_Tot_Q>  (373) 
0

>  <i_epik_Tot_abs_Q>  (373) 
0

>  <s_epik_Chemistry_Notes>  (373) 
This compound has an imine and may undergo hydrolysis.

>  <s_lp_Force_Field>  (373) 
OPLS3e

>  <r_lp_Energy>  (373) 
44.2718

>  <b_lp_Chiralities_Consistent>  (373) 
1

>  <s_lp_Variant>  (373) 
110:0-2

>  <s_i_glide_gridfile>  (373) 
pfpi4k_grid

>  <i_i_glide_lignum>  (373) 
33

>  <i_i_glide_rotatable_bonds>  (373) 
2

>  <r_i_docking_score>  (373) 
-3.5811

>  <r_i_glide_ligand_efficiency>  (373) 
-0.162777

>  <r_i_glide_ligand_efficiency_sa>  (373) 
-0.456108

>  <r_i_glide_ligand_efficiency_ln>  (373) 
-0.875352

>  <r_i_glide_gscore>  (373) 
-3.5811

>  <r_i_glide_lipo>  (373) 
-0.218595

>  <r_i_glide_hbond>  (373) 
-0.16

>  <r_i_glide_metal>  (373) 
-0

>  <r_i_glide_rewards>  (373) 
-1.48631

>  <r_i_glide_evdw>  (373) 
-27.1891

>  <r_i_glide_ecoul>  (373) 
-3.13635

>  <r_i_glide_erotb>  (373) 
0.177917

>  <r_i_glide_esite>  (373) 
-0.0642089

>  <r_i_glide_emodel>  (373) 
-37.1606

>  <r_i_glide_energy>  (373) 
-30.3255

>  <r_i_glide_einternal>  (373) 
1.28608

>  <r_i_glide_intrahb_reward>  (373) 
-0

>  <i_i_glide_confnum>  (373) 
1

>  <i_i_glide_posenum>  (373) 
30

>  <r_i_glide_eff_state_penalty>  (373) 
0

>  <ligand_id>  (373) 
110

>  <original_smiles>  (373) 
CS(=O)(=O)N1C2CC3CC1CC(C2)N3C=C1CCCCC1=O

>  <smiles>  (373) 
[H]C(=C1C(=O)C([H])([H])C([H])([H])C([H])([H])C1([H])[H])N1C2([H])C([H])([H])C3([H])N(S(=O)(=O)C([H])([H])[H])C([H])(C2([H])[H])C([H])([H])C1([H])C3([H])[H]

$$$$
110:2:0
     RDKit          3D

 46 49  0  0  1  0  0  0  0  0999 V2000
   -0.8236    2.2221    3.2887 C   0  0  0  0  0  0  0  0  0  0  0  0
    0.0614    1.7864    4.8240 S   0  0  0  0  0  0  0  0  0  0  0  0
    0.6813    3.0124    5.3635 O   0  0  0  0  0  0  0  0  0  0  0  0
   -0.8528    0.9966    5.6780 O   0  0  0  0  0  0  0  0  0  0  0  0
    1.3395    0.7374    4.3295 N   0  0  0  0  0  0  0  0  0  0  0  0
    2.5725    1.2792    3.7038 C   0  0  1  0  0  0  0  0  0  0  0  0
    3.7816    0.4696    4.2342 C   0  0  0  0  0  0  0  0  0  0  0  0
    3.5815   -1.0113    3.8605 C   0  0  1  0  0  0  0  0  0  0  0  0
    2.2910   -1.5246    4.5367 C   0  0  0  0  0  0  0  0  0  0  0  0
    1.0960   -0.6943    4.0175 C   0  0  2  0  0  0  0  0  0  0  0  0
    1.0312   -0.8926    2.4903 C   0  0  0  0  0  0  0  0  0  0  0  0
    2.3415   -0.3910    1.8725 C   0  0  1  0  0  0  0  0  0  0  0  0
    2.4954    1.0990    2.1712 C   0  0  0  0  0  0  0  0  0  0  0  0
    3.4974   -1.1211    2.4076 N   0  0  0  0  0  0  0  0  0  0  0  0
    4.6351   -1.4209    1.6570 C   0  0  0  0  0  0  0  0  0  0  0  0
    4.6851   -1.9331    0.3960 C   0  0  0  0  0  0  0  0  0  0  0  0
    3.4378   -2.3423   -0.3810 C   0  0  0  0  0  0  0  0  0  0  0  0
    3.6482   -3.4643   -1.3727 C   0  0  0  0  0  0  0  0  0  0  0  0
    4.8337   -3.1659   -2.2861 C   0  0  0  0  0  0  0  0  0  0  0  0
    6.1285   -3.0223   -1.4696 C   0  0  0  0  0  0  0  0  0  0  0  0
    5.9742   -2.0638   -0.2699 C   0  0  0  0  0  0  0  0  0  0  0  0
    7.0088   -1.4581    0.0747 O   0  0  0  0  0  0  0  0  0  0  0  0
   -1.6566    2.8829    3.5355 H   0  0  0  0  0  0  0  0  0  0  0  0
   -1.2173    1.3261    2.8110 H   0  0  0  0  0  0  0  0  0  0  0  0
   -0.1580    2.7534    2.6021 H   0  0  0  0  0  0  0  0  0  0  0  0
    2.7030    2.3384    3.9431 H   0  0  0  0  0  0  0  0  0  0  0  0
    4.7034    0.8335    3.7744 H   0  0  0  0  0  0  0  0  0  0  0  0
    3.8901    0.5920    5.3121 H   0  0  0  0  0  0  0  0  0  0  0  0
    4.4300   -1.6061    4.2245 H   0  0  0  0  0  0  0  0  0  0  0  0
    2.1409   -2.5817    4.3096 H   0  0  0  0  0  0  0  0  0  0  0  0
    2.3627   -1.4451    5.6204 H   0  0  0  0  0  0  0  0  0  0  0  0
    0.1691   -1.0351    4.4872 H   0  0  0  0  0  0  0  0  0  0  0  0
    0.8852   -1.9483    2.2566 H   0  0  0  0  0  0  0  0  0  0  0  0
    0.1941   -0.3520    2.0586 H   0  0  0  0  0  0  0  0  0  0  0  0
    2.2499   -0.4734    0.7946 H   0  0  0  0  0  0  0  0  0  0  0  0
    1.6735    1.6666    1.7332 H   0  0  0  0  0  0  0  0  0  0  0  0
    3.4138    1.4490    1.6973 H   0  0  0  0  0  0  0  0  0  0  0  0
    5.5480   -1.1184    2.1433 H   0  0  0  0  0  0  0  0  0  0  0  0
    2.6512   -2.6523    0.3131 H   0  0  0  0  0  0  0  0  0  0  0  0
    3.0764   -1.4672   -0.9311 H   0  0  0  0  0  0  0  0  0  0  0  0
    3.8185   -4.4000   -0.8327 H   0  0  0  0  0  0  0  0  0  0  0  0
    2.7401   -3.6037   -1.9573 H   0  0  0  0  0  0  0  0  0  0  0  0
    4.9444   -3.9781   -3.0111 H   0  0  0  0  0  0  0  0  0  0  0  0
    4.6436   -2.2521   -2.8540 H   0  0  0  0  0  0  0  0  0  0  0  0
    6.4189   -3.9934   -1.0709 H   0  0  0  0  0  0  0  0  0  0  0  0
    6.9344   -2.6878   -2.1205 H   0  0  0  0  0  0  0  0  0  0  0  0
  1  2  1  0
  1 23  1  0
  1 24  1  0
  1 25  1  0
  2  3  2  0
  2  4  2  0
  2  5  1  0
  5 10  1  0
  5  6  1  0
  6 13  1  0
  6  7  1  0
  6 26  1  6
  7  8  1  0
  7 27  1  0
  7 28  1  0
  8 14  1  0
  8  9  1  0
  8 29  1  1
  9 10  1  0
  9 30  1  0
  9 31  1  0
 10 11  1  0
 10 32  1  1
 11 12  1  0
 11 33  1  0
 11 34  1  0
 12 13  1  0
 12 14  1  0
 12 35  1  6
 13 36  1  0
 13 37  1  0
 14 15  1  0
 15 16  2  3
 15 38  1  0
 16 21  1  0
 16 17  1  0
 17 18  1  0
 17 39  1  0
 17 40  1  0
 18 19  1  0
 18 41  1  0
 18 42  1  0
 19 20  1  0
 19 43  1  0
 19 44  1  0
 20 21  1  0
 20 45  1  0
 20 46  1  0
 21 22  2  0
M  END
>  <i_m_ct_stereo_status>  (374) 
1

>  <s_m_source_file>  (374) 
/var/tmp/pbs.5076255.sched01/tmpt25ahaql/1236iipj8y0.sdf

>  <i_m_source_file_index>  (374) 
34

>  <i_lp_mmshare_version>  (374) 
48012

>  <i_f3d_flags>  (374) 
0

>  <s_epik_input>  (374) 
W0NIM11TKD1PKSg9TylOKFtDQEBIXTEyKVtDQEBIXTNbQ0gyXVtDQEhdKFtDSDJdMSlOKFtDQEBIXShbQ0gyXTMpW0NIMl0yKS9bQ0hdPUM0L1tDSDJdW0NIMl1bQ0gyXVtDSDJdQzQ9Tw==

>  <s_epik_cmdline>  (374) 
J2VwaWtfcHl0aG9uJywgJy1waHQnLCAnMi4wJywgJy1waCcsICc3LjAnLCAnLXRuJywgJzgnLCAnLW1hJywgJzIwMCcsICctaW1hZScsICc8aW5maWxlLm1hZT4nLCAnLW9tYWUnLCAnPG91dGZpbGUubWFlPic=

>  <r_epik_Ionization_Penalty>  (374) 
0.944857

>  <r_epik_Ionization_Penalty_Charging>  (374) 
0.944857

>  <r_epik_Ionization_Penalty_Neutral>  (374) 
6.11344e-09

>  <r_epik_State_Penalty>  (374) 
0.988584

>  <r_epik_Charging_Adjusted_Penalty>  (374) 
1.93344

>  <i_epik_Tot_Q>  (374) 
0

>  <i_epik_Tot_abs_Q>  (374) 
0

>  <s_epik_Chemistry_Notes>  (374) 
This compound has an imine and may undergo hydrolysis.

>  <s_lp_Force_Field>  (374) 
OPLS3e

>  <r_lp_Energy>  (374) 
43.7753

>  <b_lp_Chiralities_Consistent>  (374) 
1

>  <s_lp_Variant>  (374) 
110:0-3

>  <s_i_glide_gridfile>  (374) 
pfpi4k_grid

>  <i_i_glide_lignum>  (374) 
34

>  <i_i_glide_rotatable_bonds>  (374) 
2

>  <r_i_docking_score>  (374) 
-3.29881

>  <r_i_glide_ligand_efficiency>  (374) 
-0.149946

>  <r_i_glide_ligand_efficiency_sa>  (374) 
-0.420154

>  <r_i_glide_ligand_efficiency_ln>  (374) 
-0.80635

>  <r_i_glide_gscore>  (374) 
-3.29881

>  <r_i_glide_lipo>  (374) 
-0.215476

>  <r_i_glide_hbond>  (374) 
-0.0901753

>  <r_i_glide_metal>  (374) 
-0

>  <r_i_glide_rewards>  (374) 
-1.197

>  <r_i_glide_evdw>  (374) 
-24.227

>  <r_i_glide_ecoul>  (374) 
-4.72568

>  <r_i_glide_erotb>  (374) 
0.177917

>  <r_i_glide_esite>  (374) 
-0.053873

>  <r_i_glide_emodel>  (374) 
-34.8041

>  <r_i_glide_energy>  (374) 
-28.9526

>  <r_i_glide_einternal>  (374) 
0.407584

>  <r_i_glide_intrahb_reward>  (374) 
-0

>  <i_i_glide_confnum>  (374) 
6

>  <i_i_glide_posenum>  (374) 
8

>  <r_i_glide_eff_state_penalty>  (374) 
0

>  <ligand_id>  (374) 
110

>  <original_smiles>  (374) 
CS(=O)(=O)N1C2CC3CC1CC(C2)N3C=C1CCCCC1=O

>  <smiles>  (374) 
[H]C(=C1C(=O)C([H])([H])C([H])([H])C([H])([H])C1([H])[H])N1C2([H])C([H])([H])C3([H])N(S(=O)(=O)C([H])([H])[H])C([H])(C2([H])[H])C([H])([H])C1([H])C3([H])[H]

$$$$
110:2:1
     RDKit          3D

 46 49  0  0  1  0  0  0  0  0999 V2000
   -1.6368    1.8113    4.8002 C   0  0  0  0  0  0  0  0  0  0  0  0
   -0.3160    0.8937    5.6975 S   0  0  0  0  0  0  0  0  0  0  0  0
    0.4977    1.8574    6.4627 O   0  0  0  0  0  0  0  0  0  0  0  0
   -0.9546   -0.2415    6.3713 O   0  0  0  0  0  0  0  0  0  0  0  0
    0.6780    0.2766    4.4203 N   0  0  0  0  0  0  0  0  0  0  0  0
    1.3518   -1.0404    4.5563 C   0  0  1  0  0  0  0  0  0  0  0  0
    1.2718   -1.7400    3.1944 C   0  0  0  0  0  0  0  0  0  0  0  0
    1.9688   -0.8671    2.1486 C   0  0  1  0  0  0  0  0  0  0  0  0
    1.2625    0.5069    2.0609 C   0  0  0  0  0  0  0  0  0  0  0  0
    1.3342    1.1827    3.4399 C   0  0  2  0  0  0  0  0  0  0  0  0
    2.8280    1.3717    3.7888 C   0  0  0  0  0  0  0  0  0  0  0  0
    3.5189   -0.0076    3.8134 C   0  0  1  0  0  0  0  0  0  0  0  0
    2.8473   -0.8491    4.9118 C   0  0  0  0  0  0  0  0  0  0  0  0
    3.3810   -0.6950    2.5264 N   0  0  0  0  0  0  0  0  0  0  0  0
    4.3868   -1.5339    2.0478 C   0  0  0  0  0  0  0  0  0  0  0  0
    4.7039   -1.8005    0.7674 C   0  0  0  0  0  0  0  0  0  0  0  0
    4.0777   -1.0792   -0.4361 C   0  0  0  0  0  0  0  0  0  0  0  0
    3.9795   -1.9418   -1.6965 C   0  0  0  0  0  0  0  0  0  0  0  0
    5.3411   -2.5313   -2.0416 C   0  0  0  0  0  0  0  0  0  0  0  0
    5.8368   -3.4488   -0.9141 C   0  0  0  0  0  0  0  0  0  0  0  0
    5.7696   -2.7946    0.4743 C   0  0  0  0  0  0  0  0  0  0  0  0
    6.5972   -3.1631    1.3063 O   0  0  0  0  0  0  0  0  0  0  0  0
   -2.3336    2.2158    5.5327 H   0  0  0  0  0  0  0  0  0  0  0  0
   -2.1619    1.1319    4.1270 H   0  0  0  0  0  0  0  0  0  0  0  0
   -1.2040    2.6303    4.2302 H   0  0  0  0  0  0  0  0  0  0  0  0
    0.8632   -1.6618    5.3056 H   0  0  0  0  0  0  0  0  0  0  0  0
    1.7693   -2.7078    3.2217 H   0  0  0  0  0  0  0  0  0  0  0  0
    0.2384   -1.9169    2.9040 H   0  0  0  0  0  0  0  0  0  0  0  0
    1.8438   -1.4084    1.2117 H   0  0  0  0  0  0  0  0  0  0  0  0
    1.7385    1.1339    1.3074 H   0  0  0  0  0  0  0  0  0  0  0  0
    0.2256    0.3891    1.7473 H   0  0  0  0  0  0  0  0  0  0  0  0
    0.8401    2.1537    3.4101 H   0  0  0  0  0  0  0  0  0  0  0  0
    3.3049    2.0130    3.0473 H   0  0  0  0  0  0  0  0  0  0  0  0
    2.9409    1.8768    4.7514 H   0  0  0  0  0  0  0  0  0  0  0  0
    4.5807    0.1289    4.0332 H   0  0  0  0  0  0  0  0  0  0  0  0
    2.9682   -0.3846    5.8931 H   0  0  0  0  0  0  0  0  0  0  0  0
    3.3427   -1.8189    4.9533 H   0  0  0  0  0  0  0  0  0  0  0  0
    4.9030   -2.0489    2.8522 H   0  0  0  0  0  0  0  0  0  0  0  0
    3.0728   -0.7049   -0.2407 H   0  0  0  0  0  0  0  0  0  0  0  0
    4.6952   -0.2011   -0.6262 H   0  0  0  0  0  0  0  0  0  0  0  0
    3.2528   -2.7445   -1.5477 H   0  0  0  0  0  0  0  0  0  0  0  0
    3.6063   -1.3279   -2.5129 H   0  0  0  0  0  0  0  0  0  0  0  0
    5.2824   -3.0966   -2.9749 H   0  0  0  0  0  0  0  0  0  0  0  0
    6.0581   -1.7227   -2.1969 H   0  0  0  0  0  0  0  0  0  0  0  0
    5.2451   -4.3666   -0.8917 H   0  0  0  0  0  0  0  0  0  0  0  0
    6.8693   -3.7421   -1.1088 H   0  0  0  0  0  0  0  0  0  0  0  0
  1  2  1  0
  1 23  1  0
  1 24  1  0
  1 25  1  0
  2  3  2  0
  2  4  2  0
  2  5  1  0
  5 10  1  0
  5  6  1  0
  6 13  1  0
  6  7  1  0
  6 26  1  1
  7  8  1  0
  7 27  1  0
  7 28  1  0
  8 14  1  0
  8  9  1  0
  8 29  1  6
  9 10  1  0
  9 30  1  0
  9 31  1  0
 10 11  1  0
 10 32  1  6
 11 12  1  0
 11 33  1  0
 11 34  1  0
 12 13  1  0
 12 14  1  0
 12 35  1  1
 13 36  1  0
 13 37  1  0
 14 15  1  0
 15 16  2  3
 15 38  1  0
 16 21  1  0
 16 17  1  0
 17 18  1  0
 17 39  1  0
 17 40  1  0
 18 19  1  0
 18 41  1  0
 18 42  1  0
 19 20  1  0
 19 43  1  0
 19 44  1  0
 20 21  1  0
 20 45  1  0
 20 46  1  0
 21 22  2  0
M  END
>  <i_m_ct_stereo_status>  (375) 
1

>  <s_m_source_file>  (375) 
/var/tmp/pbs.5076255.sched01/tmpt25ahaql/1236iipj8y0.sdf

>  <i_m_source_file_index>  (375) 
34

>  <i_lp_mmshare_version>  (375) 
48012

>  <i_f3d_flags>  (375) 
0

>  <s_epik_input>  (375) 
W0NIM11TKD1PKSg9TylOKFtDQEBIXTEyKVtDQEBIXTNbQ0gyXVtDQEhdKFtDSDJdMSlOKFtDQEBIXShbQ0gyXTMpW0NIMl0yKS9bQ0hdPUM0L1tDSDJdW0NIMl1bQ0gyXVtDSDJdQzQ9Tw==

>  <s_epik_cmdline>  (375) 
J2VwaWtfcHl0aG9uJywgJy1waHQnLCAnMi4wJywgJy1waCcsICc3LjAnLCAnLXRuJywgJzgnLCAnLW1hJywgJzIwMCcsICctaW1hZScsICc8aW5maWxlLm1hZT4nLCAnLW9tYWUnLCAnPG91dGZpbGUubWFlPic=

>  <r_epik_Ionization_Penalty>  (375) 
0.944857

>  <r_epik_Ionization_Penalty_Charging>  (375) 
0.944857

>  <r_epik_Ionization_Penalty_Neutral>  (375) 
6.11344e-09

>  <r_epik_State_Penalty>  (375) 
0.988584

>  <r_epik_Charging_Adjusted_Penalty>  (375) 
1.93344

>  <i_epik_Tot_Q>  (375) 
0

>  <i_epik_Tot_abs_Q>  (375) 
0

>  <s_epik_Chemistry_Notes>  (375) 
This compound has an imine and may undergo hydrolysis.

>  <s_lp_Force_Field>  (375) 
OPLS3e

>  <r_lp_Energy>  (375) 
43.7753

>  <b_lp_Chiralities_Consistent>  (375) 
1

>  <s_lp_Variant>  (375) 
110:0-3

>  <s_i_glide_gridfile>  (375) 
pfpi4k_grid

>  <i_i_glide_lignum>  (375) 
34

>  <i_i_glide_rotatable_bonds>  (375) 
2

>  <r_i_docking_score>  (375) 
-3.18464

>  <r_i_glide_ligand_efficiency>  (375) 
-0.144756

>  <r_i_glide_ligand_efficiency_sa>  (375) 
-0.405612

>  <r_i_glide_ligand_efficiency_ln>  (375) 
-0.778441

>  <r_i_glide_gscore>  (375) 
-3.18464

>  <r_i_glide_lipo>  (375) 
-0.156985

>  <r_i_glide_hbond>  (375) 
0

>  <r_i_glide_metal>  (375) 
-0

>  <r_i_glide_rewards>  (375) 
-1.27244

>  <r_i_glide_evdw>  (375) 
-23.3834

>  <r_i_glide_ecoul>  (375) 
-4.46248

>  <r_i_glide_erotb>  (375) 
0.177917

>  <r_i_glide_esite>  (375) 
-0.094592

>  <r_i_glide_emodel>  (375) 
-31.9652

>  <r_i_glide_energy>  (375) 
-27.8458

>  <r_i_glide_einternal>  (375) 
2.87279

>  <r_i_glide_intrahb_reward>  (375) 
-0

>  <i_i_glide_confnum>  (375) 
6

>  <i_i_glide_posenum>  (375) 
10

>  <r_i_glide_eff_state_penalty>  (375) 
0

>  <ligand_id>  (375) 
110

>  <original_smiles>  (375) 
CS(=O)(=O)N1C2CC3CC1CC(C2)N3C=C1CCCCC1=O

>  <smiles>  (375) 
[H]C(=C1C(=O)C([H])([H])C([H])([H])C([H])([H])C1([H])[H])N1C2([H])C([H])([H])C3([H])N(S(=O)(=O)C([H])([H])[H])C([H])(C2([H])[H])C([H])([H])C1([H])C3([H])[H]

$$$$
110:2:2
     RDKit          3D

 46 49  0  0  1  0  0  0  0  0999 V2000
   -0.6087    3.6525    7.3020 C   0  0  0  0  0  0  0  0  0  0  0  0
   -1.2111    3.5166    5.5804 S   0  0  0  0  0  0  0  0  0  0  0  0
   -2.5887    2.9879    5.6441 O   0  0  0  0  0  0  0  0  0  0  0  0
   -0.9463    4.7874    4.8762 O   0  0  0  0  0  0  0  0  0  0  0  0
   -0.2090    2.3042    4.8866 N   0  0  0  0  0  0  0  0  0  0  0  0
    1.2472    2.5337    4.7341 C   0  0  1  0  0  0  0  0  0  0  0  0
    1.9667    1.2130    5.0740 C   0  0  0  0  0  0  0  0  0  0  0  0
    1.4828    0.1336    4.0958 C   0  0  1  0  0  0  0  0  0  0  0  0
   -0.0379   -0.0636    4.2692 C   0  0  0  0  0  0  0  0  0  0  0  0
   -0.7416    1.2724    3.9535 C   0  0  2  0  0  0  0  0  0  0  0  0
   -0.4066    1.6390    2.4894 C   0  0  0  0  0  0  0  0  0  0  0  0
    1.1223    1.7754    2.3497 C   0  0  1  0  0  0  0  0  0  0  0  0
    1.5824    2.9170    3.2730 C   0  0  0  0  0  0  0  0  0  0  0  0
    1.8056    0.5425    2.7297 N   0  0  0  0  0  0  0  0  0  0  0  0
    2.9940    0.1745    2.1010 C   0  0  0  0  0  0  0  0  0  0  0  0
    3.4032   -1.0851    1.7828 C   0  0  0  0  0  0  0  0  0  0  0  0
    2.5089   -2.3123    1.9567 C   0  0  0  0  0  0  0  0  0  0  0  0
    3.2767   -3.6081    2.2212 C   0  0  0  0  0  0  0  0  0  0  0  0
    4.3654   -3.8097    1.1680 C   0  0  0  0  0  0  0  0  0  0  0  0
    5.3893   -2.6617    1.2107 C   0  0  0  0  0  0  0  0  0  0  0  0
    4.7201   -1.2683    1.1853 C   0  0  0  0  0  0  0  0  0  0  0  0
    5.4027   -0.3500    0.6834 O   0  0  0  0  0  0  0  0  0  0  0  0
   -1.2022    4.4001    7.8361 H   0  0  0  0  0  0  0  0  0  0  0  0
    0.4384    3.9625    7.3155 H   0  0  0  0  0  0  0  0  0  0  0  0
   -0.7135    2.6919    7.8111 H   0  0  0  0  0  0  0  0  0  0  0  0
    1.5906    3.3240    5.4065 H   0  0  0  0  0  0  0  0  0  0  0  0
    3.0479    1.3319    4.9689 H   0  0  0  0  0  0  0  0  0  0  0  0
    1.7720    0.9166    6.1044 H   0  0  0  0  0  0  0  0  0  0  0  0
    1.9978   -0.7934    4.3607 H   0  0  0  0  0  0  0  0  0  0  0  0
   -0.4008   -0.8438    3.5999 H   0  0  0  0  0  0  0  0  0  0  0  0
   -0.2787   -0.3828    5.2813 H   0  0  0  0  0  0  0  0  0  0  0  0
   -1.8228    1.1664    4.0730 H   0  0  0  0  0  0  0  0  0  0  0  0
   -0.7720    0.8660    1.8096 H   0  0  0  0  0  0  0  0  0  0  0  0
   -0.9053    2.5622    2.1953 H   0  0  0  0  0  0  0  0  0  0  0  0
    1.3607    2.0186    1.3062 H   0  0  0  0  0  0  0  0  0  0  0  0
    1.1156    3.8604    2.9863 H   0  0  0  0  0  0  0  0  0  0  0  0
    2.6615    3.0487    3.1583 H   0  0  0  0  0  0  0  0  0  0  0  0
    3.6488    1.0120    1.9303 H   0  0  0  0  0  0  0  0  0  0  0  0
    1.7892   -2.1905    2.7616 H   0  0  0  0  0  0  0  0  0  0  0  0
    1.9193   -2.4022    1.0408 H   0  0  0  0  0  0  0  0  0  0  0  0
    3.7283   -3.5799    3.2163 H   0  0  0  0  0  0  0  0  0  0  0  0
    2.5841   -4.4473    2.2129 H   0  0  0  0  0  0  0  0  0  0  0  0
    4.8774   -4.7627    1.3413 H   0  0  0  0  0  0  0  0  0  0  0  0
    3.9152   -3.8688    0.1732 H   0  0  0  0  0  0  0  0  0  0  0  0
    5.9892   -2.7355    2.1194 H   0  0  0  0  0  0  0  0  0  0  0  0
    6.0739   -2.7551    0.3706 H   0  0  0  0  0  0  0  0  0  0  0  0
  1  2  1  0
  1 23  1  0
  1 24  1  0
  1 25  1  0
  2  3  2  0
  2  4  2  0
  2  5  1  0
  5 10  1  0
  5  6  1  0
  6 13  1  0
  6  7  1  0
  6 26  1  1
  7  8  1  0
  7 27  1  0
  7 28  1  0
  8 14  1  0
  8  9  1  0
  8 29  1  1
  9 10  1  0
  9 30  1  0
  9 31  1  0
 10 11  1  0
 10 32  1  6
 11 12  1  0
 11 33  1  0
 11 34  1  0
 12 13  1  0
 12 14  1  0
 12 35  1  6
 13 36  1  0
 13 37  1  0
 14 15  1  0
 15 16  2  3
 15 38  1  0
 16 21  1  0
 16 17  1  0
 17 18  1  0
 17 39  1  0
 17 40  1  0
 18 19  1  0
 18 41  1  0
 18 42  1  0
 19 20  1  0
 19 43  1  0
 19 44  1  0
 20 21  1  0
 20 45  1  0
 20 46  1  0
 21 22  2  0
M  END
>  <i_m_ct_stereo_status>  (376) 
1

>  <s_m_source_file>  (376) 
/var/tmp/pbs.5076255.sched01/tmpt25ahaql/1236iipj8y0.sdf

>  <i_m_source_file_index>  (376) 
34

>  <i_lp_mmshare_version>  (376) 
48012

>  <i_f3d_flags>  (376) 
0

>  <s_epik_input>  (376) 
W0NIM11TKD1PKSg9TylOKFtDQEBIXTEyKVtDQEBIXTNbQ0gyXVtDQEhdKFtDSDJdMSlOKFtDQEBIXShbQ0gyXTMpW0NIMl0yKS9bQ0hdPUM0L1tDSDJdW0NIMl1bQ0gyXVtDSDJdQzQ9Tw==

>  <s_epik_cmdline>  (376) 
J2VwaWtfcHl0aG9uJywgJy1waHQnLCAnMi4wJywgJy1waCcsICc3LjAnLCAnLXRuJywgJzgnLCAnLW1hJywgJzIwMCcsICctaW1hZScsICc8aW5maWxlLm1hZT4nLCAnLW9tYWUnLCAnPG91dGZpbGUubWFlPic=

>  <r_epik_Ionization_Penalty>  (376) 
0.944857

>  <r_epik_Ionization_Penalty_Charging>  (376) 
0.944857

>  <r_epik_Ionization_Penalty_Neutral>  (376) 
6.11344e-09

>  <r_epik_State_Penalty>  (376) 
0.988584

>  <r_epik_Charging_Adjusted_Penalty>  (376) 
1.93344

>  <i_epik_Tot_Q>  (376) 
0

>  <i_epik_Tot_abs_Q>  (376) 
0

>  <s_epik_Chemistry_Notes>  (376) 
This compound has an imine and may undergo hydrolysis.

>  <s_lp_Force_Field>  (376) 
OPLS3e

>  <r_lp_Energy>  (376) 
43.7753

>  <b_lp_Chiralities_Consistent>  (376) 
1

>  <s_lp_Variant>  (376) 
110:0-3

>  <s_i_glide_gridfile>  (376) 
pfpi4k_grid

>  <i_i_glide_lignum>  (376) 
34

>  <i_i_glide_rotatable_bonds>  (376) 
2

>  <r_i_docking_score>  (376) 
-2.85738

>  <r_i_glide_ligand_efficiency>  (376) 
-0.129881

>  <r_i_glide_ligand_efficiency_sa>  (376) 
-0.363931

>  <r_i_glide_ligand_efficiency_ln>  (376) 
-0.698448

>  <r_i_glide_gscore>  (376) 
-2.85738

>  <r_i_glide_lipo>  (376) 
-0.102431

>  <r_i_glide_hbond>  (376) 
0

>  <r_i_glide_metal>  (376) 
-0

>  <r_i_glide_rewards>  (376) 
-1.26193

>  <r_i_glide_evdw>  (376) 
-23.8163

>  <r_i_glide_ecoul>  (376) 
-2.52247

>  <r_i_glide_erotb>  (376) 
0.177917

>  <r_i_glide_esite>  (376) 
-0.101749

>  <r_i_glide_emodel>  (376) 
-30.0846

>  <r_i_glide_energy>  (376) 
-26.3388

>  <r_i_glide_einternal>  (376) 
2.88266

>  <r_i_glide_intrahb_reward>  (376) 
-0

>  <i_i_glide_confnum>  (376) 
6

>  <i_i_glide_posenum>  (376) 
1

>  <r_i_glide_eff_state_penalty>  (376) 
0

>  <ligand_id>  (376) 
110

>  <original_smiles>  (376) 
CS(=O)(=O)N1C2CC3CC1CC(C2)N3C=C1CCCCC1=O

>  <smiles>  (376) 
[H]C(=C1C(=O)C([H])([H])C([H])([H])C([H])([H])C1([H])[H])N1C2([H])C([H])([H])C3([H])N(S(=O)(=O)C([H])([H])[H])C([H])(C2([H])[H])C([H])([H])C1([H])C3([H])[H]

$$$$
113:0:0
     RDKit          3D

 30 33  0  0  1  0  0  0  0  0999 V2000
    5.7865   -8.7176    2.7904 C   0  0  0  0  0  0  0  0  0  0  0  0
    6.9593   -8.0763    2.3548 C   0  0  0  0  0  0  0  0  0  0  0  0
    6.8661   -6.9257    1.5510 C   0  0  0  0  0  0  0  0  0  0  0  0
    5.6146   -6.4013    1.1696 C   0  0  0  0  0  0  0  0  0  0  0  0
    5.5562   -5.2940    0.3890 N   0  0  0  0  0  0  0  0  0  0  0  0
    4.3376   -4.8329    0.0387 C   0  0  0  0  0  0  0  0  0  0  0  0
    4.2808   -3.6630   -0.7404 N   0  0  0  0  0  0  0  0  0  0  0  0
    3.1102   -3.1251   -1.4085 C   0  0  0  0  0  0  0  0  0  0  0  0
    3.7311   -1.9571   -2.1978 C   0  0  1  0  0  0  0  0  0  0  0  0
    4.8241   -1.4739   -1.2590 C   0  0  0  0  0  0  0  0  0  0  0  0
    5.4128   -2.8721   -1.1881 C   0  0  2  0  0  0  0  0  0  0  0  0
    5.6361   -3.1368   -2.6793 C   0  0  0  0  0  0  0  0  0  0  0  0
    4.5001   -2.5014   -3.2701 O   0  0  0  0  0  0  0  0  0  0  0  0
    3.1620   -5.4761    0.4798 C   0  0  0  0  0  0  0  0  0  0  0  0
    3.2032   -6.5767    1.2645 N   0  0  0  0  0  0  0  0  0  0  0  0
    4.4239   -7.0512    1.6096 C   0  0  0  0  0  0  0  0  0  0  0  0
    4.5300   -8.2018    2.4145 C   0  0  0  0  0  0  0  0  0  0  0  0
    5.8459   -9.6011    3.4124 H   0  0  0  0  0  0  0  0  0  0  0  0
    7.9328   -8.4617    2.6343 H   0  0  0  0  0  0  0  0  0  0  0  0
    7.7706   -6.4423    1.2149 H   0  0  0  0  0  0  0  0  0  0  0  0
    2.5928   -3.8442   -2.0491 H   0  0  0  0  0  0  0  0  0  0  0  0
    2.4239   -2.7459   -0.6513 H   0  0  0  0  0  0  0  0  0  0  0  0
    3.0207   -1.2054   -2.5258 H   0  0  0  0  0  0  0  0  0  0  0  0
    5.4780   -0.7251   -1.7157 H   0  0  0  0  0  0  0  0  0  0  0  0
    4.4404   -1.1206   -0.2953 H   0  0  0  0  0  0  0  0  0  0  0  0
    6.3005   -2.9660   -0.5658 H   0  0  0  0  0  0  0  0  0  0  0  0
    6.5494   -2.6605   -3.0237 H   0  0  0  0  0  0  0  0  0  0  0  0
    5.6972   -4.1923   -2.9318 H   0  0  0  0  0  0  0  0  0  0  0  0
    2.1814   -5.1157    0.2072 H   0  0  0  0  0  0  0  0  0  0  0  0
    3.6345   -8.7016    2.7514 H   0  0  0  0  0  0  0  0  0  0  0  0
  1 17  2  0
  1  2  1  0
  1 18  1  0
  2  3  2  0
  2 19  1  0
  3  4  1  0
  3 20  1  0
  4 16  2  0
  4  5  1  0
  5  6  2  0
  6  7  1  0
  6 14  1  0
  7 11  1  0
  7  8  1  0
  8  9  1  0
  8 21  1  0
  8 22  1  0
  9 13  1  0
  9 10  1  0
  9 23  1  6
 10 11  1  0
 10 24  1  0
 10 25  1  0
 11 12  1  0
 11 26  1  1
 12 13  1  0
 12 27  1  0
 12 28  1  0
 14 15  2  0
 14 29  1  0
 15 16  1  0
 16 17  1  0
 17 30  1  0
M  END
>  <i_m_ct_stereo_status>  (377) 
1

>  <s_m_source_file>  (377) 
/var/tmp/pbs.5076255.sched01/tmpt25ahaql/1236iipj8y0.sdf

>  <i_m_source_file_index>  (377) 
37

>  <i_lp_mmshare_version>  (377) 
48012

>  <i_f3d_flags>  (377) 
0

>  <s_epik_input>  (377) 
W2NIXTFbY0hdW2NIXVtjSF1jKGMxMiluW2NIXWMobjIpTihbQ0gyXVtDQEBIXTM0KVtDQEhdKFtDSDJdMylbQ0gyXU80

>  <s_epik_cmdline>  (377) 
J2VwaWtfcHl0aG9uJywgJy1waHQnLCAnMi4wJywgJy1waCcsICc3LjAnLCAnLXRuJywgJzgnLCAnLW1hJywgJzIwMCcsICctaW1hZScsICc8aW5maWxlLm1hZT4nLCAnLW9tYWUnLCAnPG91dGZpbGUubWFlPic=

>  <r_lp_tautomer_probability>  (377) 
1

>  <r_epik_Ionization_Penalty>  (377) 
0.000719792

>  <r_epik_Ionization_Penalty_Charging>  (377) 
0

>  <r_epik_Ionization_Penalty_Neutral>  (377) 
0.000719792

>  <r_epik_State_Penalty>  (377) 
0.000290761

>  <r_epik_Charging_Adjusted_Penalty>  (377) 
0.000290761

>  <i_epik_Tot_Q>  (377) 
0

>  <i_epik_Tot_abs_Q>  (377) 
0

>  <s_lp_Force_Field>  (377) 
OPLS3e

>  <r_lp_Energy>  (377) 
35.8892

>  <b_lp_Chiralities_Consistent>  (377) 
1

>  <s_lp_Variant>  (377) 
113:0-1

>  <s_i_glide_gridfile>  (377) 
pfpi4k_grid

>  <i_i_glide_lignum>  (377) 
37

>  <i_i_glide_rotatable_bonds>  (377) 
1

>  <r_i_docking_score>  (377) 
-3.51697

>  <r_i_glide_ligand_efficiency>  (377) 
-0.206881

>  <r_i_glide_ligand_efficiency_sa>  (377) 
-0.531949

>  <r_i_glide_ligand_efficiency_ln>  (377) 
-0.9175

>  <r_i_glide_gscore>  (377) 
-3.51697

>  <r_i_glide_lipo>  (377) 
-0.575461

>  <r_i_glide_hbond>  (377) 
0

>  <r_i_glide_metal>  (377) 
-0

>  <r_i_glide_rewards>  (377) 
-1.85958

>  <r_i_glide_evdw>  (377) 
-22.416

>  <r_i_glide_ecoul>  (377) 
-1.93462

>  <r_i_glide_erotb>  (377) 
0.329416

>  <r_i_glide_esite>  (377) 
-0.000354683

>  <r_i_glide_emodel>  (377) 
-29.6975

>  <r_i_glide_energy>  (377) 
-24.3506

>  <r_i_glide_einternal>  (377) 
0.0792181

>  <r_i_glide_intrahb_reward>  (377) 
-0

>  <i_i_glide_confnum>  (377) 
1

>  <i_i_glide_posenum>  (377) 
18

>  <r_i_glide_eff_state_penalty>  (377) 
0

>  <ligand_id>  (377) 
113

>  <original_smiles>  (377) 
c1ccc2nc(N3CC4CC3CO4)cnc2c1

>  <smiles>  (377) 
[H]c1nc2c([H])c([H])c([H])c([H])c2nc1N1C([H])([H])C2([H])OC([H])([H])C1([H])C2([H])[H]

$$$$
113:0:1
     RDKit          3D

 30 33  0  0  1  0  0  0  0  0999 V2000
    4.4169   -8.8331    2.5278 C   0  0  0  0  0  0  0  0  0  0  0  0
    5.7169   -8.3771    2.2526 C   0  0  0  0  0  0  0  0  0  0  0  0
    5.8987   -7.1945    1.5116 C   0  0  0  0  0  0  0  0  0  0  0  0
    4.7969   -6.4570    1.0362 C   0  0  0  0  0  0  0  0  0  0  0  0
    5.0048   -5.3219    0.3242 N   0  0  0  0  0  0  0  0  0  0  0  0
    3.9226   -4.6488   -0.1160 C   0  0  0  0  0  0  0  0  0  0  0  0
    4.1351   -3.4593   -0.8310 N   0  0  0  0  0  0  0  0  0  0  0  0
    3.1494   -2.7364   -1.6100 C   0  0  0  0  0  0  0  0  0  0  0  0
    4.0219   -1.6370   -2.2371 C   0  0  1  0  0  0  0  0  0  0  0  0
    5.0255   -1.3547   -1.1337 C   0  0  0  0  0  0  0  0  0  0  0  0
    5.4135   -2.8196   -1.0703 C   0  0  2  0  0  0  0  0  0  0  0  0
    5.8094   -3.0534   -2.5289 C   0  0  0  0  0  0  0  0  0  0  0  0
    4.8496   -2.2526   -3.2237 O   0  0  0  0  0  0  0  0  0  0  0  0
    2.6179   -5.1051    0.1617 C   0  0  0  0  0  0  0  0  0  0  0  0
    2.3911   -6.2265    0.8818 N   0  0  0  0  0  0  0  0  0  0  0  0
    3.4744   -6.9141    1.3187 C   0  0  0  0  0  0  0  0  0  0  0  0
    3.3072   -8.1019    2.0609 C   0  0  0  0  0  0  0  0  0  0  0  0
    4.2701   -9.7431    3.0962 H   0  0  0  0  0  0  0  0  0  0  0  0
    6.5753   -8.9322    2.6085 H   0  0  0  0  0  0  0  0  0  0  0  0
    6.8996   -6.8491    1.3009 H   0  0  0  0  0  0  0  0  0  0  0  0
    2.6236   -3.3407   -2.3530 H   0  0  0  0  0  0  0  0  0  0  0  0
    2.4307   -2.2983   -0.9217 H   0  0  0  0  0  0  0  0  0  0  0  0
    3.4749   -0.7733   -2.6060 H   0  0  0  0  0  0  0  0  0  0  0  0
    5.8189   -0.6806   -1.4537 H   0  0  0  0  0  0  0  0  0  0  0  0
    4.5682   -0.9859   -0.2100 H   0  0  0  0  0  0  0  0  0  0  0  0
    6.1833   -3.0595   -0.3389 H   0  0  0  0  0  0  0  0  0  0  0  0
    6.8097   -2.6668   -2.7189 H   0  0  0  0  0  0  0  0  0  0  0  0
    5.7696   -4.0979   -2.8297 H   0  0  0  0  0  0  0  0  0  0  0  0
    1.7493   -4.5749   -0.1939 H   0  0  0  0  0  0  0  0  0  0  0  0
    2.3133   -8.4643    2.2773 H   0  0  0  0  0  0  0  0  0  0  0  0
  1 17  2  0
  1  2  1  0
  1 18  1  0
  2  3  2  0
  2 19  1  0
  3  4  1  0
  3 20  1  0
  4 16  2  0
  4  5  1  0
  5  6  2  0
  6  7  1  0
  6 14  1  0
  7 11  1  0
  7  8  1  0
  8  9  1  0
  8 21  1  0
  8 22  1  0
  9 13  1  0
  9 10  1  0
  9 23  1  6
 10 11  1  0
 10 24  1  0
 10 25  1  0
 11 12  1  0
 11 26  1  1
 12 13  1  0
 12 27  1  0
 12 28  1  0
 14 15  2  0
 14 29  1  0
 15 16  1  0
 16 17  1  0
 17 30  1  0
M  END
>  <i_m_ct_stereo_status>  (378) 
1

>  <s_m_source_file>  (378) 
/var/tmp/pbs.5076255.sched01/tmpt25ahaql/1236iipj8y0.sdf

>  <i_m_source_file_index>  (378) 
37

>  <i_lp_mmshare_version>  (378) 
48012

>  <i_f3d_flags>  (378) 
0

>  <s_epik_input>  (378) 
W2NIXTFbY0hdW2NIXVtjSF1jKGMxMiluW2NIXWMobjIpTihbQ0gyXVtDQEBIXTM0KVtDQEhdKFtDSDJdMylbQ0gyXU80

>  <s_epik_cmdline>  (378) 
J2VwaWtfcHl0aG9uJywgJy1waHQnLCAnMi4wJywgJy1waCcsICc3LjAnLCAnLXRuJywgJzgnLCAnLW1hJywgJzIwMCcsICctaW1hZScsICc8aW5maWxlLm1hZT4nLCAnLW9tYWUnLCAnPG91dGZpbGUubWFlPic=

>  <r_lp_tautomer_probability>  (378) 
1

>  <r_epik_Ionization_Penalty>  (378) 
0.000719792

>  <r_epik_Ionization_Penalty_Charging>  (378) 
0

>  <r_epik_Ionization_Penalty_Neutral>  (378) 
0.000719792

>  <r_epik_State_Penalty>  (378) 
0.000290761

>  <r_epik_Charging_Adjusted_Penalty>  (378) 
0.000290761

>  <i_epik_Tot_Q>  (378) 
0

>  <i_epik_Tot_abs_Q>  (378) 
0

>  <s_lp_Force_Field>  (378) 
OPLS3e

>  <r_lp_Energy>  (378) 
35.8892

>  <b_lp_Chiralities_Consistent>  (378) 
1

>  <s_lp_Variant>  (378) 
113:0-1

>  <s_i_glide_gridfile>  (378) 
pfpi4k_grid

>  <i_i_glide_lignum>  (378) 
37

>  <i_i_glide_rotatable_bonds>  (378) 
1

>  <r_i_docking_score>  (378) 
-3.49633

>  <r_i_glide_ligand_efficiency>  (378) 
-0.205666

>  <r_i_glide_ligand_efficiency_sa>  (378) 
-0.528826

>  <r_i_glide_ligand_efficiency_ln>  (378) 
-0.912114

>  <r_i_glide_gscore>  (378) 
-3.49633

>  <r_i_glide_lipo>  (378) 
-0.496336

>  <r_i_glide_hbond>  (378) 
0

>  <r_i_glide_metal>  (378) 
-0

>  <r_i_glide_rewards>  (378) 
-1.87278

>  <r_i_glide_evdw>  (378) 
-21.6678

>  <r_i_glide_ecoul>  (378) 
-2.48821

>  <r_i_glide_erotb>  (378) 
0.329416

>  <r_i_glide_esite>  (378) 
0

>  <r_i_glide_emodel>  (378) 
-29.4135

>  <r_i_glide_energy>  (378) 
-24.156

>  <r_i_glide_einternal>  (378) 
0.15221

>  <r_i_glide_intrahb_reward>  (378) 
-0

>  <i_i_glide_confnum>  (378) 
1

>  <i_i_glide_posenum>  (378) 
2

>  <r_i_glide_eff_state_penalty>  (378) 
0

>  <ligand_id>  (378) 
113

>  <original_smiles>  (378) 
c1ccc2nc(N3CC4CC3CO4)cnc2c1

>  <smiles>  (378) 
[H]c1nc2c([H])c([H])c([H])c([H])c2nc1N1C([H])([H])C2([H])OC([H])([H])C1([H])C2([H])[H]

$$$$
113:0:2
     RDKit          3D

 30 33  0  0  1  0  0  0  0  0999 V2000
    4.0055   -7.3376    3.6351 C   0  0  0  0  0  0  0  0  0  0  0  0
    5.2398   -6.6844    3.4601 C   0  0  0  0  0  0  0  0  0  0  0  0
    5.3887   -5.7486    2.4189 C   0  0  0  0  0  0  0  0  0  0  0  0
    4.3249   -5.4510    1.5469 C   0  0  0  0  0  0  0  0  0  0  0  0
    4.5001   -4.5420    0.5577 N   0  0  0  0  0  0  0  0  0  0  0  0
    3.4550   -4.2824   -0.2505 C   0  0  0  0  0  0  0  0  0  0  0  0
    3.6323   -3.3229   -1.2638 N   0  0  0  0  0  0  0  0  0  0  0  0
    2.7130   -3.0298   -2.3447 C   0  0  0  0  0  0  0  0  0  0  0  0
    3.5290   -2.0073   -3.1534 C   0  0  1  0  0  0  0  0  0  0  0  0
    4.2844   -1.2566   -2.0729 C   0  0  0  0  0  0  0  0  0  0  0  0
    4.8333   -2.5590   -1.5207 C   0  0  2  0  0  0  0  0  0  0  0  0
    5.4980   -3.1162   -2.7787 C   0  0  0  0  0  0  0  0  0  0  0  0
    4.5843   -2.7107   -3.7968 O   0  0  0  0  0  0  0  0  0  0  0  0
    2.2157   -4.9372   -0.0723 C   0  0  0  0  0  0  0  0  0  0  0  0
    2.0209   -5.8453    0.9118 N   0  0  0  0  0  0  0  0  0  0  0  0
    3.0681   -6.1108    1.7243 C   0  0  0  0  0  0  0  0  0  0  0  0
    2.9340   -7.0472    2.7691 C   0  0  0  0  0  0  0  0  0  0  0  0
    3.8838   -8.0614    4.4321 H   0  0  0  0  0  0  0  0  0  0  0  0
    6.0699   -6.9015    4.1193 H   0  0  0  0  0  0  0  0  0  0  0  0
    6.3372   -5.2486    2.2865 H   0  0  0  0  0  0  0  0  0  0  0  0
    2.4046   -3.8841   -2.9439 H   0  0  0  0  0  0  0  0  0  0  0  0
    1.8274   -2.5667   -1.9202 H   0  0  0  0  0  0  0  0  0  0  0  0
    2.9444   -1.3998   -3.8362 H   0  0  0  0  0  0  0  0  0  0  0  0
    5.0421   -0.5739   -2.4702 H   0  0  0  0  0  0  0  0  0  0  0  0
    3.6259   -0.7395   -1.3670 H   0  0  0  0  0  0  0  0  0  0  0  0
    5.4918   -2.4495   -0.6628 H   0  0  0  0  0  0  0  0  0  0  0  0
    6.4663   -2.6560   -2.9509 H   0  0  0  0  0  0  0  0  0  0  0  0
    5.6432   -4.1912   -2.7548 H   0  0  0  0  0  0  0  0  0  0  0  0
    1.3865   -4.7548   -0.7369 H   0  0  0  0  0  0  0  0  0  0  0  0
    1.9936   -7.5568    2.9108 H   0  0  0  0  0  0  0  0  0  0  0  0
  1 17  2  0
  1  2  1  0
  1 18  1  0
  2  3  2  0
  2 19  1  0
  3  4  1  0
  3 20  1  0
  4 16  2  0
  4  5  1  0
  5  6  2  0
  6  7  1  0
  6 14  1  0
  7 11  1  0
  7  8  1  0
  8  9  1  0
  8 21  1  0
  8 22  1  0
  9 13  1  0
  9 10  1  0
  9 23  1  6
 10 11  1  0
 10 24  1  0
 10 25  1  0
 11 12  1  0
 11 26  1  1
 12 13  1  0
 12 27  1  0
 12 28  1  0
 14 15  2  0
 14 29  1  0
 15 16  1  0
 16 17  1  0
 17 30  1  0
M  END
>  <i_m_ct_stereo_status>  (379) 
1

>  <s_m_source_file>  (379) 
/var/tmp/pbs.5076255.sched01/tmpt25ahaql/1236iipj8y0.sdf

>  <i_m_source_file_index>  (379) 
37

>  <i_lp_mmshare_version>  (379) 
48012

>  <i_f3d_flags>  (379) 
0

>  <s_epik_input>  (379) 
W2NIXTFbY0hdW2NIXVtjSF1jKGMxMiluW2NIXWMobjIpTihbQ0gyXVtDQEBIXTM0KVtDQEhdKFtDSDJdMylbQ0gyXU80

>  <s_epik_cmdline>  (379) 
J2VwaWtfcHl0aG9uJywgJy1waHQnLCAnMi4wJywgJy1waCcsICc3LjAnLCAnLXRuJywgJzgnLCAnLW1hJywgJzIwMCcsICctaW1hZScsICc8aW5maWxlLm1hZT4nLCAnLW9tYWUnLCAnPG91dGZpbGUubWFlPic=

>  <r_lp_tautomer_probability>  (379) 
1

>  <r_epik_Ionization_Penalty>  (379) 
0.000719792

>  <r_epik_Ionization_Penalty_Charging>  (379) 
0

>  <r_epik_Ionization_Penalty_Neutral>  (379) 
0.000719792

>  <r_epik_State_Penalty>  (379) 
0.000290761

>  <r_epik_Charging_Adjusted_Penalty>  (379) 
0.000290761

>  <i_epik_Tot_Q>  (379) 
0

>  <i_epik_Tot_abs_Q>  (379) 
0

>  <s_lp_Force_Field>  (379) 
OPLS3e

>  <r_lp_Energy>  (379) 
35.8892

>  <b_lp_Chiralities_Consistent>  (379) 
1

>  <s_lp_Variant>  (379) 
113:0-1

>  <s_i_glide_gridfile>  (379) 
pfpi4k_grid

>  <i_i_glide_lignum>  (379) 
37

>  <i_i_glide_rotatable_bonds>  (379) 
1

>  <r_i_docking_score>  (379) 
-3.46972

>  <r_i_glide_ligand_efficiency>  (379) 
-0.204101

>  <r_i_glide_ligand_efficiency_sa>  (379) 
-0.524801

>  <r_i_glide_ligand_efficiency_ln>  (379) 
-0.905172

>  <r_i_glide_gscore>  (379) 
-3.46972

>  <r_i_glide_lipo>  (379) 
-0.345413

>  <r_i_glide_hbond>  (379) 
-0.037814

>  <r_i_glide_metal>  (379) 
-0

>  <r_i_glide_rewards>  (379) 
-1.90595

>  <r_i_glide_evdw>  (379) 
-20.3005

>  <r_i_glide_ecoul>  (379) 
-3.29957

>  <r_i_glide_erotb>  (379) 
0.329416

>  <r_i_glide_esite>  (379) 
0

>  <r_i_glide_emodel>  (379) 
-28.8916

>  <r_i_glide_energy>  (379) 
-23.6

>  <r_i_glide_einternal>  (379) 
0.0264477

>  <r_i_glide_intrahb_reward>  (379) 
-0

>  <i_i_glide_confnum>  (379) 
1

>  <i_i_glide_posenum>  (379) 
12

>  <r_i_glide_eff_state_penalty>  (379) 
0

>  <ligand_id>  (379) 
113

>  <original_smiles>  (379) 
c1ccc2nc(N3CC4CC3CO4)cnc2c1

>  <smiles>  (379) 
[H]c1nc2c([H])c([H])c([H])c([H])c2nc1N1C([H])([H])C2([H])OC([H])([H])C1([H])C2([H])[H]

$$$$
114:0:0
     RDKit          3D

 31 33  0  0  1  0  0  0  0  0999 V2000
    4.4578   -6.2387    1.7520 C   0  0  0  0  0  0  0  0  0  0  0  0
    4.1054   -5.2136    0.8011 N   0  0  0  0  0  0  0  0  0  0  0  0
    2.7895   -5.0232    0.5444 N   0  0  0  0  0  0  0  0  0  0  0  0
    2.7354   -4.0366   -0.3105 C   0  0  0  0  0  0  0  0  0  0  0  0
    4.0403   -3.5574   -0.6678 C   0  0  0  0  0  0  0  0  0  0  0  0
    4.6474   -2.5912   -1.5044 C   0  0  0  0  0  0  0  0  0  0  0  0
    3.9302   -1.7594   -2.3781 N   0  0  0  0  0  0  0  0  0  0  0  0
    4.4222   -0.4488   -2.7863 C   0  0  0  0  0  0  0  0  0  0  0  0
    4.3145   -0.3228   -4.3103 C   0  0  0  0  0  0  0  0  0  0  0  0
    2.9160   -0.6306   -4.8162 C   0  0  0  0  0  0  0  0  0  0  0  0
    2.4651   -2.0171   -4.3044 C   0  0  0  0  0  0  0  0  0  0  0  0
    2.5836   -2.1136   -2.8022 C   0  0  0  0  0  0  0  0  0  0  0  0
    5.9978   -2.4719   -1.4668 N   0  0  0  0  0  0  0  0  0  0  0  0
    6.7144   -3.2773   -0.6829 C   0  0  0  0  0  0  0  0  0  0  0  0
    8.4202   -3.0446   -0.7190 Cl  0  0  0  0  0  0  0  0  0  0  0  0
    6.2808   -4.2392    0.1163 N   0  0  0  0  0  0  0  0  0  0  0  0
    4.9258   -4.3462    0.0971 C   0  0  0  0  0  0  0  0  0  0  0  0
    5.5384   -6.2637    1.8871 H   0  0  0  0  0  0  0  0  0  0  0  0
    4.1033   -7.2008    1.3789 H   0  0  0  0  0  0  0  0  0  0  0  0
    3.9701   -6.0136    2.7022 H   0  0  0  0  0  0  0  0  0  0  0  0
    1.7708   -3.7004   -0.6552 H   0  0  0  0  0  0  0  0  0  0  0  0
    3.8365    0.3292   -2.3222 H   0  0  0  0  0  0  0  0  0  0  0  0
    5.4386   -0.2646   -2.4567 H   0  0  0  0  0  0  0  0  0  0  0  0
    4.5950    0.6751   -4.6567 H   0  0  0  0  0  0  0  0  0  0  0  0
    5.0008   -1.0465   -4.7561 H   0  0  0  0  0  0  0  0  0  0  0  0
    2.2061    0.1363   -4.4946 H   0  0  0  0  0  0  0  0  0  0  0  0
    2.9868   -0.6003   -5.9041 H   0  0  0  0  0  0  0  0  0  0  0  0
    1.4233   -2.2261   -4.5573 H   0  0  0  0  0  0  0  0  0  0  0  0
    3.0671   -2.8179   -4.7367 H   0  0  0  0  0  0  0  0  0  0  0  0
    2.2964   -3.1345   -2.5929 H   0  0  0  0  0  0  0  0  0  0  0  0
    1.8825   -1.4468   -2.3255 H   0  0  0  0  0  0  0  0  0  0  0  0
  1  2  1  0
  1 18  1  0
  1 19  1  0
  1 20  1  0
  2 17  1  0
  2  3  1  0
  3  4  2  0
  4  5  1  0
  4 21  1  0
  5 17  2  0
  5  6  1  0
  6  7  1  0
  6 13  2  0
  7 12  1  0
  7  8  1  0
  8  9  1  0
  8 22  1  0
  8 23  1  0
  9 10  1  0
  9 24  1  0
  9 25  1  0
 10 11  1  0
 10 26  1  0
 10 27  1  0
 11 12  1  0
 11 28  1  0
 11 29  1  0
 12 30  1  0
 12 31  1  0
 13 14  1  0
 14 15  1  0
 14 16  2  0
 16 17  1  0
M  END
>  <i_m_ct_stereo_status>  (380) 
1

>  <s_m_source_file>  (380) 
/var/tmp/pbs.5076255.sched01/tmpt25ahaql/1236iipj8y0.sdf

>  <i_m_source_file_index>  (380) 
38

>  <i_lp_mmshare_version>  (380) 
48012

>  <i_f3d_flags>  (380) 
0

>  <s_epik_input>  (380) 
W2NIXTFubihbQ0gzXSljKGMxMiluYyhDbCluYzJOM1tDSDJdW0NIMl1bQ0gyXVtDSDJdW0NIMl0z

>  <s_epik_cmdline>  (380) 
J2VwaWtfcHl0aG9uJywgJy1waHQnLCAnMi4wJywgJy1waCcsICc3LjAnLCAnLXRuJywgJzgnLCAnLW1hJywgJzIwMCcsICctaW1hZScsICc8aW5maWxlLm1hZT4nLCAnLW9tYWUnLCAnPG91dGZpbGUubWFlPic=

>  <r_lp_tautomer_probability>  (380) 
1

>  <r_epik_Ionization_Penalty>  (380) 
1.41272e-06

>  <r_epik_Ionization_Penalty_Charging>  (380) 
0

>  <r_epik_Ionization_Penalty_Neutral>  (380) 
1.41272e-06

>  <r_epik_State_Penalty>  (380) 
-0

>  <r_epik_Charging_Adjusted_Penalty>  (380) 
0

>  <i_epik_Tot_Q>  (380) 
0

>  <i_epik_Tot_abs_Q>  (380) 
0

>  <s_lp_Force_Field>  (380) 
OPLS3e

>  <r_lp_Energy>  (380) 
35.4162

>  <b_lp_Chiralities_Consistent>  (380) 
1

>  <s_lp_Variant>  (380) 
114:0-1

>  <s_i_glide_gridfile>  (380) 
pfpi4k_grid

>  <i_i_glide_lignum>  (380) 
38

>  <i_i_glide_rotatable_bonds>  (380) 
1

>  <r_i_docking_score>  (380) 
-3.42373

>  <r_i_glide_ligand_efficiency>  (380) 
-0.201396

>  <r_i_glide_ligand_efficiency_sa>  (380) 
-0.517845

>  <r_i_glide_ligand_efficiency_ln>  (380) 
-0.893174

>  <r_i_glide_gscore>  (380) 
-3.42373

>  <r_i_glide_lipo>  (380) 
-0.530098

>  <r_i_glide_hbond>  (380) 
0

>  <r_i_glide_metal>  (380) 
-0

>  <r_i_glide_rewards>  (380) 
-1.96456

>  <r_i_glide_evdw>  (380) 
-17.5674

>  <r_i_glide_ecoul>  (380) 
-2.0001

>  <r_i_glide_erotb>  (380) 
0.276736

>  <r_i_glide_esite>  (380) 
-0.0274154

>  <r_i_glide_emodel>  (380) 
-23.6754

>  <r_i_glide_energy>  (380) 
-19.5675

>  <r_i_glide_einternal>  (380) 
0.283901

>  <r_i_glide_intrahb_reward>  (380) 
-0

>  <i_i_glide_confnum>  (380) 
1

>  <i_i_glide_posenum>  (380) 
22

>  <r_i_glide_eff_state_penalty>  (380) 
0

>  <ligand_id>  (380) 
114

>  <original_smiles>  (380) 
Cn1ncc2c(N3CCCCC3)nc(Cl)nc21

>  <smiles>  (380) 
[H]c1nn(C([H])([H])[H])c2nc(Cl)nc(N3C([H])([H])C([H])([H])C([H])([H])C([H])([H])C3([H])[H])c12

$$$$
114:0:1
     RDKit          3D

 31 33  0  0  1  0  0  0  0  0999 V2000
   -1.2522    1.2811    1.9833 C   0  0  0  0  0  0  0  0  0  0  0  0
   -1.3889    1.8367    3.3027 N   0  0  0  0  0  0  0  0  0  0  0  0
   -1.7912    3.1297    3.4123 N   0  0  0  0  0  0  0  0  0  0  0  0
   -1.8014    3.3918    4.6936 C   0  0  0  0  0  0  0  0  0  0  0  0
   -1.4472    2.2455    5.4747 C   0  0  0  0  0  0  0  0  0  0  0  0
   -1.2955    1.8784    6.8306 C   0  0  0  0  0  0  0  0  0  0  0  0
   -1.5841    2.7544    7.8973 N   0  0  0  0  0  0  0  0  0  0  0  0
   -2.6236    3.7682    7.7723 C   0  0  0  0  0  0  0  0  0  0  0  0
   -3.5798    3.7004    8.9658 C   0  0  0  0  0  0  0  0  0  0  0  0
   -2.8023    3.7944   10.2891 C   0  0  0  0  0  0  0  0  0  0  0  0
   -1.6804    2.7379   10.3497 C   0  0  0  0  0  0  0  0  0  0  0  0
   -0.7727    2.7968    9.1083 C   0  0  0  0  0  0  0  0  0  0  0  0
   -0.8986    0.6146    7.1032 N   0  0  0  0  0  0  0  0  0  0  0  0
   -0.6481   -0.2422    6.1092 C   0  0  0  0  0  0  0  0  0  0  0  0
   -0.1782   -1.8264    6.5891 Cl  0  0  0  0  0  0  0  0  0  0  0  0
   -0.7820   -0.0386    4.8005 N   0  0  0  0  0  0  0  0  0  0  0  0
   -1.1709    1.2353    4.5293 C   0  0  0  0  0  0  0  0  0  0  0  0
   -0.9310    0.2429    2.0554 H   0  0  0  0  0  0  0  0  0  0  0  0
   -0.5068    1.8506    1.4246 H   0  0  0  0  0  0  0  0  0  0  0  0
   -2.2151    1.3354    1.4752 H   0  0  0  0  0  0  0  0  0  0  0  0
   -2.0666    4.3767    5.0273 H   0  0  0  0  0  0  0  0  0  0  0  0
   -2.1592    4.7549    7.7091 H   0  0  0  0  0  0  0  0  0  0  0  0
   -3.2162    3.6095    6.8768 H   0  0  0  0  0  0  0  0  0  0  0  0
   -4.3270    4.4937    8.8870 H   0  0  0  0  0  0  0  0  0  0  0  0
   -4.1254    2.7592    8.9239 H   0  0  0  0  0  0  0  0  0  0  0  0
   -2.3780    4.7938   10.3824 H   0  0  0  0  0  0  0  0  0  0  0  0
   -3.4826    3.6528   11.1291 H   0  0  0  0  0  0  0  0  0  0  0  0
   -1.1038    2.8602   11.2697 H   0  0  0  0  0  0  0  0  0  0  0  0
   -2.1337    1.7467   10.4071 H   0  0  0  0  0  0  0  0  0  0  0  0
   -0.0215    2.0091    9.1246 H   0  0  0  0  0  0  0  0  0  0  0  0
   -0.2255    3.7397    9.1270 H   0  0  0  0  0  0  0  0  0  0  0  0
  1  2  1  0
  1 18  1  0
  1 19  1  0
  1 20  1  0
  2 17  1  0
  2  3  1  0
  3  4  2  0
  4  5  1  0
  4 21  1  0
  5 17  2  0
  5  6  1  0
  6  7  1  0
  6 13  2  0
  7 12  1  0
  7  8  1  0
  8  9  1  0
  8 22  1  0
  8 23  1  0
  9 10  1  0
  9 24  1  0
  9 25  1  0
 10 11  1  0
 10 26  1  0
 10 27  1  0
 11 12  1  0
 11 28  1  0
 11 29  1  0
 12 30  1  0
 12 31  1  0
 13 14  1  0
 14 15  1  0
 14 16  2  0
 16 17  1  0
M  END
>  <i_m_ct_stereo_status>  (381) 
1

>  <s_m_source_file>  (381) 
/var/tmp/pbs.5076255.sched01/tmpt25ahaql/1236iipj8y0.sdf

>  <i_m_source_file_index>  (381) 
38

>  <i_lp_mmshare_version>  (381) 
48012

>  <i_f3d_flags>  (381) 
0

>  <s_epik_input>  (381) 
W2NIXTFubihbQ0gzXSljKGMxMiluYyhDbCluYzJOM1tDSDJdW0NIMl1bQ0gyXVtDSDJdW0NIMl0z

>  <s_epik_cmdline>  (381) 
J2VwaWtfcHl0aG9uJywgJy1waHQnLCAnMi4wJywgJy1waCcsICc3LjAnLCAnLXRuJywgJzgnLCAnLW1hJywgJzIwMCcsICctaW1hZScsICc8aW5maWxlLm1hZT4nLCAnLW9tYWUnLCAnPG91dGZpbGUubWFlPic=

>  <r_lp_tautomer_probability>  (381) 
1

>  <r_epik_Ionization_Penalty>  (381) 
1.41272e-06

>  <r_epik_Ionization_Penalty_Charging>  (381) 
0

>  <r_epik_Ionization_Penalty_Neutral>  (381) 
1.41272e-06

>  <r_epik_State_Penalty>  (381) 
-0

>  <r_epik_Charging_Adjusted_Penalty>  (381) 
0

>  <i_epik_Tot_Q>  (381) 
0

>  <i_epik_Tot_abs_Q>  (381) 
0

>  <s_lp_Force_Field>  (381) 
OPLS3e

>  <r_lp_Energy>  (381) 
35.4162

>  <b_lp_Chiralities_Consistent>  (381) 
1

>  <s_lp_Variant>  (381) 
114:0-1

>  <s_i_glide_gridfile>  (381) 
pfpi4k_grid

>  <i_i_glide_lignum>  (381) 
38

>  <i_i_glide_rotatable_bonds>  (381) 
1

>  <r_i_docking_score>  (381) 
-2.87433

>  <r_i_glide_ligand_efficiency>  (381) 
-0.169078

>  <r_i_glide_ligand_efficiency_sa>  (381) 
-0.434748

>  <r_i_glide_ligand_efficiency_ln>  (381) 
-0.74985

>  <r_i_glide_gscore>  (381) 
-2.87433

>  <r_i_glide_lipo>  (381) 
-0.18938

>  <r_i_glide_hbond>  (381) 
-0.0750694

>  <r_i_glide_metal>  (381) 
-0

>  <r_i_glide_rewards>  (381) 
-1.69285

>  <r_i_glide_evdw>  (381) 
-20.4078

>  <r_i_glide_ecoul>  (381) 
-0.451411

>  <r_i_glide_erotb>  (381) 
0.276736

>  <r_i_glide_esite>  (381) 
-0.105664

>  <r_i_glide_emodel>  (381) 
-24.3895

>  <r_i_glide_energy>  (381) 
-20.8592

>  <r_i_glide_einternal>  (381) 
0.328572

>  <r_i_glide_intrahb_reward>  (381) 
-0

>  <i_i_glide_confnum>  (381) 
4

>  <i_i_glide_posenum>  (381) 
20

>  <r_i_glide_eff_state_penalty>  (381) 
0

>  <ligand_id>  (381) 
114

>  <original_smiles>  (381) 
Cn1ncc2c(N3CCCCC3)nc(Cl)nc21

>  <smiles>  (381) 
[H]c1nn(C([H])([H])[H])c2nc(Cl)nc(N3C([H])([H])C([H])([H])C([H])([H])C([H])([H])C3([H])[H])c12

$$$$
114:0:2
     RDKit          3D

 31 33  0  0  1  0  0  0  0  0999 V2000
    3.3143   -1.2405    1.1335 C   0  0  0  0  0  0  0  0  0  0  0  0
    2.4749   -0.3883    1.9468 N   0  0  0  0  0  0  0  0  0  0  0  0
    2.4755    0.9406    1.6777 N   0  0  0  0  0  0  0  0  0  0  0  0
    1.6345    1.4823    2.5248 C   0  0  0  0  0  0  0  0  0  0  0  0
    1.0781    0.5053    3.4080 C   0  0  0  0  0  0  0  0  0  0  0  0
    0.1884    0.4396    4.5034 C   0  0  0  0  0  0  0  0  0  0  0  0
   -0.4747    1.5676    5.0157 N   0  0  0  0  0  0  0  0  0  0  0  0
   -0.6945    1.7460    6.4493 C   0  0  0  0  0  0  0  0  0  0  0  0
   -2.1793    2.0383    6.7163 C   0  0  0  0  0  0  0  0  0  0  0  0
   -2.6832    3.2077    5.8436 C   0  0  0  0  0  0  0  0  0  0  0  0
   -2.3833    2.9653    4.3532 C   0  0  0  0  0  0  0  0  0  0  0  0
   -0.9011    2.6455    4.1258 C   0  0  0  0  0  0  0  0  0  0  0  0
   -0.0308   -0.7651    5.0829 N   0  0  0  0  0  0  0  0  0  0  0  0
    0.5719   -1.8582    4.5992 C   0  0  0  0  0  0  0  0  0  0  0  0
    0.2083   -3.3411    5.3960 Cl  0  0  0  0  0  0  0  0  0  0  0  0
    1.4127   -1.9420    3.5689 N   0  0  0  0  0  0  0  0  0  0  0  0
    1.6457   -0.7239    3.0054 C   0  0  0  0  0  0  0  0  0  0  0  0
    3.2288   -2.2767    1.4618 H   0  0  0  0  0  0  0  0  0  0  0  0
    4.3493   -0.9111    1.2221 H   0  0  0  0  0  0  0  0  0  0  0  0
    3.0070   -1.1625    0.0903 H   0  0  0  0  0  0  0  0  0  0  0  0
    1.4621    2.5449    2.4906 H   0  0  0  0  0  0  0  0  0  0  0  0
   -0.3617    0.8798    7.0198 H   0  0  0  0  0  0  0  0  0  0  0  0
   -0.0879    2.5868    6.7907 H   0  0  0  0  0  0  0  0  0  0  0  0
   -2.7542    1.1415    6.4912 H   0  0  0  0  0  0  0  0  0  0  0  0
   -2.3401    2.2629    7.7718 H   0  0  0  0  0  0  0  0  0  0  0  0
   -3.7571    3.3446    5.9787 H   0  0  0  0  0  0  0  0  0  0  0  0
   -2.1997    4.1322    6.1620 H   0  0  0  0  0  0  0  0  0  0  0  0
   -2.9804    2.1299    3.9886 H   0  0  0  0  0  0  0  0  0  0  0  0
   -2.6680    3.8262    3.7473 H   0  0  0  0  0  0  0  0  0  0  0  0
   -0.2773    3.5211    4.3128 H   0  0  0  0  0  0  0  0  0  0  0  0
   -0.7816    2.3795    3.0756 H   0  0  0  0  0  0  0  0  0  0  0  0
  1  2  1  0
  1 18  1  0
  1 19  1  0
  1 20  1  0
  2 17  1  0
  2  3  1  0
  3  4  2  0
  4  5  1  0
  4 21  1  0
  5 17  2  0
  5  6  1  0
  6  7  1  0
  6 13  2  0
  7 12  1  0
  7  8  1  0
  8  9  1  0
  8 22  1  0
  8 23  1  0
  9 10  1  0
  9 24  1  0
  9 25  1  0
 10 11  1  0
 10 26  1  0
 10 27  1  0
 11 12  1  0
 11 28  1  0
 11 29  1  0
 12 30  1  0
 12 31  1  0
 13 14  1  0
 14 15  1  0
 14 16  2  0
 16 17  1  0
M  END
>  <i_m_ct_stereo_status>  (382) 
1

>  <s_m_source_file>  (382) 
/var/tmp/pbs.5076255.sched01/tmpt25ahaql/1236iipj8y0.sdf

>  <i_m_source_file_index>  (382) 
38

>  <i_lp_mmshare_version>  (382) 
48012

>  <i_f3d_flags>  (382) 
0

>  <s_epik_input>  (382) 
W2NIXTFubihbQ0gzXSljKGMxMiluYyhDbCluYzJOM1tDSDJdW0NIMl1bQ0gyXVtDSDJdW0NIMl0z

>  <s_epik_cmdline>  (382) 
J2VwaWtfcHl0aG9uJywgJy1waHQnLCAnMi4wJywgJy1waCcsICc3LjAnLCAnLXRuJywgJzgnLCAnLW1hJywgJzIwMCcsICctaW1hZScsICc8aW5maWxlLm1hZT4nLCAnLW9tYWUnLCAnPG91dGZpbGUubWFlPic=

>  <r_lp_tautomer_probability>  (382) 
1

>  <r_epik_Ionization_Penalty>  (382) 
1.41272e-06

>  <r_epik_Ionization_Penalty_Charging>  (382) 
0

>  <r_epik_Ionization_Penalty_Neutral>  (382) 
1.41272e-06

>  <r_epik_State_Penalty>  (382) 
-0

>  <r_epik_Charging_Adjusted_Penalty>  (382) 
0

>  <i_epik_Tot_Q>  (382) 
0

>  <i_epik_Tot_abs_Q>  (382) 
0

>  <s_lp_Force_Field>  (382) 
OPLS3e

>  <r_lp_Energy>  (382) 
35.4162

>  <b_lp_Chiralities_Consistent>  (382) 
1

>  <s_lp_Variant>  (382) 
114:0-1

>  <s_i_glide_gridfile>  (382) 
pfpi4k_grid

>  <i_i_glide_lignum>  (382) 
38

>  <i_i_glide_rotatable_bonds>  (382) 
1

>  <r_i_docking_score>  (382) 
-2.62205

>  <r_i_glide_ligand_efficiency>  (382) 
-0.154238

>  <r_i_glide_ligand_efficiency_sa>  (382) 
-0.39659

>  <r_i_glide_ligand_efficiency_ln>  (382) 
-0.684035

>  <r_i_glide_gscore>  (382) 
-2.62205

>  <r_i_glide_lipo>  (382) 
-0.0429623

>  <r_i_glide_hbond>  (382) 
0

>  <r_i_glide_metal>  (382) 
-0

>  <r_i_glide_rewards>  (382) 
-1.70168

>  <r_i_glide_evdw>  (382) 
-18.3931

>  <r_i_glide_ecoul>  (382) 
-1.08514

>  <r_i_glide_erotb>  (382) 
0.276736

>  <r_i_glide_esite>  (382) 
-0.0717199

>  <r_i_glide_emodel>  (382) 
-22.8609

>  <r_i_glide_energy>  (382) 
-19.4783

>  <r_i_glide_einternal>  (382) 
0.110983

>  <r_i_glide_intrahb_reward>  (382) 
-0

>  <i_i_glide_confnum>  (382) 
5

>  <i_i_glide_posenum>  (382) 
13

>  <r_i_glide_eff_state_penalty>  (382) 
0

>  <ligand_id>  (382) 
114

>  <original_smiles>  (382) 
Cn1ncc2c(N3CCCCC3)nc(Cl)nc21

>  <smiles>  (382) 
[H]c1nn(C([H])([H])[H])c2nc(Cl)nc(N3C([H])([H])C([H])([H])C([H])([H])C([H])([H])C3([H])[H])c12

$$$$
115:0:0
     RDKit          3D

 64 69  0  0  1  0  0  0  0  0999 V2000
    0.9480    2.7387    7.4968 C   0  0  0  0  0  0  0  0  0  0  0  0
    0.2719    1.3752    7.2431 C   0  0  2  0  0  0  0  0  0  0  0  0
    0.8367    0.6102    6.0407 C   0  0  2  0  0  0  0  0  0  0  0  0
   -0.3927   -0.0312    5.3949 C   0  0  1  0  0  0  0  0  0  0  0  0
   -0.0940   -1.5374    5.3221 C   0  0  0  0  0  0  0  0  0  0  0  0
    1.4495   -1.6370    5.2839 C   0  0  1  0  0  0  0  0  0  0  0  0
    1.9936   -1.5423    3.8212 C   0  0  2  0  0  0  0  0  0  0  0  0
    1.8334   -2.9108    3.1216 C   0  0  0  0  0  0  0  0  0  0  0  0
    2.6060   -3.0374    1.8270 C   0  0  0  0  0  0  0  0  0  0  0  0
    3.5361   -2.1698    1.3972 C   0  0  0  0  0  0  0  0  0  0  0  0
    4.2080   -2.3569    0.0439 C   0  0  0  0  0  0  0  0  0  0  0  0
    5.7347   -2.3358    0.1630 C   0  0  1  0  0  0  0  0  0  0  0  0
    6.3187   -2.3919   -1.1224 O   0  0  0  0  0  0  0  0  0  0  0  0
    6.2047   -1.0584    0.8624 C   0  0  0  0  0  0  0  0  0  0  0  0
    5.5354   -0.9043    2.2394 C   0  0  0  0  0  0  0  0  0  0  0  0
    3.9782   -0.9563    2.2266 C   0  0  1  0  0  0  0  0  0  0  0  0
    3.4131    0.3075    1.5410 C   0  0  0  0  0  0  0  0  0  0  0  0
    3.4671   -1.0749    3.7123 C   0  0  1  0  0  0  0  0  0  0  0  0
    3.6689    0.2097    4.5406 C   0  0  0  0  0  0  0  0  0  0  0  0
    3.3394   -0.0360    6.0121 C   0  0  0  0  0  0  0  0  0  0  0  0
    1.8944   -0.5159    6.2656 C   0  0  1  0  0  0  0  0  0  0  0  0
    1.8650   -1.0889    7.7046 C   0  0  0  0  0  0  0  0  0  0  0  0
   -1.5150    0.3074    6.2140 O   0  0  0  0  0  0  0  0  0  0  0  0
   -1.2215    1.4904    6.8939 C   0  0  0  0  0  0  0  0  0  0  0  0
   -1.4642    2.6227    6.1160 O   0  0  0  0  0  0  0  0  0  0  0  0
   -2.2097    3.4996    6.9370 C   0  0  0  0  0  0  0  0  0  0  0  0
   -2.9501    2.5404    7.8335 C   0  0  0  0  0  0  0  0  0  0  0  0
   -1.9482    1.5774    8.0738 O   0  0  0  0  0  0  0  0  0  0  0  0
    0.9016    3.3834    6.6151 H   0  0  0  0  0  0  0  0  0  0  0  0
    1.9998    2.6113    7.7477 H   0  0  0  0  0  0  0  0  0  0  0  0
    0.4739    3.2659    8.3235 H   0  0  0  0  0  0  0  0  0  0  0  0
    0.3030    0.7857    8.1534 H   0  0  0  0  0  0  0  0  0  0  0  0
    1.2081    1.3384    5.3223 H   0  0  0  0  0  0  0  0  0  0  0  0
   -0.5243    0.3821    4.3912 H   0  0  0  0  0  0  0  0  0  0  0  0
   -0.4632   -2.0243    6.2251 H   0  0  0  0  0  0  0  0  0  0  0  0
   -0.5886   -2.0238    4.4784 H   0  0  0  0  0  0  0  0  0  0  0  0
    1.7658   -2.5976    5.6925 H   0  0  0  0  0  0  0  0  0  0  0  0
    1.3887   -0.8117    3.2849 H   0  0  0  0  0  0  0  0  0  0  0  0
    2.1723   -3.7265    3.7639 H   0  0  0  0  0  0  0  0  0  0  0  0
    0.7813   -3.0863    2.9044 H   0  0  0  0  0  0  0  0  0  0  0  0
    2.3464   -3.8911    1.2142 H   0  0  0  0  0  0  0  0  0  0  0  0
    3.8859   -3.2962   -0.4073 H   0  0  0  0  0  0  0  0  0  0  0  0
    3.8774   -1.5652   -0.6262 H   0  0  0  0  0  0  0  0  0  0  0  0
    6.0660   -3.2038    0.7327 H   0  0  0  0  0  0  0  0  0  0  0  0
    6.0511   -3.1991   -1.5314 H   0  0  0  0  0  0  0  0  0  0  0  0
    7.2893   -1.0840    0.9867 H   0  0  0  0  0  0  0  0  0  0  0  0
    5.9886   -0.1881    0.2400 H   0  0  0  0  0  0  0  0  0  0  0  0
    5.9149   -1.7040    2.8768 H   0  0  0  0  0  0  0  0  0  0  0  0
    5.8836    0.0252    2.6870 H   0  0  0  0  0  0  0  0  0  0  0  0
    3.7606    1.2162    2.0269 H   0  0  0  0  0  0  0  0  0  0  0  0
    2.3236    0.3260    1.5435 H   0  0  0  0  0  0  0  0  0  0  0  0
    3.7316    0.3798    0.5025 H   0  0  0  0  0  0  0  0  0  0  0  0
    4.0674   -1.8514    4.1885 H   0  0  0  0  0  0  0  0  0  0  0  0
    4.6986    0.5571    4.4757 H   0  0  0  0  0  0  0  0  0  0  0  0
    3.0513    1.0218    4.1598 H   0  0  0  0  0  0  0  0  0  0  0  0
    4.0414   -0.7763    6.3973 H   0  0  0  0  0  0  0  0  0  0  0  0
    3.5250    0.8787    6.5799 H   0  0  0  0  0  0  0  0  0  0  0  0
    2.5161   -1.9582    7.7965 H   0  0  0  0  0  0  0  0  0  0  0  0
    0.8675   -1.4087    8.0038 H   0  0  0  0  0  0  0  0  0  0  0  0
    2.2167   -0.3616    8.4366 H   0  0  0  0  0  0  0  0  0  0  0  0
   -1.5495    4.1298    7.5343 H   0  0  0  0  0  0  0  0  0  0  0  0
   -2.8795    4.1277    6.3619 H   0  0  0  0  0  0  0  0  0  0  0  0
   -3.3144    2.9841    8.7608 H   0  0  0  0  0  0  0  0  0  0  0  0
   -3.7812    2.1043    7.2862 H   0  0  0  0  0  0  0  0  0  0  0  0
  1  2  1  0
  1 29  1  0
  1 30  1  0
  1 31  1  0
  2 24  1  0
  2  3  1  0
  2 32  1  1
  3 21  1  0
  3  4  1  0
  3 33  1  6
  4  5  1  0
  4 23  1  0
  4 34  1  6
  5  6  1  0
  5 35  1  0
  5 36  1  0
  6 21  1  0
  6  7  1  0
  6 37  1  1
  7 18  1  0
  7  8  1  0
  7 38  1  6
  8  9  1  0
  8 39  1  0
  8 40  1  0
  9 10  2  0
  9 41  1  0
 10 16  1  0
 10 11  1  0
 11 12  1  0
 11 42  1  0
 11 43  1  0
 12 13  1  0
 12 14  1  0
 12 44  1  1
 13 45  1  0
 14 15  1  0
 14 46  1  0
 14 47  1  0
 15 16  1  0
 15 48  1  0
 15 49  1  0
 16 17  1  6
 16 18  1  0
 17 50  1  0
 17 51  1  0
 17 52  1  0
 18 19  1  0
 18 53  1  1
 19 20  1  0
 19 54  1  0
 19 55  1  0
 20 21  1  0
 20 56  1  0
 20 57  1  0
 21 22  1  1
 22 58  1  0
 22 59  1  0
 22 60  1  0
 23 24  1  0
 24 28  1  0
 24 25  1  0
 25 26  1  0
 26 27  1  0
 26 61  1  0
 26 62  1  0
 27 28  1  0
 27 63  1  0
 27 64  1  0
M  END
>  <i_m_ct_stereo_status>  (383) 
1

>  <s_m_source_file>  (383) 
/var/tmp/pbs.5076255.sched01/tmpt25ahaql/1236iipj8y0.sdf

>  <i_m_source_file_index>  (383) 
39

>  <i_lp_mmshare_version>  (383) 
48012

>  <i_f3d_flags>  (383) 
0

>  <s_epik_input>  (383) 
TzFbQ0gyXVtDSDJdT0MxMltDQEhdKFtDSDNdKVtDQEBIXTNbQ0BIXShPMilbQ0gyXVtDQEhdNFtDQEhdNVtDQEhdKFtDSDJdW0NIMl1bQ0BAXTM0W0NIM10pW0NAXTYoW0NIM10pQyg9W0NIXVtDSDJdNSlbQ0gyXVtDQEBIXShbT0hdKVtDSDJdW0NIMl02

>  <s_epik_cmdline>  (383) 
J2VwaWtfcHl0aG9uJywgJy1waHQnLCAnMi4wJywgJy1waCcsICc3LjAnLCAnLXRuJywgJzgnLCAnLW1hJywgJzIwMCcsICctaW1hZScsICc8aW5maWxlLm1hZT4nLCAnLW9tYWUnLCAnPG91dGZpbGUubWFlPic=

>  <r_lp_tautomer_probability>  (383) 
1

>  <r_epik_Ionization_Penalty>  (383) 
1.22344e-06

>  <r_epik_Ionization_Penalty_Charging>  (383) 
0

>  <r_epik_Ionization_Penalty_Neutral>  (383) 
1.22344e-06

>  <r_epik_State_Penalty>  (383) 
-0

>  <r_epik_Charging_Adjusted_Penalty>  (383) 
0

>  <i_epik_Tot_Q>  (383) 
0

>  <i_epik_Tot_abs_Q>  (383) 
0

>  <s_lp_Force_Field>  (383) 
OPLS3e

>  <r_lp_Energy>  (383) 
15.1764

>  <b_lp_Chiralities_Consistent>  (383) 
1

>  <s_lp_Variant>  (383) 
115:0-1

>  <s_i_glide_gridfile>  (383) 
pfpi4k_grid

>  <i_i_glide_lignum>  (383) 
39

>  <i_i_glide_rotatable_bonds>  (383) 
1

>  <r_i_docking_score>  (383) 
-3.34621

>  <r_i_glide_ligand_efficiency>  (383) 
-0.119507

>  <r_i_glide_ligand_efficiency_sa>  (383) 
-0.362895

>  <r_i_glide_ligand_efficiency_ln>  (383) 
-0.772403

>  <r_i_glide_gscore>  (383) 
-3.34621

>  <r_i_glide_lipo>  (383) 
-0.53274

>  <r_i_glide_hbond>  (383) 
-0.18839

>  <r_i_glide_metal>  (383) 
-0

>  <r_i_glide_rewards>  (383) 
-0.759953

>  <r_i_glide_evdw>  (383) 
-24.7899

>  <r_i_glide_ecoul>  (383) 
-3.95057

>  <r_i_glide_erotb>  (383) 
0

>  <r_i_glide_esite>  (383) 
-0.0330468

>  <r_i_glide_emodel>  (383) 
-34.8732

>  <r_i_glide_energy>  (383) 
-28.7404

>  <r_i_glide_einternal>  (383) 
0.33178

>  <r_i_glide_intrahb_reward>  (383) 
-0

>  <i_i_glide_confnum>  (383) 
4

>  <i_i_glide_posenum>  (383) 
8

>  <r_i_glide_eff_state_penalty>  (383) 
0

>  <ligand_id>  (383) 
115

>  <original_smiles>  (383) 
CC1C2C(CC3C4CC=C5CC(O)CCC5(C)C4CCC32C)OC12OCCO2

>  <smiles>  (383) 
[H]OC1([H])C([H])([H])C2=C([H])C([H])([H])C3([H])C([H])(C([H])([H])C([H])([H])C4(C([H])([H])[H])C3([H])C([H])([H])C3([H])OC5(OC([H])([H])C([H])([H])O5)C([H])(C([H])([H])[H])C34[H])C2(C([H])([H])[H])C([H])([H])C1([H])[H]

$$$$
115:0:1
     RDKit          3D

 64 69  0  0  1  0  0  0  0  0999 V2000
    2.9215   -0.5997    1.8680 C   0  0  0  0  0  0  0  0  0  0  0  0
    2.3384   -0.8260    3.2779 C   0  0  2  0  0  0  0  0  0  0  0  0
    1.9450   -2.2792    3.5664 C   0  0  2  0  0  0  0  0  0  0  0  0
    0.6543   -2.1689    4.3775 C   0  0  1  0  0  0  0  0  0  0  0  0
    0.9049   -2.9395    5.6828 C   0  0  0  0  0  0  0  0  0  0  0  0
    1.9797   -3.9918    5.3243 C   0  0  1  0  0  0  0  0  0  0  0  0
    1.3351   -5.3010    4.7604 C   0  0  2  0  0  0  0  0  0  0  0  0
    0.8026   -6.1597    5.9326 C   0  0  0  0  0  0  0  0  0  0  0  0
    0.4471   -7.5752    5.5379 C   0  0  0  0  0  0  0  0  0  0  0  0
    0.7707   -8.1570    4.3697 C   0  0  0  0  0  0  0  0  0  0  0  0
    0.3266   -9.5821    4.0614 C   0  0  0  0  0  0  0  0  0  0  0  0
    1.5027  -10.4716    3.6414 C   0  0  1  0  0  0  0  0  0  0  0  0
    1.0110  -11.7458    3.2794 O   0  0  0  0  0  0  0  0  0  0  0  0
    2.2494   -9.8465    2.4592 C   0  0  0  0  0  0  0  0  0  0  0  0
    2.7228   -8.4205    2.7974 C   0  0  0  0  0  0  0  0  0  0  0  0
    1.6027   -7.4497    3.2856 C   0  0  1  0  0  0  0  0  0  0  0  0
    0.6587   -7.1085    2.1069 C   0  0  0  0  0  0  0  0  0  0  0  0
    2.2820   -6.1517    3.8726 C   0  0  1  0  0  0  0  0  0  0  0  0
    2.9330   -5.2547    2.7992 C   0  0  0  0  0  0  0  0  0  0  0  0
    3.7454   -4.1313    3.4418 C   0  0  0  0  0  0  0  0  0  0  0  0
    2.9214   -3.2055    4.3628 C   0  0  1  0  0  0  0  0  0  0  0  0
    3.9407   -2.4148    5.2214 C   0  0  0  0  0  0  0  0  0  0  0  0
    0.3930   -0.7765    4.5492 O   0  0  0  0  0  0  0  0  0  0  0  0
    1.0257   -0.0646    3.5254 C   0  0  0  0  0  0  0  0  0  0  0  0
    0.2431   -0.0240    2.3722 O   0  0  0  0  0  0  0  0  0  0  0  0
    0.2366    1.3286    1.9526 C   0  0  0  0  0  0  0  0  0  0  0  0
    0.3832    2.0582    3.2734 C   0  0  0  0  0  0  0  0  0  0  0  0
    1.3239    1.2345    3.9233 O   0  0  0  0  0  0  0  0  0  0  0  0
    2.2334   -0.9384    1.0914 H   0  0  0  0  0  0  0  0  0  0  0  0
    3.8538   -1.1459    1.7396 H   0  0  0  0  0  0  0  0  0  0  0  0
    3.1306    0.4552    1.6929 H   0  0  0  0  0  0  0  0  0  0  0  0
    3.0324   -0.4392    4.0179 H   0  0  0  0  0  0  0  0  0  0  0  0
    1.6658   -2.7460    2.6243 H   0  0  0  0  0  0  0  0  0  0  0  0
   -0.1618   -2.6283    3.8167 H   0  0  0  0  0  0  0  0  0  0  0  0
    1.2997   -2.2603    6.4406 H   0  0  0  0  0  0  0  0  0  0  0  0
   -0.0076   -3.3726    6.0951 H   0  0  0  0  0  0  0  0  0  0  0  0
    2.5472   -4.2592    6.2187 H   0  0  0  0  0  0  0  0  0  0  0  0
    0.4891   -5.0138    4.1378 H   0  0  0  0  0  0  0  0  0  0  0  0
    1.5426   -6.2376    6.7296 H   0  0  0  0  0  0  0  0  0  0  0  0
   -0.0841   -5.6967    6.3650 H   0  0  0  0  0  0  0  0  0  0  0  0
   -0.1090   -8.1380    6.2737 H   0  0  0  0  0  0  0  0  0  0  0  0
   -0.1643  -10.0148    4.9329 H   0  0  0  0  0  0  0  0  0  0  0  0
   -0.4249   -9.5586    3.2706 H   0  0  0  0  0  0  0  0  0  0  0  0
    2.1826  -10.5894    4.4864 H   0  0  0  0  0  0  0  0  0  0  0  0
    1.7195  -12.3772    3.2538 H   0  0  0  0  0  0  0  0  0  0  0  0
    3.1078  -10.4636    2.1891 H   0  0  0  0  0  0  0  0  0  0  0  0
    1.6069   -9.8258    1.5781 H   0  0  0  0  0  0  0  0  0  0  0  0
    3.4863   -8.5074    3.5704 H   0  0  0  0  0  0  0  0  0  0  0  0
    3.2283   -8.0109    1.9229 H   0  0  0  0  0  0  0  0  0  0  0  0
    1.2015   -6.6943    1.2566 H   0  0  0  0  0  0  0  0  0  0  0  0
   -0.1039   -6.3919    2.4073 H   0  0  0  0  0  0  0  0  0  0  0  0
    0.1364   -7.9894    1.7336 H   0  0  0  0  0  0  0  0  0  0  0  0
    3.0884   -6.4883    4.5276 H   0  0  0  0  0  0  0  0  0  0  0  0
    3.5998   -5.8355    2.1659 H   0  0  0  0  0  0  0  0  0  0  0  0
    2.1809   -4.8317    2.1374 H   0  0  0  0  0  0  0  0  0  0  0  0
    4.5562   -4.5862    4.0138 H   0  0  0  0  0  0  0  0  0  0  0  0
    4.2233   -3.5391    2.6620 H   0  0  0  0  0  0  0  0  0  0  0  0
    4.5176   -3.0798    5.8641 H   0  0  0  0  0  0  0  0  0  0  0  0
    3.4598   -1.6854    5.8728 H   0  0  0  0  0  0  0  0  0  0  0  0
    4.6628   -1.8820    4.6010 H   0  0  0  0  0  0  0  0  0  0  0  0
    1.0997    1.5316    1.3178 H   0  0  0  0  0  0  0  0  0  0  0  0
   -0.6595    1.5993    1.3956 H   0  0  0  0  0  0  0  0  0  0  0  0
    0.7499    3.0791    3.1636 H   0  0  0  0  0  0  0  0  0  0  0  0
   -0.5588    2.0675    3.8218 H   0  0  0  0  0  0  0  0  0  0  0  0
  1  2  1  0
  1 29  1  0
  1 30  1  0
  1 31  1  0
  2 24  1  0
  2  3  1  0
  2 32  1  1
  3 21  1  0
  3  4  1  0
  3 33  1  6
  4  5  1  0
  4 23  1  0
  4 34  1  6
  5  6  1  0
  5 35  1  0
  5 36  1  0
  6 21  1  0
  6  7  1  0
  6 37  1  1
  7 18  1  0
  7  8  1  0
  7 38  1  6
  8  9  1  0
  8 39  1  0
  8 40  1  0
  9 10  2  0
  9 41  1  0
 10 16  1  0
 10 11  1  0
 11 12  1  0
 11 42  1  0
 11 43  1  0
 12 13  1  0
 12 14  1  0
 12 44  1  1
 13 45  1  0
 14 15  1  0
 14 46  1  0
 14 47  1  0
 15 16  1  0
 15 48  1  0
 15 49  1  0
 16 17  1  6
 16 18  1  0
 17 50  1  0
 17 51  1  0
 17 52  1  0
 18 19  1  0
 18 53  1  1
 19 20  1  0
 19 54  1  0
 19 55  1  0
 20 21  1  0
 20 56  1  0
 20 57  1  0
 21 22  1  1
 22 58  1  0
 22 59  1  0
 22 60  1  0
 23 24  1  0
 24 28  1  0
 24 25  1  0
 25 26  1  0
 26 27  1  0
 26 61  1  0
 26 62  1  0
 27 28  1  0
 27 63  1  0
 27 64  1  0
M  END
>  <i_m_ct_stereo_status>  (384) 
1

>  <s_m_source_file>  (384) 
/var/tmp/pbs.5076255.sched01/tmpt25ahaql/1236iipj8y0.sdf

>  <i_m_source_file_index>  (384) 
39

>  <i_lp_mmshare_version>  (384) 
48012

>  <i_f3d_flags>  (384) 
0

>  <s_epik_input>  (384) 
TzFbQ0gyXVtDSDJdT0MxMltDQEhdKFtDSDNdKVtDQEBIXTNbQ0BIXShPMilbQ0gyXVtDQEhdNFtDQEhdNVtDQEhdKFtDSDJdW0NIMl1bQ0BAXTM0W0NIM10pW0NAXTYoW0NIM10pQyg9W0NIXVtDSDJdNSlbQ0gyXVtDQEBIXShbT0hdKVtDSDJdW0NIMl02

>  <s_epik_cmdline>  (384) 
J2VwaWtfcHl0aG9uJywgJy1waHQnLCAnMi4wJywgJy1waCcsICc3LjAnLCAnLXRuJywgJzgnLCAnLW1hJywgJzIwMCcsICctaW1hZScsICc8aW5maWxlLm1hZT4nLCAnLW9tYWUnLCAnPG91dGZpbGUubWFlPic=

>  <r_lp_tautomer_probability>  (384) 
1

>  <r_epik_Ionization_Penalty>  (384) 
1.22344e-06

>  <r_epik_Ionization_Penalty_Charging>  (384) 
0

>  <r_epik_Ionization_Penalty_Neutral>  (384) 
1.22344e-06

>  <r_epik_State_Penalty>  (384) 
-0

>  <r_epik_Charging_Adjusted_Penalty>  (384) 
0

>  <i_epik_Tot_Q>  (384) 
0

>  <i_epik_Tot_abs_Q>  (384) 
0

>  <s_lp_Force_Field>  (384) 
OPLS3e

>  <r_lp_Energy>  (384) 
15.1764

>  <b_lp_Chiralities_Consistent>  (384) 
1

>  <s_lp_Variant>  (384) 
115:0-1

>  <s_i_glide_gridfile>  (384) 
pfpi4k_grid

>  <i_i_glide_lignum>  (384) 
39

>  <i_i_glide_rotatable_bonds>  (384) 
1

>  <r_i_docking_score>  (384) 
-2.75527

>  <r_i_glide_ligand_efficiency>  (384) 
-0.0984024

>  <r_i_glide_ligand_efficiency_sa>  (384) 
-0.298808

>  <r_i_glide_ligand_efficiency_ln>  (384) 
-0.635997

>  <r_i_glide_gscore>  (384) 
-2.75527

>  <r_i_glide_lipo>  (384) 
-0.148605

>  <r_i_glide_hbond>  (384) 
-0.113535

>  <r_i_glide_metal>  (384) 
-0

>  <r_i_glide_rewards>  (384) 
-0.759953

>  <r_i_glide_evdw>  (384) 
-27.1619

>  <r_i_glide_ecoul>  (384) 
-2.4252

>  <r_i_glide_erotb>  (384) 
0

>  <r_i_glide_esite>  (384) 
-0.0113008

>  <r_i_glide_emodel>  (384) 
-34.4269

>  <r_i_glide_energy>  (384) 
-29.5871

>  <r_i_glide_einternal>  (384) 
0.469607

>  <r_i_glide_intrahb_reward>  (384) 
-0

>  <i_i_glide_confnum>  (384) 
1

>  <i_i_glide_posenum>  (384) 
1

>  <r_i_glide_eff_state_penalty>  (384) 
0

>  <ligand_id>  (384) 
115

>  <original_smiles>  (384) 
CC1C2C(CC3C4CC=C5CC(O)CCC5(C)C4CCC32C)OC12OCCO2

>  <smiles>  (384) 
[H]OC1([H])C([H])([H])C2=C([H])C([H])([H])C3([H])C([H])(C([H])([H])C([H])([H])C4(C([H])([H])[H])C3([H])C([H])([H])C3([H])OC5(OC([H])([H])C([H])([H])O5)C([H])(C([H])([H])[H])C34[H])C2(C([H])([H])[H])C([H])([H])C1([H])[H]

$$$$
115:0:2
     RDKit          3D

 64 69  0  0  1  0  0  0  0  0999 V2000
    3.7585   -0.4832    1.7858 C   0  0  0  0  0  0  0  0  0  0  0  0
    2.9516   -0.6558    3.0896 C   0  0  2  0  0  0  0  0  0  0  0  0
    2.4053   -2.0723    3.3048 C   0  0  2  0  0  0  0  0  0  0  0  0
    1.0117   -1.8482    3.8920 C   0  0  1  0  0  0  0  0  0  0  0  0
    0.9669   -2.6179    5.2168 C   0  0  0  0  0  0  0  0  0  0  0  0
    1.9965   -3.7544    5.0452 C   0  0  1  0  0  0  0  0  0  0  0  0
    1.3432   -5.0077    4.3812 C   0  0  2  0  0  0  0  0  0  0  0  0
    0.5464   -5.7963    5.4456 C   0  0  0  0  0  0  0  0  0  0  0  0
    0.1399   -7.1836    4.9972 C   0  0  0  0  0  0  0  0  0  0  0  0
    0.6041   -7.8058    3.9058 C   0  0  0  0  0  0  0  0  0  0  0  0
    0.0959   -9.1919    3.5273 C   0  0  0  0  0  0  0  0  0  0  0  0
    1.2400  -10.1814    3.3119 C   0  0  1  0  0  0  0  0  0  0  0  0
    0.7023  -11.4117    2.8870 O   0  0  0  0  0  0  0  0  0  0  0  0
    2.2331   -9.6463    2.2728 C   0  0  0  0  0  0  0  0  0  0  0  0
    2.7675   -8.2634    2.6887 C   0  0  0  0  0  0  0  0  0  0  0  0
    1.6684   -7.1956    2.9796 C   0  0  1  0  0  0  0  0  0  0  0  0
    0.9725   -6.7950    1.6560 C   0  0  0  0  0  0  0  0  0  0  0  0
    2.3477   -5.9490    3.6678 C   0  0  1  0  0  0  0  0  0  0  0  0
    3.2476   -5.1294    2.7207 C   0  0  0  0  0  0  0  0  0  0  0  0
    4.0328   -4.0680    3.4918 C   0  0  0  0  0  0  0  0  0  0  0  0
    3.1462   -3.0642    4.2552 C   0  0  1  0  0  0  0  0  0  0  0  0
    4.0698   -2.3436    5.2705 C   0  0  0  0  0  0  0  0  0  0  0  0
    0.8566   -0.4453    4.0675 O   0  0  0  0  0  0  0  0  0  0  0  0
    1.6761    0.2020    3.1455 C   0  0  0  0  0  0  0  0  0  0  0  0
    1.0808    0.2884    1.9013 O   0  0  0  0  0  0  0  0  0  0  0  0
    0.2584    1.4264    2.0187 C   0  0  0  0  0  0  0  0  0  0  0  0
    1.0571    2.3398    2.9595 C   0  0  0  0  0  0  0  0  0  0  0  0
    2.0033    1.4812    3.5668 O   0  0  0  0  0  0  0  0  0  0  0  0
    3.1877   -0.7842    0.9045 H   0  0  0  0  0  0  0  0  0  0  0  0
    4.6560   -1.1002    1.8145 H   0  0  0  0  0  0  0  0  0  0  0  0
    4.0738    0.5485    1.6402 H   0  0  0  0  0  0  0  0  0  0  0  0
    3.5537   -0.3183    3.9276 H   0  0  0  0  0  0  0  0  0  0  0  0
    2.2500   -2.5248    2.3264 H   0  0  0  0  0  0  0  0  0  0  0  0
    0.2624   -2.2326    3.1962 H   0  0  0  0  0  0  0  0  0  0  0  0
    1.2886   -1.9546    6.0233 H   0  0  0  0  0  0  0  0  0  0  0  0
   -0.0381   -2.9561    5.4680 H   0  0  0  0  0  0  0  0  0  0  0  0
    2.3789   -4.0518    6.0226 H   0  0  0  0  0  0  0  0  0  0  0  0
    0.6429   -4.6583    3.6224 H   0  0  0  0  0  0  0  0  0  0  0  0
    1.1334   -5.9308    6.3560 H   0  0  0  0  0  0  0  0  0  0  0  0
   -0.3579   -5.2536    5.7224 H   0  0  0  0  0  0  0  0  0  0  0  0
   -0.5784   -7.6820    5.6333 H   0  0  0  0  0  0  0  0  0  0  0  0
   -0.5661   -9.5653    4.3093 H   0  0  0  0  0  0  0  0  0  0  0  0
   -0.5050   -9.1136    2.6220 H   0  0  0  0  0  0  0  0  0  0  0  0
    1.7582  -10.3442    4.2585 H   0  0  0  0  0  0  0  0  0  0  0  0
    0.3202  -11.3057    2.0271 H   0  0  0  0  0  0  0  0  0  0  0  0
    3.0664  -10.3438    2.1655 H   0  0  0  0  0  0  0  0  0  0  0  0
    1.7700   -9.5843    1.2888 H   0  0  0  0  0  0  0  0  0  0  0  0
    3.3783   -8.4027    3.5808 H   0  0  0  0  0  0  0  0  0  0  0  0
    3.4469   -7.9121    1.9135 H   0  0  0  0  0  0  0  0  0  0  0  0
    1.6849   -6.4395    0.9110 H   0  0  0  0  0  0  0  0  0  0  0  0
    0.2336   -6.0146    1.8276 H   0  0  0  0  0  0  0  0  0  0  0  0
    0.4474   -7.6358    1.2003 H   0  0  0  0  0  0  0  0  0  0  0  0
    2.9997   -6.3433    4.4509 H   0  0  0  0  0  0  0  0  0  0  0  0
    3.9589   -5.7740    2.2109 H   0  0  0  0  0  0  0  0  0  0  0  0
    2.6566   -4.6516    1.9413 H   0  0  0  0  0  0  0  0  0  0  0  0
    4.6937   -4.5782    4.1936 H   0  0  0  0  0  0  0  0  0  0  0  0
    4.6821   -3.5305    2.7996 H   0  0  0  0  0  0  0  0  0  0  0  0
    4.4700   -3.0444    6.0032 H   0  0  0  0  0  0  0  0  0  0  0  0
    3.5488   -1.5662    5.8297 H   0  0  0  0  0  0  0  0  0  0  0  0
    4.9293   -1.8832    4.7809 H   0  0  0  0  0  0  0  0  0  0  0  0
    0.0475    1.8962    1.0581 H   0  0  0  0  0  0  0  0  0  0  0  0
   -0.6900    1.1276    2.4712 H   0  0  0  0  0  0  0  0  0  0  0  0
    1.5910    3.1245    2.4202 H   0  0  0  0  0  0  0  0  0  0  0  0
    0.4126    2.8127    3.7025 H   0  0  0  0  0  0  0  0  0  0  0  0
  1  2  1  0
  1 29  1  0
  1 30  1  0
  1 31  1  0
  2 24  1  0
  2  3  1  0
  2 32  1  1
  3 21  1  0
  3  4  1  0
  3 33  1  6
  4  5  1  0
  4 23  1  0
  4 34  1  6
  5  6  1  0
  5 35  1  0
  5 36  1  0
  6 21  1  0
  6  7  1  0
  6 37  1  1
  7 18  1  0
  7  8  1  0
  7 38  1  6
  8  9  1  0
  8 39  1  0
  8 40  1  0
  9 10  2  0
  9 41  1  0
 10 16  1  0
 10 11  1  0
 11 12  1  0
 11 42  1  0
 11 43  1  0
 12 13  1  0
 12 14  1  0
 12 44  1  1
 13 45  1  0
 14 15  1  0
 14 46  1  0
 14 47  1  0
 15 16  1  0
 15 48  1  0
 15 49  1  0
 16 17  1  6
 16 18  1  0
 17 50  1  0
 17 51  1  0
 17 52  1  0
 18 19  1  0
 18 53  1  1
 19 20  1  0
 19 54  1  0
 19 55  1  0
 20 21  1  0
 20 56  1  0
 20 57  1  0
 21 22  1  1
 22 58  1  0
 22 59  1  0
 22 60  1  0
 23 24  1  0
 24 28  1  0
 24 25  1  0
 25 26  1  0
 26 27  1  0
 26 61  1  0
 26 62  1  0
 27 28  1  0
 27 63  1  0
 27 64  1  0
M  END
>  <i_m_ct_stereo_status>  (385) 
1

>  <s_m_source_file>  (385) 
/var/tmp/pbs.5076255.sched01/tmpt25ahaql/1236iipj8y0.sdf

>  <i_m_source_file_index>  (385) 
39

>  <i_lp_mmshare_version>  (385) 
48012

>  <i_f3d_flags>  (385) 
0

>  <s_epik_input>  (385) 
TzFbQ0gyXVtDSDJdT0MxMltDQEhdKFtDSDNdKVtDQEBIXTNbQ0BIXShPMilbQ0gyXVtDQEhdNFtDQEhdNVtDQEhdKFtDSDJdW0NIMl1bQ0BAXTM0W0NIM10pW0NAXTYoW0NIM10pQyg9W0NIXVtDSDJdNSlbQ0gyXVtDQEBIXShbT0hdKVtDSDJdW0NIMl02

>  <s_epik_cmdline>  (385) 
J2VwaWtfcHl0aG9uJywgJy1waHQnLCAnMi4wJywgJy1waCcsICc3LjAnLCAnLXRuJywgJzgnLCAnLW1hJywgJzIwMCcsICctaW1hZScsICc8aW5maWxlLm1hZT4nLCAnLW9tYWUnLCAnPG91dGZpbGUubWFlPic=

>  <r_lp_tautomer_probability>  (385) 
1

>  <r_epik_Ionization_Penalty>  (385) 
1.22344e-06

>  <r_epik_Ionization_Penalty_Charging>  (385) 
0

>  <r_epik_Ionization_Penalty_Neutral>  (385) 
1.22344e-06

>  <r_epik_State_Penalty>  (385) 
-0

>  <r_epik_Charging_Adjusted_Penalty>  (385) 
0

>  <i_epik_Tot_Q>  (385) 
0

>  <i_epik_Tot_abs_Q>  (385) 
0

>  <s_lp_Force_Field>  (385) 
OPLS3e

>  <r_lp_Energy>  (385) 
15.1764

>  <b_lp_Chiralities_Consistent>  (385) 
1

>  <s_lp_Variant>  (385) 
115:0-1

>  <s_i_glide_gridfile>  (385) 
pfpi4k_grid

>  <i_i_glide_lignum>  (385) 
39

>  <i_i_glide_rotatable_bonds>  (385) 
1

>  <r_i_docking_score>  (385) 
-2.49189

>  <r_i_glide_ligand_efficiency>  (385) 
-0.0889962

>  <r_i_glide_ligand_efficiency_sa>  (385) 
-0.270245

>  <r_i_glide_ligand_efficiency_ln>  (385) 
-0.575202

>  <r_i_glide_gscore>  (385) 
-2.49189

>  <r_i_glide_lipo>  (385) 
-0.185008

>  <r_i_glide_hbond>  (385) 
0

>  <r_i_glide_metal>  (385) 
-0

>  <r_i_glide_rewards>  (385) 
-0.759953

>  <r_i_glide_evdw>  (385) 
-28.0134

>  <r_i_glide_ecoul>  (385) 
-0.893948

>  <r_i_glide_erotb>  (385) 
0

>  <r_i_glide_esite>  (385) 
-0.0121686

>  <r_i_glide_emodel>  (385) 
-33.7248

>  <r_i_glide_energy>  (385) 
-28.9074

>  <r_i_glide_einternal>  (385) 
0.00621575

>  <r_i_glide_intrahb_reward>  (385) 
-0

>  <i_i_glide_confnum>  (385) 
3

>  <i_i_glide_posenum>  (385) 
35

>  <r_i_glide_eff_state_penalty>  (385) 
0

>  <ligand_id>  (385) 
115

>  <original_smiles>  (385) 
CC1C2C(CC3C4CC=C5CC(O)CCC5(C)C4CCC32C)OC12OCCO2

>  <smiles>  (385) 
[H]OC1([H])C([H])([H])C2=C([H])C([H])([H])C3([H])C([H])(C([H])([H])C([H])([H])C4(C([H])([H])[H])C3([H])C([H])([H])C3([H])OC5(OC([H])([H])C([H])([H])O5)C([H])(C([H])([H])[H])C34[H])C2(C([H])([H])[H])C([H])([H])C1([H])[H]

$$$$
